MODEL 1
REMARK VINA RESULT:     -11.5      0.000      0.000
REMARK  Name = 17758816
REMARK  9 active torsions:
REMARK  status: ('A' for Active; 'I' for Inactive)
REMARK    1  A    between atoms: C_3  and  C_8
REMARK    2  A    between atoms: C_4  and  C_20
REMARK    3  A    between atoms: C_11  and  O_14
REMARK    4  A    between atoms: O_14  and  C_15
REMARK    5  A    between atoms: C_15  and  C_17
REMARK    6  A    between atoms: C_17  and  O_18
REMARK    7  A    between atoms: C_20  and  N_23
REMARK    8  A    between atoms: C_28  and  S_32
REMARK    9  A    between atoms: S_32  and  C_34
REMARK                            x       y       z     vdW  Elec       q    Type
REMARK                         _______ _______ _______ _____ _____    ______ ____
ROOT
ATOM      1  N   UNL     1      36.453 -20.913 -18.772  0.00  0.00    -0.317 N 
ATOM      2  N   UNL     1      34.802 -21.315 -20.201  0.00  0.00    -0.316 N 
ATOM      3  C   UNL     1      35.693 -21.893 -18.198  0.00  0.00    +0.060 C 
ATOM      4  C   UNL     1      35.881 -20.599 -19.972  0.00  0.00    +0.164 C 
ATOM      5  C   UNL     1      34.679 -22.123 -19.099  0.00  0.00    +0.074 C 
ATOM      6  H   UNL     1      37.266 -20.509 -18.390  0.00  0.00    +0.148 HD
ATOM      7  H   UNL     1      34.214 -21.280 -20.989  0.00  0.00    +0.148 HD
ENDROOT
BRANCH   3   8
ATOM      8  C   UNL     1      35.989 -22.481 -16.915  0.00  0.00    +0.015 C 
ATOM      9  C   UNL     1      37.289 -22.441 -16.414  0.00  0.00    +0.004 C 
ATOM     10  C   UNL     1      34.975 -23.088 -16.176  0.00  0.00    +0.004 C 
ATOM     11  C   UNL     1      36.561 -23.615 -14.431  0.00  0.00    +0.139 C 
ATOM     12  C   UNL     1      37.576 -23.008 -15.171  0.00  0.00    +0.037 C 
ATOM     13  C   UNL     1      35.260 -23.656 -14.934  0.00  0.00    +0.037 C 
BRANCH  11  14
ATOM     14  O   UNL     1      36.841 -24.169 -13.221  0.00  0.00    -0.464 OA
BRANCH  14  15
ATOM     15  C   UNL     1      36.558 -23.381 -12.064  0.00  0.00    +0.314 C 
BRANCH  15  17
ATOM     16  O   UNL     1      36.099 -24.234  -9.836  0.00  0.00    -0.246 OA
ATOM     17  C   UNL     1      35.859 -24.223 -11.034  0.00  0.00    +0.359 C 
BRANCH  17  18
ATOM     18  O   UNL     1      34.903 -24.985 -11.623  0.00  0.00    -0.478 OA
ATOM     19  H   UNL     1      35.126 -25.821 -11.983  0.00  0.00    +0.295 HD
ENDBRANCH  17  18
ENDBRANCH  15  17
ENDBRANCH  14  15
ENDBRANCH  11  14
ENDBRANCH   3   8
BRANCH   4  20
ATOM     20  C   UNL     1      36.461 -19.568 -20.853  0.00  0.00    +0.131 C 
BRANCH  20  23
ATOM     21  S   UNL     1      33.369 -14.089 -21.105  0.00  0.00    -0.045 S 
ATOM     22  O   UNL     1      35.247 -17.963 -22.882  0.00  0.00    -0.252 OA
ATOM     23  N   UNL     1      35.786 -18.303 -20.663  0.00  0.00    -0.285 N 
ATOM     24  N   UNL     1      34.640 -16.403 -21.229  0.00  0.00    -0.248 N 
ATOM     25  N   UNL     1      33.771 -15.426 -23.281  0.00  0.00    -0.222 NA
ATOM     26  C   UNL     1      35.218 -17.578 -21.716  0.00  0.00    +0.306 C 
ATOM     27  C   UNL     1      33.980 -15.431 -21.984  0.00  0.00    +0.167 C 
ATOM     28  C   UNL     1      32.772 -13.432 -22.572  0.00  0.00    +0.082 C 
ATOM     29  C   UNL     1      33.079 -14.279 -23.617  0.00  0.00    +0.114 C 
ATOM     30  H   UNL     1      35.725 -17.935 -19.752  0.00  0.00    +0.151 HD
ATOM     31  H   UNL     1      34.705 -16.245 -20.259  0.00  0.00    +0.158 HD
BRANCH  28  32
ATOM     32  S   UNL     1      31.910 -11.915 -22.660  0.00  0.00    -0.060 S 
BRANCH  32  34
ATOM     33  N   UNL     1      33.287  -9.659 -23.120  0.00  0.00    -0.237 NA
ATOM     34  C   UNL     1      33.152 -10.946 -23.512  0.00  0.00    +0.111 C 
ATOM     35  C   UNL     1      33.904 -11.534 -24.515  0.00  0.00    +0.026 C 
ATOM     36  C   UNL     1      34.858 -10.753 -25.158  0.00  0.00    +0.004 C 
ATOM     37  C   UNL     1      35.027  -9.425 -24.782  0.00  0.00    +0.021 C 
ATOM     38  C   UNL     1      34.224  -8.930 -23.767  0.00  0.00    +0.099 C 
ENDBRANCH  32  34
ENDBRANCH  28  32
ENDBRANCH  20  23
ENDBRANCH   4  20
TORSDOF 9
ENDMDL
MODEL 2
REMARK VINA RESULT:     -11.4      1.633      2.336
REMARK  Name = 17758816
REMARK  9 active torsions:
REMARK  status: ('A' for Active; 'I' for Inactive)
REMARK    1  A    between atoms: C_3  and  C_8
REMARK    2  A    between atoms: C_4  and  C_20
REMARK    3  A    between atoms: C_11  and  O_14
REMARK    4  A    between atoms: O_14  and  C_15
REMARK    5  A    between atoms: C_15  and  C_17
REMARK    6  A    between atoms: C_17  and  O_18
REMARK    7  A    between atoms: C_20  and  N_23
REMARK    8  A    between atoms: C_28  and  S_32
REMARK    9  A    between atoms: S_32  and  C_34
REMARK                            x       y       z     vdW  Elec       q    Type
REMARK                         _______ _______ _______ _____ _____    ______ ____
ROOT
ATOM      1  N   UNL     1      36.189 -20.342 -19.373  0.00  0.00    -0.317 N 
ATOM      2  N   UNL     1      34.441 -20.624 -20.712  0.00  0.00    -0.316 N 
ATOM      3  C   UNL     1      35.498 -21.405 -18.865  0.00  0.00    +0.060 C 
ATOM      4  C   UNL     1      35.518 -19.906 -20.480  0.00  0.00    +0.164 C 
ATOM      5  C   UNL     1      34.422 -21.559 -19.708  0.00  0.00    +0.074 C 
ATOM      6  H   UNL     1      37.020 -19.960 -19.007  0.00  0.00    +0.148 HD
ATOM      7  H   UNL     1      33.792 -20.515 -21.444  0.00  0.00    +0.148 HD
ENDROOT
BRANCH   3   8
ATOM      8  C   UNL     1      35.906 -22.131 -17.687  0.00  0.00    +0.015 C 
ATOM      9  C   UNL     1      34.982 -22.913 -16.995  0.00  0.00    +0.004 C 
ATOM     10  C   UNL     1      37.225 -22.050 -17.241  0.00  0.00    +0.004 C 
ATOM     11  C   UNL     1      36.697 -23.536 -15.410  0.00  0.00    +0.139 C 
ATOM     12  C   UNL     1      35.378 -23.616 -15.856  0.00  0.00    +0.037 C 
ATOM     13  C   UNL     1      37.621 -22.752 -16.102  0.00  0.00    +0.037 C 
BRANCH  11  14
ATOM     14  O   UNL     1      37.082 -24.220 -14.299  0.00  0.00    -0.464 OA
BRANCH  14  15
ATOM     15  C   UNL     1      36.588 -25.552 -14.153  0.00  0.00    +0.314 C 
BRANCH  15  17
ATOM     16  O   UNL     1      38.631 -26.789 -14.602  0.00  0.00    -0.246 OA
ATOM     17  C   UNL     1      37.479 -26.509 -14.897  0.00  0.00    +0.359 C 
BRANCH  17  18
ATOM     18  O   UNL     1      36.818 -27.033 -15.960  0.00  0.00    -0.478 OA
ATOM     19  H   UNL     1      36.807 -27.960 -16.095  0.00  0.00    +0.295 HD
ENDBRANCH  17  18
ENDBRANCH  15  17
ENDBRANCH  14  15
ENDBRANCH  11  14
ENDBRANCH   3   8
BRANCH   4  20
ATOM     20  C   UNL     1      36.004 -18.762 -21.273  0.00  0.00    +0.131 C 
BRANCH  20  23
ATOM     21  S   UNL     1      32.697 -13.420 -20.854  0.00  0.00    -0.045 S 
ATOM     22  O   UNL     1      34.785 -16.929 -23.095  0.00  0.00    -0.252 OA
ATOM     23  N   UNL     1      35.273 -17.562 -20.928  0.00  0.00    -0.285 N 
ATOM     24  N   UNL     1      34.066 -15.644 -21.260  0.00  0.00    -0.248 N 
ATOM     25  N   UNL     1      33.217 -14.416 -23.182  0.00  0.00    -0.222 NA
ATOM     26  C   UNL     1      34.706 -16.716 -21.887  0.00  0.00    +0.306 C 
ATOM     27  C   UNL     1      33.388 -14.599 -21.892  0.00  0.00    +0.167 C 
ATOM     28  C   UNL     1      32.117 -12.583 -22.233  0.00  0.00    +0.082 C 
ATOM     29  C   UNL     1      32.488 -13.260 -23.376  0.00  0.00    +0.114 C 
ATOM     30  H   UNL     1      35.170 -17.331 -19.977  0.00  0.00    +0.151 HD
ATOM     31  H   UNL     1      34.095 -15.623 -20.276  0.00  0.00    +0.158 HD
BRANCH  28  32
ATOM     32  S   UNL     1      31.195 -11.102 -22.135  0.00  0.00    -0.060 S 
BRANCH  32  34
ATOM     33  N   UNL     1      33.341 -10.413 -23.591  0.00  0.00    -0.237 NA
ATOM     34  C   UNL     1      32.465  -9.956 -22.668  0.00  0.00    +0.111 C 
ATOM     35  C   UNL     1      32.502  -8.682 -22.127  0.00  0.00    +0.026 C 
ATOM     36  C   UNL     1      33.502  -7.819 -22.562  0.00  0.00    +0.004 C 
ATOM     37  C   UNL     1      34.422  -8.252 -23.510  0.00  0.00    +0.021 C 
ATOM     38  C   UNL     1      34.299  -9.546 -23.990  0.00  0.00    +0.099 C 
ENDBRANCH  32  34
ENDBRANCH  28  32
ENDBRANCH  20  23
ENDBRANCH   4  20
TORSDOF 9
ENDMDL
MODEL 3
REMARK VINA RESULT:     -11.4      6.233     14.855
REMARK  Name = 17758816
REMARK  9 active torsions:
REMARK  status: ('A' for Active; 'I' for Inactive)
REMARK    1  A    between atoms: C_3  and  C_8
REMARK    2  A    between atoms: C_4  and  C_20
REMARK    3  A    between atoms: C_11  and  O_14
REMARK    4  A    between atoms: O_14  and  C_15
REMARK    5  A    between atoms: C_15  and  C_17
REMARK    6  A    between atoms: C_17  and  O_18
REMARK    7  A    between atoms: C_20  and  N_23
REMARK    8  A    between atoms: C_28  and  S_32
REMARK    9  A    between atoms: S_32  and  C_34
REMARK                            x       y       z     vdW  Elec       q    Type
REMARK                         _______ _______ _______ _____ _____    ______ ____
ROOT
ATOM      1  N   UNL     1      31.869  -9.333 -21.623  0.00  0.00    -0.317 N 
ATOM      2  N   UNL     1      32.227  -8.842 -19.487  0.00  0.00    -0.316 N 
ATOM      3  C   UNL     1      32.594  -8.175 -21.622  0.00  0.00    +0.060 C 
ATOM      4  C   UNL     1      31.672  -9.696 -20.320  0.00  0.00    +0.164 C 
ATOM      5  C   UNL     1      32.802  -7.892 -20.292  0.00  0.00    +0.074 C 
ATOM      6  H   UNL     1      31.547  -9.818 -22.417  0.00  0.00    +0.148 HD
ATOM      7  H   UNL     1      32.229  -8.878 -18.503  0.00  0.00    +0.148 HD
ENDROOT
BRANCH   3   8
ATOM      8  C   UNL     1      32.995  -7.487 -22.825  0.00  0.00    +0.015 C 
ATOM      9  C   UNL     1      34.271  -7.687 -23.349  0.00  0.00    +0.004 C 
ATOM     10  C   UNL     1      32.106  -6.623 -23.463  0.00  0.00    +0.004 C 
ATOM     11  C   UNL     1      33.769  -6.159 -25.152  0.00  0.00    +0.139 C 
ATOM     12  C   UNL     1      34.659  -7.022 -24.514  0.00  0.00    +0.037 C 
ATOM     13  C   UNL     1      32.493  -5.958 -24.627  0.00  0.00    +0.037 C 
BRANCH  11  14
ATOM     14  O   UNL     1      34.148  -5.510 -26.287  0.00  0.00    -0.464 OA
BRANCH  14  15
ATOM     15  C   UNL     1      33.250  -4.528 -26.804  0.00  0.00    +0.314 C 
BRANCH  15  17
ATOM     16  O   UNL     1      32.522  -4.368 -29.117  0.00  0.00    -0.246 OA
ATOM     17  C   UNL     1      33.423  -4.415 -28.294  0.00  0.00    +0.359 C 
BRANCH  17  18
ATOM     18  O   UNL     1      34.743  -4.368 -28.608  0.00  0.00    -0.478 OA
ATOM     19  H   UNL     1      35.388  -4.483 -27.940  0.00  0.00    +0.295 HD
ENDBRANCH  17  18
ENDBRANCH  15  17
ENDBRANCH  14  15
ENDBRANCH  11  14
ENDBRANCH   3   8
BRANCH   4  20
ATOM     20  C   UNL     1      30.920 -10.914 -19.966  0.00  0.00    +0.131 C 
BRANCH  20  23
ATOM     21  S   UNL     1      34.620 -15.961 -20.657  0.00  0.00    -0.045 S 
ATOM     22  O   UNL     1      31.718 -12.622 -22.113  0.00  0.00    -0.252 OA
ATOM     23  N   UNL     1      31.810 -12.050 -19.878  0.00  0.00    -0.285 N 
ATOM     24  N   UNL     1      33.022 -13.857 -20.594  0.00  0.00    -0.248 N 
ATOM     25  N   UNL     1      33.390 -14.992 -22.715  0.00  0.00    -0.222 NA
ATOM     26  C   UNL     1      32.150 -12.837 -20.984  0.00  0.00    +0.306 C 
ATOM     27  C   UNL     1      33.575 -14.835 -21.423  0.00  0.00    +0.167 C 
ATOM     28  C   UNL     1      34.854 -16.734 -22.170  0.00  0.00    +0.082 C 
ATOM     29  C   UNL     1      34.124 -16.081 -23.141  0.00  0.00    +0.114 C 
ATOM     30  H   UNL     1      32.194 -12.280 -19.001  0.00  0.00    +0.151 HD
ATOM     31  H   UNL     1      33.272 -13.888 -19.642  0.00  0.00    +0.158 HD
BRANCH  28  32
ATOM     32  S   UNL     1      35.879 -18.134 -22.380  0.00  0.00    -0.060 S 
BRANCH  32  34
ATOM     33  N   UNL     1      35.707 -20.082 -20.543  0.00  0.00    -0.237 NA
ATOM     34  C   UNL     1      34.972 -19.291 -21.357  0.00  0.00    +0.111 C 
ATOM     35  C   UNL     1      33.590 -19.332 -21.438  0.00  0.00    +0.026 C 
ATOM     36  C   UNL     1      32.917 -20.244 -20.632  0.00  0.00    +0.004 C 
ATOM     37  C   UNL     1      33.638 -21.074 -19.781  0.00  0.00    +0.021 C 
ATOM     38  C   UNL     1      35.019 -20.955 -19.774  0.00  0.00    +0.099 C 
ENDBRANCH  32  34
ENDBRANCH  28  32
ENDBRANCH  20  23
ENDBRANCH   4  20
TORSDOF 9
ENDMDL
MODEL 4
REMARK VINA RESULT:     -11.3      2.019      2.754
REMARK  Name = 17758816
REMARK  9 active torsions:
REMARK  status: ('A' for Active; 'I' for Inactive)
REMARK    1  A    between atoms: C_3  and  C_8
REMARK    2  A    between atoms: C_4  and  C_20
REMARK    3  A    between atoms: C_11  and  O_14
REMARK    4  A    between atoms: O_14  and  C_15
REMARK    5  A    between atoms: C_15  and  C_17
REMARK    6  A    between atoms: C_17  and  O_18
REMARK    7  A    between atoms: C_20  and  N_23
REMARK    8  A    between atoms: C_28  and  S_32
REMARK    9  A    between atoms: S_32  and  C_34
REMARK                            x       y       z     vdW  Elec       q    Type
REMARK                         _______ _______ _______ _____ _____    ______ ____
ROOT
ATOM      1  N   UNL     1      36.032 -19.904 -20.242  0.00  0.00    -0.317 N 
ATOM      2  N   UNL     1      34.426 -19.747 -21.767  0.00  0.00    -0.316 N 
ATOM      3  C   UNL     1      35.072 -20.802 -19.867  0.00  0.00    +0.060 C 
ATOM      4  C   UNL     1      35.601 -19.295 -21.387  0.00  0.00    +0.164 C 
ATOM      5  C   UNL     1      34.091 -20.686 -20.824  0.00  0.00    +0.074 C 
ATOM      6  H   UNL     1      36.880 -19.729 -19.772  0.00  0.00    +0.148 HD
ATOM      7  H   UNL     1      33.903 -19.473 -22.554  0.00  0.00    +0.148 HD
ENDROOT
BRANCH   3   8
ATOM      8  C   UNL     1      35.177 -21.637 -18.696  0.00  0.00    +0.015 C 
ATOM      9  C   UNL     1      36.374 -21.688 -17.982  0.00  0.00    +0.004 C 
ATOM     10  C   UNL     1      34.083 -22.392 -18.277  0.00  0.00    +0.004 C 
ATOM     11  C   UNL     1      35.381 -23.249 -16.428  0.00  0.00    +0.139 C 
ATOM     12  C   UNL     1      36.476 -22.494 -16.847  0.00  0.00    +0.037 C 
ATOM     13  C   UNL     1      34.184 -23.198 -17.143  0.00  0.00    +0.037 C 
BRANCH  11  14
ATOM     14  O   UNL     1      35.480 -24.036 -15.323  0.00  0.00    -0.464 OA
BRANCH  14  15
ATOM     15  C   UNL     1      36.748 -24.642 -15.069  0.00  0.00    +0.314 C 
BRANCH  15  17
ATOM     16  O   UNL     1      36.334 -26.876 -15.932  0.00  0.00    -0.246 OA
ATOM     17  C   UNL     1      36.591 -26.136 -14.994  0.00  0.00    +0.359 C 
BRANCH  17  18
ATOM     18  O   UNL     1      36.778 -26.563 -13.720  0.00  0.00    -0.478 OA
ATOM     19  H   UNL     1      37.161 -27.402 -13.558  0.00  0.00    +0.295 HD
ENDBRANCH  17  18
ENDBRANCH  15  17
ENDBRANCH  14  15
ENDBRANCH  11  14
ENDBRANCH   3   8
BRANCH   4  20
ATOM     20  C   UNL     1      36.411 -18.264 -22.060  0.00  0.00    +0.131 C 
BRANCH  20  23
ATOM     21  S   UNL     1      32.595 -13.366 -23.105  0.00  0.00    -0.045 S 
ATOM     22  O   UNL     1      35.005 -16.353 -20.467  0.00  0.00    -0.252 OA
ATOM     23  N   UNL     1      35.566 -17.194 -22.543  0.00  0.00    -0.285 N 
ATOM     24  N   UNL     1      34.172 -15.380 -22.440  0.00  0.00    -0.248 N 
ATOM     25  N   UNL     1      33.196 -14.016 -20.677  0.00  0.00    -0.222 NA
ATOM     26  C   UNL     1      34.911 -16.299 -21.691  0.00  0.00    +0.306 C 
ATOM     27  C   UNL     1      33.391 -14.338 -21.936  0.00  0.00    +0.167 C 
ATOM     28  C   UNL     1      31.926 -12.429 -21.835  0.00  0.00    +0.082 C 
ATOM     29  C   UNL     1      32.356 -12.921 -20.620  0.00  0.00    +0.114 C 
ATOM     30  H   UNL     1      35.447 -17.091 -23.515  0.00  0.00    +0.151 HD
ATOM     31  H   UNL     1      34.206 -15.476 -23.420  0.00  0.00    +0.158 HD
BRANCH  28  32
ATOM     32  S   UNL     1      30.868 -11.065 -22.107  0.00  0.00    -0.060 S 
BRANCH  32  34
ATOM     33  N   UNL     1      32.866  -9.926 -23.488  0.00  0.00    -0.237 NA
ATOM     34  C   UNL     1      32.112  -9.805 -22.372  0.00  0.00    +0.111 C 
ATOM     35  C   UNL     1      32.253  -8.783 -21.449  0.00  0.00    +0.026 C 
ATOM     36  C   UNL     1      33.230  -7.822 -21.685  0.00  0.00    +0.004 C 
ATOM     37  C   UNL     1      34.025  -7.912 -22.822  0.00  0.00    +0.021 C 
ATOM     38  C   UNL     1      33.805  -8.973 -23.685  0.00  0.00    +0.099 C 
ENDBRANCH  32  34
ENDBRANCH  28  32
ENDBRANCH  20  23
ENDBRANCH   4  20
TORSDOF 9
ENDMDL
MODEL 5
REMARK VINA RESULT:     -11.1      2.864      4.674
REMARK  Name = 17758816
REMARK  9 active torsions:
REMARK  status: ('A' for Active; 'I' for Inactive)
REMARK    1  A    between atoms: C_3  and  C_8
REMARK    2  A    between atoms: C_4  and  C_20
REMARK    3  A    between atoms: C_11  and  O_14
REMARK    4  A    between atoms: O_14  and  C_15
REMARK    5  A    between atoms: C_15  and  C_17
REMARK    6  A    between atoms: C_17  and  O_18
REMARK    7  A    between atoms: C_20  and  N_23
REMARK    8  A    between atoms: C_28  and  S_32
REMARK    9  A    between atoms: S_32  and  C_34
REMARK                            x       y       z     vdW  Elec       q    Type
REMARK                         _______ _______ _______ _____ _____    ______ ____
ROOT
ATOM      1  N   UNL     1      34.290 -18.463 -22.730  0.00  0.00    -0.317 N 
ATOM      2  N   UNL     1      35.310 -16.560 -22.213  0.00  0.00    -0.316 N 
ATOM      3  C   UNL     1      34.776 -18.631 -21.464  0.00  0.00    +0.060 C 
ATOM      4  C   UNL     1      34.634 -17.205 -23.139  0.00  0.00    +0.164 C 
ATOM      5  C   UNL     1      35.403 -17.443 -21.168  0.00  0.00    +0.074 C 
ATOM      6  H   UNL     1      33.783 -19.126 -23.252  0.00  0.00    +0.148 HD
ATOM      7  H   UNL     1      35.670 -15.645 -22.261  0.00  0.00    +0.148 HD
ENDROOT
BRANCH   3   8
ATOM      8  C   UNL     1      34.607 -19.844 -20.702  0.00  0.00    +0.015 C 
ATOM      9  C   UNL     1      33.326 -20.293 -20.383  0.00  0.00    +0.004 C 
ATOM     10  C   UNL     1      35.724 -20.567 -20.286  0.00  0.00    +0.004 C 
ATOM     11  C   UNL     1      34.279 -22.192 -19.231  0.00  0.00    +0.139 C 
ATOM     12  C   UNL     1      33.162 -21.468 -19.647  0.00  0.00    +0.037 C 
ATOM     13  C   UNL     1      35.561 -21.741 -19.550  0.00  0.00    +0.037 C 
BRANCH  11  14
ATOM     14  O   UNL     1      34.119 -23.336 -18.513  0.00  0.00    -0.464 OA
BRANCH  14  15
ATOM     15  C   UNL     1      33.503 -23.217 -17.230  0.00  0.00    +0.314 C 
BRANCH  15  17
ATOM     16  O   UNL     1      35.725 -23.554 -16.307  0.00  0.00    -0.246 OA
ATOM     17  C   UNL     1      34.556 -23.233 -16.157  0.00  0.00    +0.359 C 
BRANCH  17  18
ATOM     18  O   UNL     1      34.025 -22.833 -14.974  0.00  0.00    -0.478 OA
ATOM     19  H   UNL     1      33.108 -22.936 -14.814  0.00  0.00    +0.295 HD
ENDBRANCH  17  18
ENDBRANCH  15  17
ENDBRANCH  14  15
ENDBRANCH  11  14
ENDBRANCH   3   8
BRANCH   4  20
ATOM     20  C   UNL     1      34.257 -16.700 -24.472  0.00  0.00    +0.131 C 
BRANCH  20  23
ATOM     21  S   UNL     1      32.998 -10.610 -23.482  0.00  0.00    -0.045 S 
ATOM     22  O   UNL     1      32.724 -15.176 -22.603  0.00  0.00    -0.252 OA
ATOM     23  N   UNL     1      34.114 -15.261 -24.444  0.00  0.00    -0.285 N 
ATOM     24  N   UNL     1      33.392 -13.213 -23.715  0.00  0.00    -0.248 N 
ATOM     25  N   UNL     1      31.972 -12.394 -21.917  0.00  0.00    -0.222 NA
ATOM     26  C   UNL     1      33.340 -14.591 -23.491  0.00  0.00    +0.306 C 
ATOM     27  C   UNL     1      32.745 -12.228 -22.966  0.00  0.00    +0.167 C 
ATOM     28  C   UNL     1      31.991 -10.072 -22.203  0.00  0.00    +0.082 C 
ATOM     29  C   UNL     1      31.541 -11.157 -21.480  0.00  0.00    +0.114 C 
ATOM     30  H   UNL     1      34.582 -14.728 -25.128  0.00  0.00    +0.151 HD
ATOM     31  H   UNL     1      33.937 -12.907 -24.476  0.00  0.00    +0.158 HD
BRANCH  28  32
ATOM     32  S   UNL     1      31.633  -8.386 -21.913  0.00  0.00    -0.060 S 
BRANCH  32  34
ATOM     33  N   UNL     1      32.244  -6.927 -24.079  0.00  0.00    -0.237 NA
ATOM     34  C   UNL     1      32.783  -7.660 -23.079  0.00  0.00    +0.111 C 
ATOM     35  C   UNL     1      34.141  -7.873 -22.917  0.00  0.00    +0.026 C 
ATOM     36  C   UNL     1      35.005  -7.296 -23.841  0.00  0.00    +0.004 C 
ATOM     37  C   UNL     1      34.490  -6.534 -24.884  0.00  0.00    +0.021 C 
ATOM     38  C   UNL     1      33.115  -6.381 -24.958  0.00  0.00    +0.099 C 
ENDBRANCH  32  34
ENDBRANCH  28  32
ENDBRANCH  20  23
ENDBRANCH   4  20
TORSDOF 9
ENDMDL
MODEL 6
REMARK VINA RESULT:     -11.1      3.221      5.311
REMARK  Name = 17758816
REMARK  9 active torsions:
REMARK  status: ('A' for Active; 'I' for Inactive)
REMARK    1  A    between atoms: C_3  and  C_8
REMARK    2  A    between atoms: C_4  and  C_20
REMARK    3  A    between atoms: C_11  and  O_14
REMARK    4  A    between atoms: O_14  and  C_15
REMARK    5  A    between atoms: C_15  and  C_17
REMARK    6  A    between atoms: C_17  and  O_18
REMARK    7  A    between atoms: C_20  and  N_23
REMARK    8  A    between atoms: C_28  and  S_32
REMARK    9  A    between atoms: S_32  and  C_34
REMARK                            x       y       z     vdW  Elec       q    Type
REMARK                         _______ _______ _______ _____ _____    ______ ____
ROOT
ATOM      1  N   UNL     1      34.042 -18.056 -22.612  0.00  0.00    -0.317 N 
ATOM      2  N   UNL     1      35.824 -16.880 -23.220  0.00  0.00    -0.316 N 
ATOM      3  C   UNL     1      35.094 -18.588 -21.921  0.00  0.00    +0.060 C 
ATOM      4  C   UNL     1      34.528 -17.034 -23.378  0.00  0.00    +0.164 C 
ATOM      5  C   UNL     1      36.183 -17.845 -22.314  0.00  0.00    +0.074 C 
ATOM      6  H   UNL     1      33.105 -18.355 -22.565  0.00  0.00    +0.148 HD
ATOM      7  H   UNL     1      36.408 -16.217 -23.655  0.00  0.00    +0.148 HD
ENDROOT
BRANCH   3   8
ATOM      8  C   UNL     1      34.966 -19.694 -21.004  0.00  0.00    +0.015 C 
ATOM      9  C   UNL     1      36.107 -20.329 -20.515  0.00  0.00    +0.004 C 
ATOM     10  C   UNL     1      33.702 -20.127 -20.606  0.00  0.00    +0.004 C 
ATOM     11  C   UNL     1      34.719 -21.831 -19.228  0.00  0.00    +0.139 C 
ATOM     12  C   UNL     1      35.984 -21.399 -19.627  0.00  0.00    +0.037 C 
ATOM     13  C   UNL     1      33.578 -21.196 -19.719  0.00  0.00    +0.037 C 
BRANCH  11  14
ATOM     14  O   UNL     1      34.599 -22.875 -18.363  0.00  0.00    -0.464 OA
BRANCH  14  15
ATOM     15  C   UNL     1      33.364 -22.995 -17.658  0.00  0.00    +0.314 C 
BRANCH  15  17
ATOM     16  O   UNL     1      32.817 -23.524 -15.350  0.00  0.00    -0.246 OA
ATOM     17  C   UNL     1      33.618 -23.522 -16.273  0.00  0.00    +0.359 C 
BRANCH  17  18
ATOM     18  O   UNL     1      34.882 -24.007 -16.182  0.00  0.00    -0.478 OA
ATOM     19  H   UNL     1      35.546 -23.697 -16.765  0.00  0.00    +0.295 HD
ENDBRANCH  17  18
ENDBRANCH  15  17
ENDBRANCH  14  15
ENDBRANCH  11  14
ENDBRANCH   3   8
BRANCH   4  20
ATOM     20  C   UNL     1      33.644 -16.242 -24.253  0.00  0.00    +0.131 C 
BRANCH  20  23
ATOM     21  S   UNL     1      35.079 -10.119 -24.559  0.00  0.00    -0.045 S 
ATOM     22  O   UNL     1      32.449 -13.787 -23.409  0.00  0.00    -0.252 OA
ATOM     23  N   UNL     1      34.180 -14.913 -24.442  0.00  0.00    -0.285 N 
ATOM     24  N   UNL     1      34.282 -12.628 -24.321  0.00  0.00    -0.248 N 
ATOM     25  N   UNL     1      32.880 -10.856 -23.417  0.00  0.00    -0.222 NA
ATOM     26  C   UNL     1      33.527 -13.759 -23.997  0.00  0.00    +0.306 C 
ATOM     27  C   UNL     1      33.950 -11.302 -24.036  0.00  0.00    +0.167 C 
ATOM     28  C   UNL     1      34.063  -8.900 -23.910  0.00  0.00    +0.082 C 
ATOM     29  C   UNL     1      32.947  -9.479 -23.345  0.00  0.00    +0.114 C 
ATOM     30  H   UNL     1      35.043 -14.815 -24.906  0.00  0.00    +0.151 HD
ATOM     31  H   UNL     1      35.130 -12.781 -24.796  0.00  0.00    +0.158 HD
BRANCH  28  32
ATOM     32  S   UNL     1      34.448  -7.197 -23.984  0.00  0.00    -0.060 S 
BRANCH  32  34
ATOM     33  N   UNL     1      32.742  -6.684 -21.978  0.00  0.00    -0.237 NA
ATOM     34  C   UNL     1      32.921  -6.544 -23.311  0.00  0.00    +0.111 C 
ATOM     35  C   UNL     1      32.007  -5.941 -24.158  0.00  0.00    +0.026 C 
ATOM     36  C   UNL     1      30.832  -5.447 -23.602  0.00  0.00    +0.004 C 
ATOM     37  C   UNL     1      30.611  -5.571 -22.235  0.00  0.00    +0.021 C 
ATOM     38  C   UNL     1      31.588  -6.191 -21.473  0.00  0.00    +0.099 C 
ENDBRANCH  32  34
ENDBRANCH  28  32
ENDBRANCH  20  23
ENDBRANCH   4  20
TORSDOF 9
ENDMDL
MODEL 7
REMARK VINA RESULT:     -11.0      4.526     12.678
REMARK  Name = 17758816
REMARK  9 active torsions:
REMARK  status: ('A' for Active; 'I' for Inactive)
REMARK    1  A    between atoms: C_3  and  C_8
REMARK    2  A    between atoms: C_4  and  C_20
REMARK    3  A    between atoms: C_11  and  O_14
REMARK    4  A    between atoms: O_14  and  C_15
REMARK    5  A    between atoms: C_15  and  C_17
REMARK    6  A    between atoms: C_17  and  O_18
REMARK    7  A    between atoms: C_20  and  N_23
REMARK    8  A    between atoms: C_28  and  S_32
REMARK    9  A    between atoms: S_32  and  C_34
REMARK                            x       y       z     vdW  Elec       q    Type
REMARK                         _______ _______ _______ _____ _____    ______ ____
ROOT
ATOM      1  N   UNL     1      34.858 -16.641 -22.040  0.00  0.00    -0.317 N 
ATOM      2  N   UNL     1      35.130 -17.379 -24.116  0.00  0.00    -0.316 N 
ATOM      3  C   UNL     1      34.132 -15.799 -22.834  0.00  0.00    +0.060 C 
ATOM      4  C   UNL     1      35.439 -17.573 -22.853  0.00  0.00    +0.164 C 
ATOM      5  C   UNL     1      34.316 -16.275 -24.111  0.00  0.00    +0.074 C 
ATOM      6  H   UNL     1      34.946 -16.586 -21.061  0.00  0.00    +0.148 HD
ATOM      7  H   UNL     1      35.418 -17.910 -24.893  0.00  0.00    +0.148 HD
ENDROOT
BRANCH   3   8
ATOM      8  C   UNL     1      33.375 -14.681 -22.326  0.00  0.00    +0.015 C 
ATOM      9  C   UNL     1      32.941 -13.681 -23.195  0.00  0.00    +0.004 C 
ATOM     10  C   UNL     1      33.078 -14.601 -20.966  0.00  0.00    +0.004 C 
ATOM     11  C   UNL     1      31.909 -12.521 -21.343  0.00  0.00    +0.139 C 
ATOM     12  C   UNL     1      32.208 -12.600 -22.703  0.00  0.00    +0.037 C 
ATOM     13  C   UNL     1      32.345 -13.521 -20.474  0.00  0.00    +0.037 C 
BRANCH  11  14
ATOM     14  O   UNL     1      31.195 -11.466 -20.864  0.00  0.00    -0.464 OA
BRANCH  14  15
ATOM     15  C   UNL     1      31.759 -10.166 -21.041  0.00  0.00    +0.314 C 
BRANCH  15  17
ATOM     16  O   UNL     1      32.048 -10.162 -18.629  0.00  0.00    -0.246 OA
ATOM     17  C   UNL     1      32.183  -9.610 -19.710  0.00  0.00    +0.359 C 
BRANCH  17  18
ATOM     18  O   UNL     1      32.749  -8.388 -19.872  0.00  0.00    -0.478 OA
ATOM     19  H   UNL     1      33.604  -8.313 -20.249  0.00  0.00    +0.295 HD
ENDBRANCH  17  18
ENDBRANCH  15  17
ENDBRANCH  14  15
ENDBRANCH  11  14
ENDBRANCH   3   8
BRANCH   4  20
ATOM     20  C   UNL     1      36.298 -18.640 -22.307  0.00  0.00    +0.131 C 
BRANCH  20  23
ATOM     21  S   UNL     1      33.768 -22.646 -18.159  0.00  0.00    -0.045 S 
ATOM     22  O   UNL     1      37.106 -19.880 -19.862  0.00  0.00    -0.252 OA
ATOM     23  N   UNL     1      35.517 -19.557 -21.506  0.00  0.00    -0.285 N 
ATOM     24  N   UNL     1      35.019 -20.963 -19.767  0.00  0.00    -0.248 N 
ATOM     25  N   UNL     1      36.158 -21.744 -17.764  0.00  0.00    -0.222 NA
ATOM     26  C   UNL     1      35.990 -20.121 -20.317  0.00  0.00    +0.306 C 
ATOM     27  C   UNL     1      35.133 -21.697 -18.585  0.00  0.00    +0.167 C 
ATOM     28  C   UNL     1      34.603 -23.174 -16.758  0.00  0.00    +0.082 C 
ATOM     29  C   UNL     1      35.852 -22.591 -16.717  0.00  0.00    +0.114 C 
ATOM     30  H   UNL     1      34.611 -19.795 -21.811  0.00  0.00    +0.151 HD
ATOM     31  H   UNL     1      34.172 -21.045 -20.262  0.00  0.00    +0.158 HD
BRANCH  28  32
ATOM     32  S   UNL     1      33.915 -24.282 -15.596  0.00  0.00    -0.060 S 
BRANCH  32  34
ATOM     33  N   UNL     1      35.903 -26.081 -15.694  0.00  0.00    -0.237 NA
ATOM     34  C   UNL     1      35.432 -25.023 -14.997  0.00  0.00    +0.111 C 
ATOM     35  C   UNL     1      36.045 -24.501 -13.871  0.00  0.00    +0.026 C 
ATOM     36  C   UNL     1      37.220 -25.101 -13.431  0.00  0.00    +0.004 C 
ATOM     37  C   UNL     1      37.737 -26.191 -14.123  0.00  0.00    +0.021 C 
ATOM     38  C   UNL     1      37.047 -26.639 -15.238  0.00  0.00    +0.099 C 
ENDBRANCH  32  34
ENDBRANCH  28  32
ENDBRANCH  20  23
ENDBRANCH   4  20
TORSDOF 9
ENDMDL
MODEL 8
REMARK VINA RESULT:     -10.7      3.799      6.001
REMARK  Name = 17758816
REMARK  9 active torsions:
REMARK  status: ('A' for Active; 'I' for Inactive)
REMARK    1  A    between atoms: C_3  and  C_8
REMARK    2  A    between atoms: C_4  and  C_20
REMARK    3  A    between atoms: C_11  and  O_14
REMARK    4  A    between atoms: O_14  and  C_15
REMARK    5  A    between atoms: C_15  and  C_17
REMARK    6  A    between atoms: C_17  and  O_18
REMARK    7  A    between atoms: C_20  and  N_23
REMARK    8  A    between atoms: C_28  and  S_32
REMARK    9  A    between atoms: S_32  and  C_34
REMARK                            x       y       z     vdW  Elec       q    Type
REMARK                         _______ _______ _______ _____ _____    ______ ____
ROOT
ATOM      1  N   UNL     1      33.126 -24.141 -15.487  0.00  0.00    -0.317 N 
ATOM      2  N   UNL     1      31.723 -22.919 -14.275  0.00  0.00    -0.316 N 
ATOM      3  C   UNL     1      33.749 -23.935 -14.288  0.00  0.00    +0.060 C 
ATOM      4  C   UNL     1      31.914 -23.514 -15.433  0.00  0.00    +0.164 C 
ATOM      5  C   UNL     1      32.864 -23.178 -13.558  0.00  0.00    +0.074 C 
ATOM      6  H   UNL     1      33.485 -24.650 -16.250  0.00  0.00    +0.148 HD
ATOM      7  H   UNL     1      30.936 -22.403 -13.988  0.00  0.00    +0.148 HD
ENDROOT
BRANCH   3   8
ATOM      8  C   UNL     1      35.059 -24.451 -13.974  0.00  0.00    +0.015 C 
ATOM      9  C   UNL     1      35.828 -25.053 -14.969  0.00  0.00    +0.004 C 
ATOM     10  C   UNL     1      35.556 -24.347 -12.676  0.00  0.00    +0.004 C 
ATOM     11  C   UNL     1      37.593 -25.446 -13.367  0.00  0.00    +0.139 C 
ATOM     12  C   UNL     1      37.096 -25.551 -14.665  0.00  0.00    +0.037 C 
ATOM     13  C   UNL     1      36.823 -24.845 -12.371  0.00  0.00    +0.037 C 
BRANCH  11  14
ATOM     14  O   UNL     1      38.829 -25.933 -13.070  0.00  0.00    -0.464 OA
BRANCH  14  15
ATOM     15  C   UNL     1      39.948 -25.264 -13.654  0.00  0.00    +0.314 C 
BRANCH  15  17
ATOM     16  O   UNL     1      41.433 -27.123 -14.149  0.00  0.00    -0.246 OA
ATOM     17  C   UNL     1      40.707 -26.218 -14.534  0.00  0.00    +0.359 C 
BRANCH  17  18
ATOM     18  O   UNL     1      40.474 -25.937 -15.841  0.00  0.00    -0.478 OA
ATOM     19  H   UNL     1      40.640 -25.077 -16.172  0.00  0.00    +0.295 HD
ENDBRANCH  17  18
ENDBRANCH  15  17
ENDBRANCH  14  15
ENDBRANCH  11  14
ENDBRANCH   3   8
BRANCH   4  20
ATOM     20  C   UNL     1      30.982 -23.543 -16.575  0.00  0.00    +0.131 C 
BRANCH  20  23
ATOM     21  S   UNL     1      33.455 -19.524 -20.744  0.00  0.00    -0.045 S 
ATOM     22  O   UNL     1      33.516 -23.164 -17.839  0.00  0.00    -0.252 OA
ATOM     23  N   UNL     1      31.322 -22.513 -17.532  0.00  0.00    -0.285 N 
ATOM     24  N   UNL     1      32.623 -21.315 -18.987  0.00  0.00    -0.248 N 
ATOM     25  N   UNL     1      34.923 -21.419 -19.775  0.00  0.00    -0.222 NA
ATOM     26  C   UNL     1      32.594 -22.398 -18.105  0.00  0.00    +0.306 C 
ATOM     27  C   UNL     1      33.720 -20.892 -19.742  0.00  0.00    +0.167 C 
ATOM     28  C   UNL     1      35.082 -19.630 -21.275  0.00  0.00    +0.082 C 
ATOM     29  C   UNL     1      35.703 -20.694 -20.655  0.00  0.00    +0.114 C 
ATOM     30  H   UNL     1      30.629 -21.864 -17.791  0.00  0.00    +0.151 HD
ATOM     31  H   UNL     1      31.791 -20.799 -19.086  0.00  0.00    +0.158 HD
BRANCH  28  32
ATOM     32  S   UNL     1      35.783 -18.525 -22.433  0.00  0.00    -0.060 S 
BRANCH  32  34
ATOM     33  N   UNL     1      35.164 -16.644 -20.623  0.00  0.00    -0.237 NA
ATOM     34  C   UNL     1      34.964 -17.022 -21.905  0.00  0.00    +0.111 C 
ATOM     35  C   UNL     1      34.176 -16.326 -22.806  0.00  0.00    +0.026 C 
ATOM     36  C   UNL     1      33.552 -15.164 -22.363  0.00  0.00    +0.004 C 
ATOM     37  C   UNL     1      33.735 -14.742 -21.051  0.00  0.00    +0.021 C 
ATOM     38  C   UNL     1      34.543 -15.509 -20.228  0.00  0.00    +0.099 C 
ENDBRANCH  32  34
ENDBRANCH  28  32
ENDBRANCH  20  23
ENDBRANCH   4  20
TORSDOF 9
ENDMDL
MODEL 9
REMARK VINA RESULT:     -10.7      2.040      2.782
REMARK  Name = 17758816
REMARK  9 active torsions:
REMARK  status: ('A' for Active; 'I' for Inactive)
REMARK    1  A    between atoms: C_3  and  C_8
REMARK    2  A    between atoms: C_4  and  C_20
REMARK    3  A    between atoms: C_11  and  O_14
REMARK    4  A    between atoms: O_14  and  C_15
REMARK    5  A    between atoms: C_15  and  C_17
REMARK    6  A    between atoms: C_17  and  O_18
REMARK    7  A    between atoms: C_20  and  N_23
REMARK    8  A    between atoms: C_28  and  S_32
REMARK    9  A    between atoms: S_32  and  C_34
REMARK                            x       y       z     vdW  Elec       q    Type
REMARK                         _______ _______ _______ _____ _____    ______ ____
ROOT
ATOM      1  N   UNL     1      34.762 -22.674 -17.812  0.00  0.00    -0.317 N 
ATOM      2  N   UNL     1      32.642 -22.467 -18.438  0.00  0.00    -0.316 N 
ATOM      3  C   UNL     1      34.018 -23.189 -16.788  0.00  0.00    +0.060 C 
ATOM      4  C   UNL     1      33.894 -22.253 -18.779  0.00  0.00    +0.164 C 
ATOM      5  C   UNL     1      32.713 -23.049 -17.198  0.00  0.00    +0.074 C 
ATOM      6  H   UNL     1      35.745 -22.618 -17.846  0.00  0.00    +0.148 HD
ATOM      7  H   UNL     1      31.833 -22.256 -18.958  0.00  0.00    +0.148 HD
ENDROOT
BRANCH   3   8
ATOM      8  C   UNL     1      34.593 -23.733 -15.582  0.00  0.00    +0.015 C 
ATOM      9  C   UNL     1      33.867 -23.709 -14.391  0.00  0.00    +0.004 C 
ATOM     10  C   UNL     1      35.874 -24.284 -15.607  0.00  0.00    +0.004 C 
ATOM     11  C   UNL     1      35.704 -24.788 -13.250  0.00  0.00    +0.139 C 
ATOM     12  C   UNL     1      34.423 -24.236 -13.225  0.00  0.00    +0.037 C 
ATOM     13  C   UNL     1      36.430 -24.811 -14.441  0.00  0.00    +0.037 C 
BRANCH  11  14
ATOM     14  O   UNL     1      36.245 -25.301 -12.113  0.00  0.00    -0.464 OA
BRANCH  14  15
ATOM     15  C   UNL     1      37.569 -24.883 -11.777  0.00  0.00    +0.314 C 
BRANCH  15  17
ATOM     16  O   UNL     1      36.898 -23.003 -10.390  0.00  0.00    -0.246 OA
ATOM     17  C   UNL     1      37.548 -23.449 -11.324  0.00  0.00    +0.359 C 
BRANCH  17  18
ATOM     18  O   UNL     1      38.367 -22.700 -12.105  0.00  0.00    -0.478 OA
ATOM     19  H   UNL     1      39.231 -22.490 -11.812  0.00  0.00    +0.295 HD
ENDBRANCH  17  18
ENDBRANCH  15  17
ENDBRANCH  14  15
ENDBRANCH  11  14
ENDBRANCH   3   8
BRANCH   4  20
ATOM     20  C   UNL     1      34.376 -21.643 -20.032  0.00  0.00    +0.131 C 
BRANCH  20  23
ATOM     21  S   UNL     1      32.887 -15.671 -21.362  0.00  0.00    -0.045 S 
ATOM     22  O   UNL     1      35.454 -19.547 -21.648  0.00  0.00    -0.252 OA
ATOM     23  N   UNL     1      33.840 -20.308 -20.182  0.00  0.00    -0.285 N 
ATOM     24  N   UNL     1      33.695 -18.153 -20.943  0.00  0.00    -0.248 N 
ATOM     25  N   UNL     1      34.983 -16.732 -22.441  0.00  0.00    -0.222 NA
ATOM     26  C   UNL     1      34.433 -19.338 -20.997  0.00  0.00    +0.306 C 
ATOM     27  C   UNL     1      33.981 -16.968 -21.625  0.00  0.00    +0.167 C 
ATOM     28  C   UNL     1      33.821 -14.702 -22.423  0.00  0.00    +0.082 C 
ATOM     29  C   UNL     1      34.890 -15.432 -22.898  0.00  0.00    +0.114 C 
ATOM     30  H   UNL     1      33.022 -20.072 -19.689  0.00  0.00    +0.151 HD
ATOM     31  H   UNL     1      32.896 -18.153 -20.368  0.00  0.00    +0.158 HD
BRANCH  28  32
ATOM     32  S   UNL     1      33.421 -13.044 -22.805  0.00  0.00    -0.060 S 
BRANCH  32  34
ATOM     33  N   UNL     1      33.818 -12.107 -25.287  0.00  0.00    -0.237 NA
ATOM     34  C   UNL     1      33.380 -13.179 -24.591  0.00  0.00    +0.111 C 
ATOM     35  C   UNL     1      32.912 -14.344 -25.174  0.00  0.00    +0.026 C 
ATOM     36  C   UNL     1      32.892 -14.415 -26.563  0.00  0.00    +0.004 C 
ATOM     37  C   UNL     1      33.335 -13.332 -27.314  0.00  0.00    +0.021 C 
ATOM     38  C   UNL     1      33.785 -12.212 -26.635  0.00  0.00    +0.099 C 
ENDBRANCH  32  34
ENDBRANCH  28  32
ENDBRANCH  20  23
ENDBRANCH   4  20
TORSDOF 9
ENDMDL
