MODEL 1
REMARK VINA RESULT:      -9.8      0.000      0.000
REMARK  Name = 132519
REMARK  10 active torsions:
REMARK  status: ('A' for Active; 'I' for Inactive)
REMARK    1  A    between atoms: C_1  and  C_4
REMARK    2  A    between atoms: C_1  and  N_8
REMARK    3  A    between atoms: C_1  and  C_23
REMARK    4  A    between atoms: C_9  and  C_11
REMARK    5  A    between atoms: C_11  and  C_12
REMARK    6  A    between atoms: C_11  and  C_16
REMARK    7  A    between atoms: C_12  and  C_13
REMARK    8  A    between atoms: C_16  and  C_19
REMARK    9  A    between atoms: N_18  and  O_21
REMARK   10  A    between atoms: C_23  and  C_25
REMARK                            x       y       z     vdW  Elec       q    Type
REMARK                         _______ _______ _______ _____ _____    ______ ____
ROOT
ATOM      1  C   UNL     1      33.384 -22.836 -16.747  0.00  0.00    +0.153 C 
ENDROOT
BRANCH   1   4
ATOM      2  O   UNL     1      31.013 -22.581 -17.180  0.00  0.00    -0.273 OA
ATOM      3  N   UNL     1      31.694 -24.001 -15.473  0.00  0.00    -0.301 N 
ATOM      4  C   UNL     1      31.902 -23.094 -16.502  0.00  0.00    +0.241 C 
ATOM      5  C   UNL     1      30.383 -24.453 -15.069  0.00  0.00    +0.111 C 
ATOM      6  H   UNL     1      32.479 -24.352 -14.993  0.00  0.00    +0.150 HD
ENDBRANCH   1   4
BRANCH   1   8
ATOM      7  O   UNL     1      35.790 -22.063 -15.386  0.00  0.00    -0.275 OA
ATOM      8  N   UNL     1      34.127 -23.626 -15.792  0.00  0.00    -0.298 N 
ATOM      9  C   UNL     1      35.282 -23.165 -15.185  0.00  0.00    +0.223 C 
ATOM     10  H   UNL     1      33.798 -24.526 -15.564  0.00  0.00    +0.150 HD
BRANCH   9  11
ATOM     11  C   UNL     1      35.911 -24.155 -14.204  0.00  0.00    +0.086 C 
BRANCH  11  12
ATOM     12  C   UNL     1      36.384 -25.447 -14.900  0.00  0.00    +0.010 C 
BRANCH  12  13
ATOM     13  C   UNL     1      37.876 -25.790 -14.699  0.00  0.00    +0.000 C 
ATOM     14  C   UNL     1      38.213 -26.108 -13.241  0.00  0.00    +0.000 C 
ATOM     15  C   UNL     1      38.742 -24.624 -15.184  0.00  0.00    +0.000 C 
ENDBRANCH  12  13
ENDBRANCH  11  12
BRANCH  11  16
ATOM     16  C   UNL     1      34.925 -24.468 -13.065  0.00  0.00    +0.096 C 
BRANCH  16  19
ATOM     17  O   UNL     1      35.253 -24.946 -10.736  0.00  0.00    -0.273 OA
ATOM     18  N   UNL     1      36.448 -23.211 -11.688  0.00  0.00    -0.197 N 
ATOM     19  C   UNL     1      35.553 -24.251 -11.703  0.00  0.00    +0.245 C 
ATOM     20  H   UNL     1      36.653 -22.685 -12.494  0.00  0.00    +0.182 HD
BRANCH  18  21
ATOM     21  O   UNL     1      37.053 -22.945 -10.452  0.00  0.00    -0.295 OA
ATOM     22  H   UNL     1      37.998 -23.160 -10.502  0.00  0.00    +0.241 HD
ENDBRANCH  18  21
ENDBRANCH  16  19
ENDBRANCH  11  16
ENDBRANCH   9  11
ENDBRANCH   1   8
BRANCH   1  23
ATOM     23  C   UNL     1      33.758 -23.185 -18.194  0.00  0.00    +0.057 C 
BRANCH  23  25
ATOM     24  N   UNL     1      36.357 -20.952 -19.455  0.00  0.00    -0.312 N 
ATOM     25  C   UNL     1      34.609 -22.138 -18.852  0.00  0.00    -0.004 C 
ATOM     26  C   UNL     1      34.148 -21.126 -19.716  0.00  0.00    +0.011 C 
ATOM     27  C   UNL     1      35.271 -20.386 -20.088  0.00  0.00    +0.048 C 
ATOM     28  C   UNL     1      35.957 -22.022 -18.701  0.00  0.00    +0.058 C 
ATOM     29  C   UNL     1      32.890 -20.753 -20.230  0.00  0.00    +0.001 C 
ATOM     30  C   UNL     1      35.201 -19.286 -20.950  0.00  0.00    +0.015 C 
ATOM     31  C   UNL     1      32.804 -19.655 -21.094  0.00  0.00    +0.000 C 
ATOM     32  C   UNL     1      33.943 -18.935 -21.448  0.00  0.00    +0.001 C 
ATOM     33  H   UNL     1      37.284 -20.633 -19.535  0.00  0.00    +0.152 HD
ENDBRANCH  23  25
ENDBRANCH   1  23
TORSDOF 10
ENDMDL
MODEL 2
REMARK VINA RESULT:      -9.8      3.211      5.709
REMARK  Name = 132519
REMARK  10 active torsions:
REMARK  status: ('A' for Active; 'I' for Inactive)
REMARK    1  A    between atoms: C_1  and  C_4
REMARK    2  A    between atoms: C_1  and  N_8
REMARK    3  A    between atoms: C_1  and  C_23
REMARK    4  A    between atoms: C_9  and  C_11
REMARK    5  A    between atoms: C_11  and  C_12
REMARK    6  A    between atoms: C_11  and  C_16
REMARK    7  A    between atoms: C_12  and  C_13
REMARK    8  A    between atoms: C_16  and  C_19
REMARK    9  A    between atoms: N_18  and  O_21
REMARK   10  A    between atoms: C_23  and  C_25
REMARK                            x       y       z     vdW  Elec       q    Type
REMARK                         _______ _______ _______ _____ _____    ______ ____
ROOT
ATOM      1  C   UNL     1      34.670 -23.959 -15.610  0.00  0.00    +0.153 C 
ENDROOT
BRANCH   1   4
ATOM      2  O   UNL     1      34.507 -22.911 -17.789  0.00  0.00    -0.273 OA
ATOM      3  N   UNL     1      36.338 -22.425 -16.446  0.00  0.00    -0.301 N 
ATOM      4  C   UNL     1      35.145 -23.065 -16.750  0.00  0.00    +0.241 C 
ATOM      5  C   UNL     1      36.981 -21.486 -17.337  0.00  0.00    +0.111 C 
ATOM      6  H   UNL     1      36.768 -22.621 -15.583  0.00  0.00    +0.150 HD
ENDBRANCH   1   4
BRANCH   1   8
ATOM      7  O   UNL     1      35.906 -26.546 -15.742  0.00  0.00    -0.275 OA
ATOM      8  N   UNL     1      35.839 -24.394 -14.882  0.00  0.00    -0.298 N 
ATOM      9  C   UNL     1      36.365 -25.668 -15.012  0.00  0.00    +0.223 C 
ATOM     10  H   UNL     1      36.279 -23.760 -14.270  0.00  0.00    +0.150 HD
BRANCH   9  11
ATOM     11  C   UNL     1      37.606 -25.923 -14.156  0.00  0.00    +0.086 C 
BRANCH  11  12
ATOM     12  C   UNL     1      37.332 -25.719 -12.653  0.00  0.00    +0.010 C 
BRANCH  12  13
ATOM     13  C   UNL     1      36.782 -24.328 -12.270  0.00  0.00    +0.000 C 
ATOM     14  C   UNL     1      37.864 -23.406 -11.705  0.00  0.00    +0.000 C 
ATOM     15  C   UNL     1      35.653 -24.484 -11.248  0.00  0.00    +0.000 C 
ENDBRANCH  12  13
ENDBRANCH  11  12
BRANCH  11  16
ATOM     16  C   UNL     1      38.768 -25.035 -14.633  0.00  0.00    +0.096 C 
BRANCH  16  19
ATOM     17  O   UNL     1      40.534 -25.941 -15.983  0.00  0.00    -0.273 OA
ATOM     18  N   UNL     1      40.507 -26.429 -13.723  0.00  0.00    -0.197 N 
ATOM     19  C   UNL     1      40.030 -25.839 -14.866  0.00  0.00    +0.245 C 
ATOM     20  H   UNL     1      40.063 -26.315 -12.852  0.00  0.00    +0.182 HD
BRANCH  18  21
ATOM     21  O   UNL     1      41.664 -27.204 -13.873  0.00  0.00    -0.295 OA
ATOM     22  H   UNL     1      42.433 -26.698 -13.567  0.00  0.00    +0.241 HD
ENDBRANCH  18  21
ENDBRANCH  16  19
ENDBRANCH  11  16
ENDBRANCH   9  11
ENDBRANCH   1   8
BRANCH   1  23
ATOM     23  C   UNL     1      33.683 -23.203 -14.711  0.00  0.00    +0.057 C 
BRANCH  23  25
ATOM     24  N   UNL     1      30.902 -25.354 -13.726  0.00  0.00    -0.312 N 
ATOM     25  C   UNL     1      32.390 -23.940 -14.505  0.00  0.00    -0.004 C 
ATOM     26  C   UNL     1      31.188 -23.702 -15.198  0.00  0.00    +0.011 C 
ATOM     27  C   UNL     1      30.257 -24.609 -14.689  0.00  0.00    +0.048 C 
ATOM     28  C   UNL     1      32.204 -24.948 -13.609  0.00  0.00    +0.058 C 
ATOM     29  C   UNL     1      30.782 -22.810 -16.210  0.00  0.00    +0.001 C 
ATOM     30  C   UNL     1      28.934 -24.670 -15.143  0.00  0.00    +0.015 C 
ATOM     31  C   UNL     1      29.462 -22.859 -16.675  0.00  0.00    +0.000 C 
ATOM     32  C   UNL     1      28.554 -23.775 -16.147  0.00  0.00    +0.001 C 
ATOM     33  H   UNL     1      30.485 -26.073 -13.198  0.00  0.00    +0.152 HD
ENDBRANCH  23  25
ENDBRANCH   1  23
TORSDOF 10
ENDMDL
MODEL 3
REMARK VINA RESULT:      -9.8      2.249      2.836
REMARK  Name = 132519
REMARK  10 active torsions:
REMARK  status: ('A' for Active; 'I' for Inactive)
REMARK    1  A    between atoms: C_1  and  C_4
REMARK    2  A    between atoms: C_1  and  N_8
REMARK    3  A    between atoms: C_1  and  C_23
REMARK    4  A    between atoms: C_9  and  C_11
REMARK    5  A    between atoms: C_11  and  C_12
REMARK    6  A    between atoms: C_11  and  C_16
REMARK    7  A    between atoms: C_12  and  C_13
REMARK    8  A    between atoms: C_16  and  C_19
REMARK    9  A    between atoms: N_18  and  O_21
REMARK   10  A    between atoms: C_23  and  C_25
REMARK                            x       y       z     vdW  Elec       q    Type
REMARK                         _______ _______ _______ _____ _____    ______ ____
ROOT
ATOM      1  C   UNL     1      34.022 -23.025 -16.345  0.00  0.00    +0.153 C 
ENDROOT
BRANCH   1   4
ATOM      2  O   UNL     1      32.509 -23.414 -14.492  0.00  0.00    -0.273 OA
ATOM      3  N   UNL     1      31.620 -23.033 -16.603  0.00  0.00    -0.301 N 
ATOM      4  C   UNL     1      32.655 -23.198 -15.693  0.00  0.00    +0.241 C 
ATOM      5  C   UNL     1      30.224 -23.100 -16.235  0.00  0.00    +0.111 C 
ATOM      6  H   UNL     1      31.848 -22.863 -17.546  0.00  0.00    +0.150 HD
ENDBRANCH   1   4
BRANCH   1   8
ATOM      7  O   UNL     1      36.628 -22.549 -15.241  0.00  0.00    -0.275 OA
ATOM      8  N   UNL     1      34.907 -24.010 -15.767  0.00  0.00    -0.298 N 
ATOM      9  C   UNL     1      36.152 -23.683 -15.258  0.00  0.00    +0.223 C 
ATOM     10  H   UNL     1      34.614 -24.949 -15.735  0.00  0.00    +0.150 HD
BRANCH   9  11
ATOM     11  C   UNL     1      36.928 -24.872 -14.690  0.00  0.00    +0.086 C 
BRANCH  11  12
ATOM     12  C   UNL     1      36.583 -25.144 -13.213  0.00  0.00    +0.010 C 
BRANCH  12  13
ATOM     13  C   UNL     1      36.306 -23.886 -12.363  0.00  0.00    +0.000 C 
ATOM     14  C   UNL     1      37.590 -23.223 -11.861  0.00  0.00    +0.000 C 
ATOM     15  C   UNL     1      35.418 -24.255 -11.171  0.00  0.00    +0.000 C 
ENDBRANCH  12  13
ENDBRANCH  11  12
BRANCH  11  16
ATOM     16  C   UNL     1      38.439 -24.653 -14.876  0.00  0.00    +0.096 C 
BRANCH  16  19
ATOM     17  O   UNL     1      38.696 -27.038 -14.805  0.00  0.00    -0.273 OA
ATOM     18  N   UNL     1      40.529 -25.714 -14.324  0.00  0.00    -0.197 N 
ATOM     19  C   UNL     1      39.221 -25.935 -14.674  0.00  0.00    +0.245 C 
ATOM     20  H   UNL     1      40.900 -24.807 -14.233  0.00  0.00    +0.182 HD
BRANCH  18  21
ATOM     21  O   UNL     1      41.304 -26.861 -14.105  0.00  0.00    -0.295 OA
ATOM     22  H   UNL     1      40.831 -27.461 -13.507  0.00  0.00    +0.241 HD
ENDBRANCH  18  21
ENDBRANCH  16  19
ENDBRANCH  11  16
ENDBRANCH   9  11
ENDBRANCH   1   8
BRANCH   1  23
ATOM     23  C   UNL     1      33.914 -23.175 -17.868  0.00  0.00    +0.057 C 
BRANCH  23  25
ATOM     24  N   UNL     1      36.424 -20.967 -19.336  0.00  0.00    -0.312 N 
ATOM     25  C   UNL     1      34.723 -22.158 -18.620  0.00  0.00    -0.004 C 
ATOM     26  C   UNL     1      34.221 -21.239 -19.562  0.00  0.00    +0.011 C 
ATOM     27  C   UNL     1      35.316 -20.494 -20.005  0.00  0.00    +0.048 C 
ATOM     28  C   UNL     1      36.067 -21.982 -18.490  0.00  0.00    +0.058 C 
ATOM     29  C   UNL     1      32.948 -20.955 -20.095  0.00  0.00    +0.001 C 
ATOM     30  C   UNL     1      35.201 -19.475 -20.956  0.00  0.00    +0.015 C 
ATOM     31  C   UNL     1      32.818 -19.938 -21.048  0.00  0.00    +0.000 C 
ATOM     32  C   UNL     1      33.929 -19.211 -21.471  0.00  0.00    +0.001 C 
ATOM     33  H   UNL     1      37.339 -20.624 -19.451  0.00  0.00    +0.152 HD
ENDBRANCH  23  25
ENDBRANCH   1  23
TORSDOF 10
ENDMDL
MODEL 4
REMARK VINA RESULT:      -9.7      6.563     11.749
REMARK  Name = 132519
REMARK  10 active torsions:
REMARK  status: ('A' for Active; 'I' for Inactive)
REMARK    1  A    between atoms: C_1  and  C_4
REMARK    2  A    between atoms: C_1  and  N_8
REMARK    3  A    between atoms: C_1  and  C_23
REMARK    4  A    between atoms: C_9  and  C_11
REMARK    5  A    between atoms: C_11  and  C_12
REMARK    6  A    between atoms: C_11  and  C_16
REMARK    7  A    between atoms: C_12  and  C_13
REMARK    8  A    between atoms: C_16  and  C_19
REMARK    9  A    between atoms: N_18  and  O_21
REMARK   10  A    between atoms: C_23  and  C_25
REMARK                            x       y       z     vdW  Elec       q    Type
REMARK                         _______ _______ _______ _____ _____    ______ ____
ROOT
ATOM      1  C   UNL     1      34.745 -17.015 -22.996  0.00  0.00    +0.153 C 
ENDROOT
BRANCH   1   4
ATOM      2  O   UNL     1      34.832 -17.136 -25.415  0.00  0.00    -0.273 OA
ATOM      3  N   UNL     1      34.664 -19.108 -24.201  0.00  0.00    -0.301 N 
ATOM      4  C   UNL     1      34.737 -17.730 -24.343  0.00  0.00    +0.241 C 
ATOM      5  C   UNL     1      34.687 -20.021 -25.320  0.00  0.00    +0.111 C 
ATOM      6  H   UNL     1      34.591 -19.482 -23.293  0.00  0.00    +0.150 HD
ENDBRANCH   1   4
BRANCH   1   8
ATOM      7  O   UNL     1      34.683 -14.846 -21.118  0.00  0.00    -0.275 OA
ATOM      8  N   UNL     1      34.102 -15.734 -23.179  0.00  0.00    -0.298 N 
ATOM      9  C   UNL     1      34.127 -14.745 -22.211  0.00  0.00    +0.223 C 
ATOM     10  H   UNL     1      33.629 -15.559 -24.025  0.00  0.00    +0.150 HD
BRANCH   9  11
ATOM     11  C   UNL     1      33.389 -13.466 -22.606  0.00  0.00    +0.086 C 
BRANCH  11  12
ATOM     12  C   UNL     1      32.153 -13.206 -21.722  0.00  0.00    +0.010 C 
BRANCH  12  13
ATOM     13  C   UNL     1      31.968 -11.743 -21.267  0.00  0.00    +0.000 C 
ATOM     14  C   UNL     1      31.619 -11.630 -19.783  0.00  0.00    +0.000 C 
ATOM     15  C   UNL     1      30.872 -11.078 -22.106  0.00  0.00    +0.000 C 
ENDBRANCH  12  13
ENDBRANCH  11  12
BRANCH  11  16
ATOM     16  C   UNL     1      33.006 -13.516 -24.095  0.00  0.00    +0.096 C 
BRANCH  16  19
ATOM     17  O   UNL     1      33.611 -12.367 -26.114  0.00  0.00    -0.273 OA
ATOM     18  N   UNL     1      34.409 -11.559 -24.100  0.00  0.00    -0.197 N 
ATOM     19  C   UNL     1      33.695 -12.425 -24.889  0.00  0.00    +0.245 C 
ATOM     20  H   UNL     1      34.443 -11.652 -23.120  0.00  0.00    +0.182 HD
BRANCH  18  21
ATOM     21  O   UNL     1      35.087 -10.536 -24.775  0.00  0.00    -0.295 OA
ATOM     22  H   UNL     1      34.797 -10.512 -25.700  0.00  0.00    +0.241 HD
ENDBRANCH  18  21
ENDBRANCH  16  19
ENDBRANCH  11  16
ENDBRANCH   9  11
ENDBRANCH   1   8
BRANCH   1  23
ATOM     23  C   UNL     1      34.035 -17.866 -21.934  0.00  0.00    +0.057 C 
BRANCH  23  25
ATOM     24  N   UNL     1      36.798 -19.697 -20.402  0.00  0.00    -0.312 N 
ATOM     25  C   UNL     1      34.964 -18.795 -21.206  0.00  0.00    -0.004 C 
ATOM     26  C   UNL     1      34.580 -19.936 -20.475  0.00  0.00    +0.011 C 
ATOM     27  C   UNL     1      35.758 -20.493 -19.973  0.00  0.00    +0.048 C 
ATOM     28  C   UNL     1      36.318 -18.659 -21.154  0.00  0.00    +0.058 C 
ATOM     29  C   UNL     1      33.354 -20.563 -20.180  0.00  0.00    +0.001 C 
ATOM     30  C   UNL     1      35.772 -21.651 -19.188  0.00  0.00    +0.015 C 
ATOM     31  C   UNL     1      33.352 -21.722 -19.395  0.00  0.00    +0.000 C 
ATOM     32  C   UNL     1      34.543 -22.256 -18.907  0.00  0.00    +0.001 C 
ATOM     33  H   UNL     1      37.748 -19.853 -20.197  0.00  0.00    +0.152 HD
ENDBRANCH  23  25
ENDBRANCH   1  23
TORSDOF 10
ENDMDL
MODEL 5
REMARK VINA RESULT:      -9.4      2.196      4.963
REMARK  Name = 132519
REMARK  10 active torsions:
REMARK  status: ('A' for Active; 'I' for Inactive)
REMARK    1  A    between atoms: C_1  and  C_4
REMARK    2  A    between atoms: C_1  and  N_8
REMARK    3  A    between atoms: C_1  and  C_23
REMARK    4  A    between atoms: C_9  and  C_11
REMARK    5  A    between atoms: C_11  and  C_12
REMARK    6  A    between atoms: C_11  and  C_16
REMARK    7  A    between atoms: C_12  and  C_13
REMARK    8  A    between atoms: C_16  and  C_19
REMARK    9  A    between atoms: N_18  and  O_21
REMARK   10  A    between atoms: C_23  and  C_25
REMARK                            x       y       z     vdW  Elec       q    Type
REMARK                         _______ _______ _______ _____ _____    ______ ____
ROOT
ATOM      1  C   UNL     1      34.330 -23.864 -15.571  0.00  0.00    +0.153 C 
ENDROOT
BRANCH   1   4
ATOM      2  O   UNL     1      35.935 -22.689 -16.955  0.00  0.00    -0.273 OA
ATOM      3  N   UNL     1      33.758 -22.933 -17.725  0.00  0.00    -0.301 N 
ATOM      4  C   UNL     1      34.782 -23.086 -16.802  0.00  0.00    +0.241 C 
ATOM      5  C   UNL     1      33.933 -22.273 -18.999  0.00  0.00    +0.111 C 
ATOM      6  H   UNL     1      32.868 -23.290 -17.501  0.00  0.00    +0.150 HD
ENDBRANCH   1   4
BRANCH   1   8
ATOM      7  O   UNL     1      35.912 -26.256 -15.475  0.00  0.00    -0.275 OA
ATOM      8  N   UNL     1      35.496 -24.094 -14.749  0.00  0.00    -0.298 N 
ATOM      9  C   UNL     1      36.197 -25.288 -14.772  0.00  0.00    +0.223 C 
ATOM     10  H   UNL     1      35.803 -23.375 -14.151  0.00  0.00    +0.150 HD
BRANCH   9  11
ATOM     11  C   UNL     1      37.401 -25.324 -13.830  0.00  0.00    +0.086 C 
BRANCH  11  12
ATOM     12  C   UNL     1      38.531 -26.228 -14.359  0.00  0.00    +0.010 C 
BRANCH  12  13
ATOM     13  C   UNL     1      39.955 -25.650 -14.212  0.00  0.00    +0.000 C 
ATOM     14  C   UNL     1      40.344 -24.745 -15.381  0.00  0.00    +0.000 C 
ATOM     15  C   UNL     1      40.965 -26.796 -14.090  0.00  0.00    +0.000 C 
ENDBRANCH  12  13
ENDBRANCH  11  12
BRANCH  11  16
ATOM     16  C   UNL     1      36.956 -25.758 -12.422  0.00  0.00    +0.096 C 
BRANCH  16  19
ATOM     17  O   UNL     1      35.795 -24.590 -10.677  0.00  0.00    -0.273 OA
ATOM     18  N   UNL     1      37.499 -23.498 -11.794  0.00  0.00    -0.197 N 
ATOM     19  C   UNL     1      36.680 -24.566 -11.528  0.00  0.00    +0.245 C 
ATOM     20  H   UNL     1      38.195 -23.533 -12.489  0.00  0.00    +0.182 HD
BRANCH  18  21
ATOM     21  O   UNL     1      37.285 -22.355 -11.012  0.00  0.00    -0.295 OA
ATOM     22  H   UNL     1      37.949 -21.684 -11.233  0.00  0.00    +0.241 HD
ENDBRANCH  18  21
ENDBRANCH  16  19
ENDBRANCH  11  16
ENDBRANCH   9  11
ENDBRANCH   1   8
BRANCH   1  23
ATOM     23  C   UNL     1      33.241 -23.090 -14.816  0.00  0.00    +0.057 C 
BRANCH  23  25
ATOM     24  N   UNL     1      30.509 -25.356 -13.960  0.00  0.00    -0.312 N 
ATOM     25  C   UNL     1      31.967 -23.868 -14.657  0.00  0.00    -0.004 C 
ATOM     26  C   UNL     1      30.764 -23.628 -15.349  0.00  0.00    +0.011 C 
ATOM     27  C   UNL     1      29.853 -24.582 -14.892  0.00  0.00    +0.048 C 
ATOM     28  C   UNL     1      31.800 -24.923 -13.813  0.00  0.00    +0.058 C 
ATOM     29  C   UNL     1      30.343 -22.700 -16.321  0.00  0.00    +0.001 C 
ATOM     30  C   UNL     1      28.536 -24.655 -15.360  0.00  0.00    +0.015 C 
ATOM     31  C   UNL     1      29.028 -22.760 -16.799  0.00  0.00    +0.000 C 
ATOM     32  C   UNL     1      28.140 -23.723 -16.324  0.00  0.00    +0.001 C 
ATOM     33  H   UNL     1      30.108 -26.110 -13.471  0.00  0.00    +0.152 HD
ENDBRANCH  23  25
ENDBRANCH   1  23
TORSDOF 10
ENDMDL
MODEL 6
REMARK VINA RESULT:      -9.3     10.317     15.088
REMARK  Name = 132519
REMARK  10 active torsions:
REMARK  status: ('A' for Active; 'I' for Inactive)
REMARK    1  A    between atoms: C_1  and  C_4
REMARK    2  A    between atoms: C_1  and  N_8
REMARK    3  A    between atoms: C_1  and  C_23
REMARK    4  A    between atoms: C_9  and  C_11
REMARK    5  A    between atoms: C_11  and  C_12
REMARK    6  A    between atoms: C_11  and  C_16
REMARK    7  A    between atoms: C_12  and  C_13
REMARK    8  A    between atoms: C_16  and  C_19
REMARK    9  A    between atoms: N_18  and  O_21
REMARK   10  A    between atoms: C_23  and  C_25
REMARK                            x       y       z     vdW  Elec       q    Type
REMARK                         _______ _______ _______ _____ _____    ______ ____
ROOT
ATOM      1  C   UNL     1      33.803 -11.869 -24.044  0.00  0.00    +0.153 C 
ENDROOT
BRANCH   1   4
ATOM      2  O   UNL     1      34.791 -11.241 -26.166  0.00  0.00    -0.273 OA
ATOM      3  N   UNL     1      33.276 -13.000 -26.113  0.00  0.00    -0.301 N 
ATOM      4  C   UNL     1      34.016 -11.970 -25.550  0.00  0.00    +0.241 C 
ATOM      5  C   UNL     1      33.331 -13.340 -27.516  0.00  0.00    +0.111 C 
ATOM      6  H   UNL     1      32.683 -13.525 -25.527  0.00  0.00    +0.150 HD
ENDBRANCH   1   4
BRANCH   1   8
ATOM      7  O   UNL     1      35.210  -9.381 -23.788  0.00  0.00    -0.275 OA
ATOM      8  N   UNL     1      33.223 -10.574 -23.772  0.00  0.00    -0.298 N 
ATOM      9  C   UNL     1      33.987  -9.425 -23.666  0.00  0.00    +0.223 C 
ATOM     10  H   UNL     1      32.247 -10.507 -23.658  0.00  0.00    +0.150 HD
BRANCH   9  11
ATOM     11  C   UNL     1      33.177  -8.160 -23.378  0.00  0.00    +0.086 C 
BRANCH  11  12
ATOM     12  C   UNL     1      33.626  -6.968 -24.245  0.00  0.00    +0.010 C 
BRANCH  12  13
ATOM     13  C   UNL     1      32.564  -5.865 -24.443  0.00  0.00    +0.000 C 
ATOM     14  C   UNL     1      31.137  -6.413 -24.407  0.00  0.00    +0.000 C 
ATOM     15  C   UNL     1      32.808  -5.149 -25.774  0.00  0.00    +0.000 C 
ENDBRANCH  12  13
ENDBRANCH  11  12
BRANCH  11  16
ATOM     16  C   UNL     1      33.252  -7.816 -21.880  0.00  0.00    +0.096 C 
BRANCH  16  19
ATOM     17  O   UNL     1      31.462  -9.381 -21.550  0.00  0.00    -0.273 OA
ATOM     18  N   UNL     1      32.717  -8.734 -19.719  0.00  0.00    -0.197 N 
ATOM     19  C   UNL     1      32.379  -8.733 -21.049  0.00  0.00    +0.245 C 
ATOM     20  H   UNL     1      33.463  -8.195 -19.369  0.00  0.00    +0.182 HD
BRANCH  18  21
ATOM     21  O   UNL     1      31.936  -9.550 -18.891  0.00  0.00    -0.295 OA
ATOM     22  H   UNL     1      30.996  -9.379 -19.062  0.00  0.00    +0.241 HD
ENDBRANCH  18  21
ENDBRANCH  16  19
ENDBRANCH  11  16
ENDBRANCH   9  11
ENDBRANCH   1   8
BRANCH   1  23
ATOM     23  C   UNL     1      32.907 -13.013 -23.550  0.00  0.00    +0.057 C 
BRANCH  23  25
ATOM     24  N   UNL     1      34.752 -15.273 -21.355  0.00  0.00    -0.312 N 
ATOM     25  C   UNL     1      33.675 -14.115 -22.879  0.00  0.00    -0.004 C 
ATOM     26  C   UNL     1      34.077 -15.324 -23.481  0.00  0.00    +0.011 C 
ATOM     27  C   UNL     1      34.758 -16.043 -22.497  0.00  0.00    +0.048 C 
ATOM     28  C   UNL     1      34.092 -14.096 -21.583  0.00  0.00    +0.058 C 
ATOM     29  C   UNL     1      33.937 -15.892 -24.762  0.00  0.00    +0.001 C 
ATOM     30  C   UNL     1      35.309 -17.308 -22.731  0.00  0.00    +0.015 C 
ATOM     31  C   UNL     1      34.483 -17.157 -25.011  0.00  0.00    +0.000 C 
ATOM     32  C   UNL     1      35.158 -17.852 -24.010  0.00  0.00    +0.001 C 
ATOM     33  H   UNL     1      35.164 -15.532 -20.499  0.00  0.00    +0.152 HD
ENDBRANCH  23  25
ENDBRANCH   1  23
TORSDOF 10
ENDMDL
MODEL 7
REMARK VINA RESULT:      -8.9      2.121      6.787
REMARK  Name = 132519
REMARK  10 active torsions:
REMARK  status: ('A' for Active; 'I' for Inactive)
REMARK    1  A    between atoms: C_1  and  C_4
REMARK    2  A    between atoms: C_1  and  N_8
REMARK    3  A    between atoms: C_1  and  C_23
REMARK    4  A    between atoms: C_9  and  C_11
REMARK    5  A    between atoms: C_11  and  C_12
REMARK    6  A    between atoms: C_11  and  C_16
REMARK    7  A    between atoms: C_12  and  C_13
REMARK    8  A    between atoms: C_16  and  C_19
REMARK    9  A    between atoms: N_18  and  O_21
REMARK   10  A    between atoms: C_23  and  C_25
REMARK                            x       y       z     vdW  Elec       q    Type
REMARK                         _______ _______ _______ _____ _____    ______ ____
ROOT
ATOM      1  C   UNL     1      33.089 -23.777 -16.103  0.00  0.00    +0.153 C 
ENDROOT
BRANCH   1   4
ATOM      2  O   UNL     1      31.066 -22.682 -16.864  0.00  0.00    -0.273 OA
ATOM      3  N   UNL     1      30.907 -24.303 -15.208  0.00  0.00    -0.301 N 
ATOM      4  C   UNL     1      31.590 -23.498 -16.109  0.00  0.00    +0.241 C 
ATOM      5  C   UNL     1      29.472 -24.272 -15.050  0.00  0.00    +0.111 C 
ATOM      6  H   UNL     1      31.427 -24.925 -14.649  0.00  0.00    +0.150 HD
ENDBRANCH   1   4
BRANCH   1   8
ATOM      7  O   UNL     1      33.827 -23.944 -18.871  0.00  0.00    -0.275 OA
ATOM      8  N   UNL     1      33.727 -22.746 -16.889  0.00  0.00    -0.298 N 
ATOM      9  C   UNL     1      34.045 -22.921 -18.225  0.00  0.00    +0.223 C 
ATOM     10  H   UNL     1      33.943 -21.887 -16.458  0.00  0.00    +0.150 HD
BRANCH   9  11
ATOM     11  C   UNL     1      34.712 -21.707 -18.872  0.00  0.00    +0.086 C 
BRANCH  11  12
ATOM     12  C   UNL     1      34.113 -21.378 -20.254  0.00  0.00    +0.010 C 
BRANCH  12  13
ATOM     13  C   UNL     1      33.985 -19.873 -20.571  0.00  0.00    +0.000 C 
ATOM     14  C   UNL     1      32.529 -19.423 -20.702  0.00  0.00    +0.000 C 
ATOM     15  C   UNL     1      34.740 -19.553 -21.865  0.00  0.00    +0.000 C 
ENDBRANCH  12  13
ENDBRANCH  11  12
BRANCH  11  16
ATOM     16  C   UNL     1      36.232 -21.926 -18.964  0.00  0.00    +0.096 C 
BRANCH  16  19
ATOM     17  O   UNL     1      37.267 -20.350 -17.479  0.00  0.00    -0.273 OA
ATOM     18  N   UNL     1      37.164 -22.570 -16.840  0.00  0.00    -0.197 N 
ATOM     19  C   UNL     1      36.937 -21.516 -17.687  0.00  0.00    +0.245 C 
ATOM     20  H   UNL     1      36.878 -23.487 -17.057  0.00  0.00    +0.182 HD
BRANCH  18  21
ATOM     21  O   UNL     1      37.830 -22.261 -15.646  0.00  0.00    -0.295 OA
ATOM     22  H   UNL     1      38.655 -21.793 -15.848  0.00  0.00    +0.241 HD
ENDBRANCH  18  21
ENDBRANCH  16  19
ENDBRANCH  11  16
ENDBRANCH   9  11
ENDBRANCH   1   8
BRANCH   1  23
ATOM     23  C   UNL     1      33.623 -23.813 -14.664  0.00  0.00    +0.057 C 
BRANCH  23  25
ATOM     24  N   UNL     1      36.665 -25.811 -14.944  0.00  0.00    -0.312 N 
ATOM     25  C   UNL     1      34.960 -24.484 -14.548  0.00  0.00    -0.004 C 
ATOM     26  C   UNL     1      35.938 -24.209 -13.572  0.00  0.00    +0.011 C 
ATOM     27  C   UNL     1      37.011 -25.061 -13.842  0.00  0.00    +0.048 C 
ATOM     28  C   UNL     1      35.415 -25.462 -15.379  0.00  0.00    +0.058 C 
ATOM     29  C   UNL     1      36.033 -23.324 -12.480  0.00  0.00    +0.001 C 
ATOM     30  C   UNL     1      38.179 -25.072 -13.071  0.00  0.00    +0.015 C 
ATOM     31  C   UNL     1      37.195 -23.324 -11.700  0.00  0.00    +0.000 C 
ATOM     32  C   UNL     1      38.251 -24.185 -11.993  0.00  0.00    +0.001 C 
ATOM     33  H   UNL     1      37.235 -26.498 -15.359  0.00  0.00    +0.152 HD
ENDBRANCH  23  25
ENDBRANCH   1  23
TORSDOF 10
ENDMDL
MODEL 8
REMARK VINA RESULT:      -8.9      2.093      2.752
REMARK  Name = 132519
REMARK  10 active torsions:
REMARK  status: ('A' for Active; 'I' for Inactive)
REMARK    1  A    between atoms: C_1  and  C_4
REMARK    2  A    between atoms: C_1  and  N_8
REMARK    3  A    between atoms: C_1  and  C_23
REMARK    4  A    between atoms: C_9  and  C_11
REMARK    5  A    between atoms: C_11  and  C_12
REMARK    6  A    between atoms: C_11  and  C_16
REMARK    7  A    between atoms: C_12  and  C_13
REMARK    8  A    between atoms: C_16  and  C_19
REMARK    9  A    between atoms: N_18  and  O_21
REMARK   10  A    between atoms: C_23  and  C_25
REMARK                            x       y       z     vdW  Elec       q    Type
REMARK                         _______ _______ _______ _____ _____    ______ ____
ROOT
ATOM      1  C   UNL     1      34.182 -22.931 -16.287  0.00  0.00    +0.153 C 
ENDROOT
BRANCH   1   4
ATOM      2  O   UNL     1      32.590 -23.280 -14.494  0.00  0.00    -0.273 OA
ATOM      3  N   UNL     1      31.799 -23.054 -16.666  0.00  0.00    -0.301 N 
ATOM      4  C   UNL     1      32.790 -23.125 -15.697  0.00  0.00    +0.241 C 
ATOM      5  C   UNL     1      30.390 -23.159 -16.366  0.00  0.00    +0.111 C 
ATOM      6  H   UNL     1      32.070 -22.927 -17.604  0.00  0.00    +0.150 HD
ENDBRANCH   1   4
BRANCH   1   8
ATOM      7  O   UNL     1      36.801 -22.299 -15.297  0.00  0.00    -0.275 OA
ATOM      8  N   UNL     1      35.079 -23.824 -15.589  0.00  0.00    -0.298 N 
ATOM      9  C   UNL     1      36.329 -23.426 -15.148  0.00  0.00    +0.223 C 
ATOM     10  H   UNL     1      34.789 -24.750 -15.422  0.00  0.00    +0.150 HD
BRANCH   9  11
ATOM     11  C   UNL     1      37.117 -24.522 -14.430  0.00  0.00    +0.086 C 
BRANCH  11  12
ATOM     12  C   UNL     1      38.478 -24.797 -15.098  0.00  0.00    +0.010 C 
BRANCH  12  13
ATOM     13  C   UNL     1      39.673 -24.909 -14.127  0.00  0.00    +0.000 C 
ATOM     14  C   UNL     1      40.594 -26.083 -14.463  0.00  0.00    +0.000 C 
ATOM     15  C   UNL     1      39.158 -25.053 -12.692  0.00  0.00    +0.000 C 
ENDBRANCH  12  13
ENDBRANCH  11  12
BRANCH  11  16
ATOM     16  C   UNL     1      36.273 -25.806 -14.341  0.00  0.00    +0.096 C 
BRANCH  16  19
ATOM     17  O   UNL     1      37.747 -27.654 -14.758  0.00  0.00    -0.273 OA
ATOM     18  N   UNL     1      36.302 -26.991 -16.437  0.00  0.00    -0.197 N 
ATOM     19  C   UNL     1      36.857 -26.921 -15.184  0.00  0.00    +0.245 C 
ATOM     20  H   UNL     1      35.590 -26.377 -16.728  0.00  0.00    +0.182 HD
BRANCH  18  21
ATOM     21  O   UNL     1      36.812 -27.992 -17.275  0.00  0.00    -0.295 OA
ATOM     22  H   UNL     1      37.682 -28.273 -16.950  0.00  0.00    +0.241 HD
ENDBRANCH  18  21
ENDBRANCH  16  19
ENDBRANCH  11  16
ENDBRANCH   9  11
ENDBRANCH   1   8
BRANCH   1  23
ATOM     23  C   UNL     1      34.167 -23.200 -17.798  0.00  0.00    +0.057 C 
BRANCH  23  25
ATOM     24  N   UNL     1      36.508 -20.892 -19.385  0.00  0.00    -0.312 N 
ATOM     25  C   UNL     1      34.896 -22.154 -18.590  0.00  0.00    -0.004 C 
ATOM     26  C   UNL     1      34.314 -21.271 -19.521  0.00  0.00    +0.011 C 
ATOM     27  C   UNL     1      35.353 -20.480 -20.013  0.00  0.00    +0.048 C 
ATOM     28  C   UNL     1      36.234 -21.913 -18.516  0.00  0.00    +0.058 C 
ATOM     29  C   UNL     1      33.008 -21.053 -20.004  0.00  0.00    +0.001 C 
ATOM     30  C   UNL     1      35.152 -19.477 -20.968  0.00  0.00    +0.015 C 
ATOM     31  C   UNL     1      32.792 -20.054 -20.960  0.00  0.00    +0.000 C 
ATOM     32  C   UNL     1      33.849 -19.280 -21.434  0.00  0.00    +0.001 C 
ATOM     33  H   UNL     1      37.401 -20.506 -19.539  0.00  0.00    +0.152 HD
ENDBRANCH  23  25
ENDBRANCH   1  23
TORSDOF 10
ENDMDL
MODEL 9
REMARK VINA RESULT:      -8.8     10.323     14.713
REMARK  Name = 132519
REMARK  10 active torsions:
REMARK  status: ('A' for Active; 'I' for Inactive)
REMARK    1  A    between atoms: C_1  and  C_4
REMARK    2  A    between atoms: C_1  and  N_8
REMARK    3  A    between atoms: C_1  and  C_23
REMARK    4  A    between atoms: C_9  and  C_11
REMARK    5  A    between atoms: C_11  and  C_12
REMARK    6  A    between atoms: C_11  and  C_16
REMARK    7  A    between atoms: C_12  and  C_13
REMARK    8  A    between atoms: C_16  and  C_19
REMARK    9  A    between atoms: N_18  and  O_21
REMARK   10  A    between atoms: C_23  and  C_25
REMARK                            x       y       z     vdW  Elec       q    Type
REMARK                         _______ _______ _______ _____ _____    ______ ____
ROOT
ATOM      1  C   UNL     1      33.782 -12.321 -24.025  0.00  0.00    +0.153 C 
ENDROOT
BRANCH   1   4
ATOM      2  O   UNL     1      33.350 -11.871 -26.367  0.00  0.00    -0.273 OA
ATOM      3  N   UNL     1      35.241 -10.952 -25.380  0.00  0.00    -0.301 N 
ATOM      4  C   UNL     1      34.084 -11.719 -25.393  0.00  0.00    +0.241 C 
ATOM      5  C   UNL     1      35.726 -10.233 -26.536  0.00  0.00    +0.111 C 
ATOM      6  H   UNL     1      35.756 -10.897 -24.544  0.00  0.00    +0.150 HD
ENDBRANCH   1   4
BRANCH   1   8
ATOM      7  O   UNL     1      34.185  -9.589 -23.246  0.00  0.00    -0.275 OA
ATOM      8  N   UNL     1      32.823 -11.460 -23.373  0.00  0.00    -0.298 N 
ATOM      9  C   UNL     1      33.111 -10.149 -23.034  0.00  0.00    +0.223 C 
ATOM     10  H   UNL     1      31.931 -11.820 -23.161  0.00  0.00    +0.150 HD
BRANCH   9  11
ATOM     11  C   UNL     1      31.957  -9.412 -22.354  0.00  0.00    +0.086 C 
BRANCH  11  12
ATOM     12  C   UNL     1      30.892 -10.377 -21.797  0.00  0.00    +0.010 C 
BRANCH  12  13
ATOM     13  C   UNL     1      31.024 -10.699 -20.293  0.00  0.00    +0.000 C 
ATOM     14  C   UNL     1      31.792  -9.621 -19.528  0.00  0.00    +0.000 C 
ATOM     15  C   UNL     1      31.721 -12.051 -20.116  0.00  0.00    +0.000 C 
ENDBRANCH  12  13
ENDBRANCH  11  12
BRANCH  11  16
ATOM     16  C   UNL     1      31.331  -8.399 -23.329  0.00  0.00    +0.096 C 
BRANCH  16  19
ATOM     17  O   UNL     1      32.863  -6.552 -23.264  0.00  0.00    -0.273 OA
ATOM     18  N   UNL     1      30.745  -6.264 -22.382  0.00  0.00    -0.197 N 
ATOM     19  C   UNL     1      31.740  -6.977 -23.001  0.00  0.00    +0.245 C 
ATOM     20  H   UNL     1      29.861  -6.654 -22.193  0.00  0.00    +0.182 HD
BRANCH  18  21
ATOM     21  O   UNL     1      31.066  -4.945 -22.035  0.00  0.00    -0.295 OA
ATOM     22  H   UNL     1      31.451  -4.930 -21.145  0.00  0.00    +0.241 HD
ENDBRANCH  18  21
ENDBRANCH  16  19
ENDBRANCH  11  16
ENDBRANCH   9  11
ENDBRANCH   1   8
BRANCH   1  23
ATOM     23  C   UNL     1      33.257 -13.755 -24.175  0.00  0.00    +0.057 C 
BRANCH  23  25
ATOM     24  N   UNL     1      34.803 -15.596 -21.427  0.00  0.00    -0.312 N 
ATOM     25  C   UNL     1      33.917 -14.725 -23.239  0.00  0.00    -0.004 C 
ATOM     26  C   UNL     1      34.332 -16.032 -23.564  0.00  0.00    +0.011 C 
ATOM     27  C   UNL     1      34.890 -16.566 -22.401  0.00  0.00    +0.048 C 
ATOM     28  C   UNL     1      34.209 -14.471 -21.933  0.00  0.00    +0.058 C 
ATOM     29  C   UNL     1      34.295 -16.827 -24.726  0.00  0.00    +0.001 C 
ATOM     30  C   UNL     1      35.416 -17.862 -22.342  0.00  0.00    +0.015 C 
ATOM     31  C   UNL     1      34.817 -18.125 -24.682  0.00  0.00    +0.000 C 
ATOM     32  C   UNL     1      35.367 -18.633 -23.507  0.00  0.00    +0.001 C 
ATOM     33  H   UNL     1      35.121 -15.698 -20.501  0.00  0.00    +0.152 HD
ENDBRANCH  23  25
ENDBRANCH   1  23
TORSDOF 10
ENDMDL
