MODEL 1
REMARK VINA RESULT:     -10.7      0.000      0.000
REMARK  Name = 25195347
REMARK  7 active torsions:
REMARK  status: ('A' for Active; 'I' for Inactive)
REMARK    1  A    between atoms: N_1  and  C1*_13
REMARK    2  A    between atoms: N_3  and  C_27
REMARK    3  A    between atoms: C2*_14  and  O2*_17
REMARK    4  A    between atoms: C3*_15  and  O3*_19
REMARK    5  A    between atoms: C4*_16  and  C5*_21
REMARK    6  A    between atoms: C5*_21  and  O5*_22
REMARK    7  A    between atoms: C_27  and  C_30
REMARK                            x       y       z     vdW  Elec       q    Type
REMARK                         _______ _______ _______ _____ _____    ______ ____
ROOT
ATOM      1  N   UNL     1      33.409 -23.176 -15.842  0.00  0.00    -0.208 N 
ATOM      2  N   UNL     1      31.947 -23.085 -17.522  0.00  0.00    -0.367 NA
ATOM      3  N   UNL     1      34.300 -23.118 -18.017  0.00  0.00    -0.292 N 
ATOM      4  N   UNL     1      31.877 -23.206 -13.957  0.00  0.00    -0.227 NA
ATOM      5  N   UNL     1      29.554 -23.130 -14.702  0.00  0.00    -0.227 NA
ATOM      6  C   UNL     1      33.222 -23.125 -17.198  0.00  0.00    +0.245 C 
ATOM      7  C   UNL     1      32.171 -23.168 -15.266  0.00  0.00    +0.170 C 
ATOM      8  C   UNL     1      31.279 -23.113 -16.324  0.00  0.00    +0.196 C 
ATOM      9  C   UNL     1      29.924 -23.094 -16.005  0.00  0.00    +0.155 C 
ATOM     10  C   UNL     1      30.538 -23.183 -13.773  0.00  0.00    +0.253 C 
ATOM     11  H   UNL     1      35.191 -23.153 -17.600  0.00  0.00    +0.151 HD
ATOM     12  N   UNL     1      28.949 -23.035 -17.016  0.00  0.00    -0.341 N 
ATOM     13  H   UNL     1      27.994 -23.023 -16.779  0.00  0.00    +0.144 HD
ATOM     14  H   UNL     1      29.222 -23.007 -17.961  0.00  0.00    +0.144 HD
ENDROOT
BRANCH   1  16
ATOM     15  O4* UNL     1      35.509 -22.038 -15.335  0.00  0.00    -0.333 OA
ATOM     16  C1* UNL     1      34.725 -23.227 -15.104  0.00  0.00    +0.230 C 
ATOM     17  C2* UNL     1      35.606 -24.394 -15.539  0.00  0.00    +0.187 C 
ATOM     18  C3* UNL     1      36.992 -23.889 -15.192  0.00  0.00    +0.171 C 
ATOM     19  C4* UNL     1      36.891 -22.409 -15.538  0.00  0.00    +0.175 C 
BRANCH  17  20
ATOM     20  O2* UNL     1      35.280 -25.606 -14.887  0.00  0.00    -0.378 OA
ATOM     21  H2* UNL     1      35.304 -25.472 -13.926  0.00  0.00    +0.211 HD
ENDBRANCH  17  20
BRANCH  18  22
ATOM     22  O3* UNL     1      37.224 -23.998 -13.788  0.00  0.00    -0.379 OA
ATOM     23  H3* UNL     1      37.497 -24.905 -13.575  0.00  0.00    +0.211 HD
ENDBRANCH  18  22
BRANCH  19  24
ATOM     24  C5* UNL     1      37.258 -22.108 -16.984  0.00  0.00    +0.169 C 
BRANCH  24  25
ATOM     25  O5* UNL     1      37.265 -20.703 -17.167  0.00  0.00    -0.379 OA
ATOM     26  H5* UNL     1      36.469 -20.435 -17.653  0.00  0.00    +0.211 HD
ENDBRANCH  24  25
ENDBRANCH  19  24
ENDBRANCH   1  16
BRANCH   3  27
ATOM     27  C   UNL     1      34.237 -23.066 -19.476  0.00  0.00    +0.117 C 
BRANCH  27  30
ATOM     28 CL   UNL     1      37.264 -19.127 -20.960  0.00  0.00    -0.081 Cl
ATOM     29 CL   UNL     1      34.581 -17.373 -21.406  0.00  0.00    -0.081 Cl
ATOM     30  C   UNL     1      34.340 -21.645 -19.958  0.00  0.00    -0.002 C 
ATOM     31  C   UNL     1      35.590 -21.084 -20.214  0.00  0.00    +0.010 C 
ATOM     32  C   UNL     1      33.184 -20.888 -20.149  0.00  0.00    -0.002 C 
ATOM     33  C   UNL     1      35.685 -19.766 -20.662  0.00  0.00    +0.068 C 
ATOM     34  C   UNL     1      33.278 -19.571 -20.597  0.00  0.00    +0.012 C 
ATOM     35  C   UNL     1      34.529 -19.010 -20.852  0.00  0.00    +0.068 C 
ENDBRANCH  27  30
ENDBRANCH   3  27
TORSDOF 7
ENDMDL
MODEL 2
REMARK VINA RESULT:     -10.7      1.309      2.537
REMARK  Name = 25195347
REMARK  7 active torsions:
REMARK  status: ('A' for Active; 'I' for Inactive)
REMARK    1  A    between atoms: N_1  and  C1*_13
REMARK    2  A    between atoms: N_3  and  C_27
REMARK    3  A    between atoms: C2*_14  and  O2*_17
REMARK    4  A    between atoms: C3*_15  and  O3*_19
REMARK    5  A    between atoms: C4*_16  and  C5*_21
REMARK    6  A    between atoms: C5*_21  and  O5*_22
REMARK    7  A    between atoms: C_27  and  C_30
REMARK                            x       y       z     vdW  Elec       q    Type
REMARK                         _______ _______ _______ _____ _____    ______ ____
ROOT
ATOM      1  N   UNL     1      33.346 -23.685 -15.953  0.00  0.00    -0.208 N 
ATOM      2  N   UNL     1      31.477 -22.931 -16.906  0.00  0.00    -0.367 NA
ATOM      3  N   UNL     1      33.582 -22.576 -18.012  0.00  0.00    -0.292 N 
ATOM      4  N   UNL     1      32.415 -24.680 -13.942  0.00  0.00    -0.227 NA
ATOM      5  N   UNL     1      29.989 -24.424 -13.867  0.00  0.00    -0.227 NA
ATOM      6  C   UNL     1      32.785 -23.030 -17.017  0.00  0.00    +0.245 C 
ATOM      7  C   UNL     1      32.327 -24.025 -15.109  0.00  0.00    +0.170 C 
ATOM      8  C   UNL     1      31.177 -23.550 -15.718  0.00  0.00    +0.196 C 
ATOM      9  C   UNL     1      29.975 -23.770 -15.053  0.00  0.00    +0.155 C 
ATOM     10  C   UNL     1      31.190 -24.833 -13.392  0.00  0.00    +0.253 C 
ATOM     11  H   UNL     1      34.550 -22.739 -17.933  0.00  0.00    +0.151 HD
ATOM     12  N   UNL     1      28.760 -23.318 -15.596  0.00  0.00    -0.341 N 
ATOM     13  H   UNL     1      27.915 -23.479 -15.117  0.00  0.00    +0.144 HD
ATOM     14  H   UNL     1      28.754 -22.840 -16.457  0.00  0.00    +0.144 HD
ENDROOT
BRANCH   1  16
ATOM     15  O4* UNL     1      35.003 -24.926 -14.658  0.00  0.00    -0.333 OA
ATOM     16  C1* UNL     1      34.809 -23.983 -15.733  0.00  0.00    +0.230 C 
ATOM     17  C2* UNL     1      35.617 -22.747 -15.349  0.00  0.00    +0.187 C 
ATOM     18  C3* UNL     1      36.784 -23.354 -14.597  0.00  0.00    +0.171 C 
ATOM     19  C4* UNL     1      36.121 -24.501 -13.846  0.00  0.00    +0.175 C 
BRANCH  17  20
ATOM     20  O2* UNL     1      36.019 -21.980 -16.468  0.00  0.00    -0.378 OA
ATOM     21  H2* UNL     1      35.289 -21.932 -17.105  0.00  0.00    +0.211 HD
ENDBRANCH  17  20
BRANCH  18  22
ATOM     22  O3* UNL     1      37.727 -23.913 -15.510  0.00  0.00    -0.379 OA
ATOM     23  H3* UNL     1      38.077 -24.742 -15.147  0.00  0.00    +0.211 HD
ENDBRANCH  18  22
BRANCH  19  24
ATOM     24  C5* UNL     1      35.589 -24.092 -12.480  0.00  0.00    +0.169 C 
BRANCH  24  25
ATOM     25  O5* UNL     1      34.574 -25.004 -12.097  0.00  0.00    -0.379 OA
ATOM     26  H5* UNL     1      34.881 -25.533 -11.344  0.00  0.00    +0.211 HD
ENDBRANCH  24  25
ENDBRANCH  19  24
ENDBRANCH   1  16
BRANCH   3  27
ATOM     27  C   UNL     1      33.110 -21.864 -19.198  0.00  0.00    +0.117 C 
BRANCH  27  30
ATOM     28 CL   UNL     1      34.575 -17.943 -22.258  0.00  0.00    -0.081 Cl
ATOM     29 CL   UNL     1      37.647 -18.773 -21.672  0.00  0.00    -0.081 Cl
ATOM     30  C   UNL     1      34.232 -21.082 -19.825  0.00  0.00    -0.002 C 
ATOM     31  C   UNL     1      33.949 -19.999 -20.656  0.00  0.00    +0.010 C 
ATOM     32  C   UNL     1      35.557 -21.440 -19.573  0.00  0.00    -0.002 C 
ATOM     33  C   UNL     1      34.990 -19.274 -21.236  0.00  0.00    +0.068 C 
ATOM     34  C   UNL     1      36.598 -20.715 -20.153  0.00  0.00    +0.012 C 
ATOM     35  C   UNL     1      36.314 -19.632 -20.984  0.00  0.00    +0.068 C 
ENDBRANCH  27  30
ENDBRANCH   3  27
TORSDOF 7
ENDMDL
MODEL 3
REMARK VINA RESULT:     -10.2      2.780      5.014
REMARK  Name = 25195347
REMARK  7 active torsions:
REMARK  status: ('A' for Active; 'I' for Inactive)
REMARK    1  A    between atoms: N_1  and  C1*_13
REMARK    2  A    between atoms: N_3  and  C_27
REMARK    3  A    between atoms: C2*_14  and  O2*_17
REMARK    4  A    between atoms: C3*_15  and  O3*_19
REMARK    5  A    between atoms: C4*_16  and  C5*_21
REMARK    6  A    between atoms: C5*_21  and  O5*_22
REMARK    7  A    between atoms: C_27  and  C_30
REMARK                            x       y       z     vdW  Elec       q    Type
REMARK                         _______ _______ _______ _____ _____    ______ ____
ROOT
ATOM      1  N   UNL     1      34.683 -23.155 -15.163  0.00  0.00    -0.208 N 
ATOM      2  N   UNL     1      36.896 -23.290 -15.393  0.00  0.00    -0.367 NA
ATOM      3  N   UNL     1      35.593 -22.303 -17.157  0.00  0.00    -0.292 N 
ATOM      4  N   UNL     1      34.429 -24.176 -12.974  0.00  0.00    -0.227 NA
ATOM      5  N   UNL     1      36.587 -24.853 -12.056  0.00  0.00    -0.227 NA
ATOM      6  C   UNL     1      35.771 -22.897 -15.954  0.00  0.00    +0.245 C 
ATOM      7  C   UNL     1      35.146 -23.751 -14.025  0.00  0.00    +0.170 C 
ATOM      8  C   UNL     1      36.520 -23.825 -14.187  0.00  0.00    +0.196 C 
ATOM      9  C   UNL     1      37.246 -24.402 -13.149  0.00  0.00    +0.155 C 
ATOM     10  C   UNL     1      35.239 -24.714 -12.036  0.00  0.00    +0.253 C 
ATOM     11  H   UNL     1      34.672 -22.075 -17.422  0.00  0.00    +0.151 HD
ATOM     12  N   UNL     1      38.644 -24.520 -13.231  0.00  0.00    -0.341 N 
ATOM     13  H   UNL     1      39.148 -24.930 -12.491  0.00  0.00    +0.144 HD
ATOM     14  H   UNL     1      39.120 -24.193 -14.028  0.00  0.00    +0.144 HD
ENDROOT
BRANCH   1  16
ATOM     15  O4* UNL     1      32.412 -22.939 -14.293  0.00  0.00    -0.333 OA
ATOM     16  C1* UNL     1      33.237 -22.850 -15.474  0.00  0.00    +0.230 C 
ATOM     17  C2* UNL     1      32.627 -23.820 -16.479  0.00  0.00    +0.187 C 
ATOM     18  C3* UNL     1      31.151 -23.736 -16.144  0.00  0.00    +0.171 C 
ATOM     19  C4* UNL     1      31.174 -23.607 -14.626  0.00  0.00    +0.175 C 
BRANCH  17  20
ATOM     20  O2* UNL     1      32.909 -23.474 -17.822  0.00  0.00    -0.378 OA
ATOM     21  H2* UNL     1      32.398 -24.045 -18.417  0.00  0.00    +0.211 HD
ENDBRANCH  17  20
BRANCH  18  22
ATOM     22  O3* UNL     1      30.588 -22.538 -16.678  0.00  0.00    -0.379 OA
ATOM     23  H3* UNL     1      29.877 -22.765 -17.299  0.00  0.00    +0.211 HD
ENDBRANCH  18  22
BRANCH  19  24
ATOM     24  C5* UNL     1      31.152 -24.952 -13.913  0.00  0.00    +0.169 C 
BRANCH  24  25
ATOM     25  O5* UNL     1      30.423 -24.814 -12.707  0.00  0.00    -0.379 OA
ATOM     26  H5* UNL     1      31.021 -24.532 -11.997  0.00  0.00    +0.211 HD
ENDBRANCH  24  25
ENDBRANCH  19  24
ENDBRANCH   1  16
BRANCH   3  27
ATOM     27  C   UNL     1      36.667 -21.975 -18.092  0.00  0.00    +0.117 C 
BRANCH  27  30
ATOM     28 CL   UNL     1      32.646 -20.304 -20.906  0.00  0.00    -0.081 Cl
ATOM     29 CL   UNL     1      34.693 -18.346 -22.472  0.00  0.00    -0.081 Cl
ATOM     30  C   UNL     1      36.159 -21.076 -19.184  0.00  0.00    -0.002 C 
ATOM     31  C   UNL     1      34.805 -21.083 -19.521  0.00  0.00    +0.010 C 
ATOM     32  C   UNL     1      37.040 -20.232 -19.860  0.00  0.00    -0.002 C 
ATOM     33  C   UNL     1      34.334 -20.248 -20.534  0.00  0.00    +0.068 C 
ATOM     34  C   UNL     1      36.569 -19.397 -20.873  0.00  0.00    +0.012 C 
ATOM     35  C   UNL     1      35.216 -19.405 -21.210  0.00  0.00    +0.068 C 
ENDBRANCH  27  30
ENDBRANCH   3  27
TORSDOF 7
ENDMDL
MODEL 4
REMARK VINA RESULT:     -10.1      2.428      4.717
REMARK  Name = 25195347
REMARK  7 active torsions:
REMARK  status: ('A' for Active; 'I' for Inactive)
REMARK    1  A    between atoms: N_1  and  C1*_13
REMARK    2  A    between atoms: N_3  and  C_27
REMARK    3  A    between atoms: C2*_14  and  O2*_17
REMARK    4  A    between atoms: C3*_15  and  O3*_19
REMARK    5  A    between atoms: C4*_16  and  C5*_21
REMARK    6  A    between atoms: C5*_21  and  O5*_22
REMARK    7  A    between atoms: C_27  and  C_30
REMARK                            x       y       z     vdW  Elec       q    Type
REMARK                         _______ _______ _______ _____ _____    ______ ____
ROOT
ATOM      1  N   UNL     1      33.644 -23.166 -15.430  0.00  0.00    -0.208 N 
ATOM      2  N   UNL     1      35.493 -23.696 -16.557  0.00  0.00    -0.367 NA
ATOM      3  N   UNL     1      33.575 -22.889 -17.764  0.00  0.00    -0.292 N 
ATOM      4  N   UNL     1      34.375 -23.670 -13.170  0.00  0.00    -0.227 NA
ATOM      5  N   UNL     1      36.675 -24.486 -13.143  0.00  0.00    -0.227 NA
ATOM      6  C   UNL     1      34.258 -23.249 -16.652  0.00  0.00    +0.245 C 
ATOM      7  C   UNL     1      34.547 -23.587 -14.497  0.00  0.00    +0.170 C 
ATOM      8  C   UNL     1      35.687 -23.910 -15.216  0.00  0.00    +0.196 C 
ATOM      9  C   UNL     1      36.779 -24.375 -14.489  0.00  0.00    +0.155 C 
ATOM     10  C   UNL     1      35.497 -24.132 -12.575  0.00  0.00    +0.253 C 
ATOM     11  H   UNL     1      32.649 -22.574 -17.651  0.00  0.00    +0.151 HD
ATOM     12  N   UNL     1      37.975 -24.730 -15.138  0.00  0.00    -0.341 N 
ATOM     13  H   UNL     1      38.741 -25.057 -14.614  0.00  0.00    +0.144 HD
ATOM     14  H   UNL     1      38.046 -24.650 -16.117  0.00  0.00    +0.144 HD
ENDROOT
BRANCH   1  16
ATOM     15  O4* UNL     1      31.845 -22.990 -13.788  0.00  0.00    -0.333 OA
ATOM     16  C1* UNL     1      32.235 -22.701 -15.147  0.00  0.00    +0.230 C 
ATOM     17  C2* UNL     1      31.195 -23.384 -16.029  0.00  0.00    +0.187 C 
ATOM     18  C3* UNL     1      29.943 -23.275 -15.183  0.00  0.00    +0.171 C 
ATOM     19  C4* UNL     1      30.487 -23.483 -13.776  0.00  0.00    +0.175 C 
BRANCH  17  20
ATOM     20  O2* UNL     1      31.060 -22.773 -17.298  0.00  0.00    -0.378 OA
ATOM     21  H2* UNL     1      30.914 -21.821 -17.184  0.00  0.00    +0.211 HD
ENDBRANCH  17  20
BRANCH  18  22
ATOM     22  O3* UNL     1      29.407 -21.954 -15.257  0.00  0.00    -0.379 OA
ATOM     23  H3* UNL     1      28.965 -21.831 -16.112  0.00  0.00    +0.211 HD
ENDBRANCH  18  22
BRANCH  19  24
ATOM     24  C5* UNL     1      30.515 -24.947 -13.358  0.00  0.00    +0.169 C 
BRANCH  24  25
ATOM     25  O5* UNL     1      31.858 -25.321 -13.106  0.00  0.00    -0.379 OA
ATOM     26  H5* UNL     1      32.455 -24.738 -13.602  0.00  0.00    +0.211 HD
ENDBRANCH  24  25
ENDBRANCH  19  24
ENDBRANCH   1  16
BRANCH   3  27
ATOM     27  C   UNL     1      34.114 -22.932 -19.122  0.00  0.00    +0.117 C 
BRANCH  27  30
ATOM     28 CL   UNL     1      36.828 -18.981 -21.098  0.00  0.00    -0.081 Cl
ATOM     29 CL   UNL     1      34.027 -17.433 -21.574  0.00  0.00    -0.081 Cl
ATOM     30  C   UNL     1      34.109 -21.559 -19.735  0.00  0.00    -0.002 C 
ATOM     31  C   UNL     1      35.311 -20.953 -20.100  0.00  0.00    +0.010 C 
ATOM     32  C   UNL     1      32.902 -20.890 -19.939  0.00  0.00    -0.002 C 
ATOM     33  C   UNL     1      35.306 -19.679 -20.669  0.00  0.00    +0.068 C 
ATOM     34  C   UNL     1      32.896 -19.617 -20.508  0.00  0.00    +0.012 C 
ATOM     35  C   UNL     1      34.099 -19.012 -20.872  0.00  0.00    +0.068 C 
ENDBRANCH  27  30
ENDBRANCH   3  27
TORSDOF 7
ENDMDL
MODEL 5
REMARK VINA RESULT:      -9.0      3.728      5.990
REMARK  Name = 25195347
REMARK  7 active torsions:
REMARK  status: ('A' for Active; 'I' for Inactive)
REMARK    1  A    between atoms: N_1  and  C1*_13
REMARK    2  A    between atoms: N_3  and  C_27
REMARK    3  A    between atoms: C2*_14  and  O2*_17
REMARK    4  A    between atoms: C3*_15  and  O3*_19
REMARK    5  A    between atoms: C4*_16  and  C5*_21
REMARK    6  A    between atoms: C5*_21  and  O5*_22
REMARK    7  A    between atoms: C_27  and  C_30
REMARK                            x       y       z     vdW  Elec       q    Type
REMARK                         _______ _______ _______ _____ _____    ______ ____
ROOT
ATOM      1  N   UNL     1      35.371 -23.290 -14.884  0.00  0.00    -0.208 N 
ATOM      2  N   UNL     1      33.685 -23.876 -16.220  0.00  0.00    -0.367 NA
ATOM      3  N   UNL     1      33.661 -24.586 -13.922  0.00  0.00    -0.292 N 
ATOM      4  N   UNL     1      36.724 -22.022 -16.453  0.00  0.00    -0.227 NA
ATOM      5  N   UNL     1      35.692 -21.959 -18.664  0.00  0.00    -0.227 NA
ATOM      6  C   UNL     1      34.179 -23.954 -15.001  0.00  0.00    +0.245 C 
ATOM      7  C   UNL     1      35.654 -22.754 -16.107  0.00  0.00    +0.170 C 
ATOM      8  C   UNL     1      34.597 -23.128 -16.921  0.00  0.00    +0.196 C 
ATOM      9  C   UNL     1      34.640 -22.702 -18.245  0.00  0.00    +0.155 C 
ATOM     10  C   UNL     1      36.654 -21.669 -17.755  0.00  0.00    +0.253 C 
ATOM     11  H   UNL     1      34.169 -24.543 -13.079  0.00  0.00    +0.151 HD
ATOM     12  N   UNL     1      33.611 -23.039 -19.142  0.00  0.00    -0.341 N 
ATOM     13  H   UNL     1      33.651 -22.732 -20.076  0.00  0.00    +0.144 HD
ATOM     14  H   UNL     1      32.848 -23.581 -18.834  0.00  0.00    +0.144 HD
ENDROOT
BRANCH   1  16
ATOM     15  O4* UNL     1      37.581 -23.596 -13.893  0.00  0.00    -0.333 OA
ATOM     16  C1* UNL     1      36.227 -23.164 -13.646  0.00  0.00    +0.230 C 
ATOM     17  C2* UNL     1      35.726 -24.019 -12.487  0.00  0.00    +0.187 C 
ATOM     18  C3* UNL     1      36.991 -24.231 -11.681  0.00  0.00    +0.171 C 
ATOM     19  C4* UNL     1      38.045 -24.379 -12.770  0.00  0.00    +0.175 C 
BRANCH  17  20
ATOM     20  O2* UNL     1      34.696 -23.395 -11.745  0.00  0.00    -0.378 OA
ATOM     21  H2* UNL     1      34.186 -22.810 -12.328  0.00  0.00    +0.211 HD
ENDBRANCH  17  20
BRANCH  18  22
ATOM     22  O3* UNL     1      37.301 -23.060 -10.925  0.00  0.00    -0.379 OA
ATOM     23  H3* UNL     1      37.747 -22.415 -11.497  0.00  0.00    +0.211 HD
ENDBRANCH  18  22
BRANCH  19  24
ATOM     24  C5* UNL     1      38.225 -25.817 -13.234  0.00  0.00    +0.169 C 
BRANCH  24  25
ATOM     25  O5* UNL     1      39.598 -26.036 -13.509  0.00  0.00    -0.379 OA
ATOM     26  H5* UNL     1      40.133 -25.385 -13.028  0.00  0.00    +0.211 HD
ENDBRANCH  24  25
ENDBRANCH  19  24
ENDBRANCH   1  16
BRANCH   3  27
ATOM     27  C   UNL     1      32.402 -25.328 -13.916  0.00  0.00    +0.117 C 
BRANCH  27  30
ATOM     28 CL   UNL     1      28.250 -24.871 -16.987  0.00  0.00    -0.081 Cl
ATOM     29 CL   UNL     1      27.931 -21.831 -15.925  0.00  0.00    -0.081 Cl
ATOM     30  C   UNL     1      31.280 -24.467 -14.428  0.00  0.00    -0.002 C 
ATOM     31  C   UNL     1      30.377 -24.979 -15.359  0.00  0.00    +0.010 C 
ATOM     32  C   UNL     1      31.143 -23.156 -13.971  0.00  0.00    -0.002 C 
ATOM     33  C   UNL     1      29.336 -24.180 -15.833  0.00  0.00    +0.068 C 
ATOM     34  C   UNL     1      30.103 -22.357 -14.446  0.00  0.00    +0.012 C 
ATOM     35  C   UNL     1      29.200 -22.870 -15.377  0.00  0.00    +0.068 C 
ENDBRANCH  27  30
ENDBRANCH   3  27
TORSDOF 7
ENDMDL
MODEL 6
REMARK VINA RESULT:      -8.8      2.991      4.848
REMARK  Name = 25195347
REMARK  7 active torsions:
REMARK  status: ('A' for Active; 'I' for Inactive)
REMARK    1  A    between atoms: N_1  and  C1*_13
REMARK    2  A    between atoms: N_3  and  C_27
REMARK    3  A    between atoms: C2*_14  and  O2*_17
REMARK    4  A    between atoms: C3*_15  and  O3*_19
REMARK    5  A    between atoms: C4*_16  and  C5*_21
REMARK    6  A    between atoms: C5*_21  and  O5*_22
REMARK    7  A    between atoms: C_27  and  C_30
REMARK                            x       y       z     vdW  Elec       q    Type
REMARK                         _______ _______ _______ _____ _____    ______ ____
ROOT
ATOM      1  N   UNL     1      34.836 -24.080 -14.240  0.00  0.00    -0.208 N 
ATOM      2  N   UNL     1      36.792 -23.012 -14.182  0.00  0.00    -0.367 NA
ATOM      3  N   UNL     1      35.614 -23.188 -16.271  0.00  0.00    -0.292 N 
ATOM      4  N   UNL     1      34.643 -24.720 -11.905  0.00  0.00    -0.227 NA
ATOM      5  N   UNL     1      36.565 -23.952 -10.612  0.00  0.00    -0.227 NA
ATOM      6  C   UNL     1      35.788 -23.392 -14.944  0.00  0.00    +0.245 C 
ATOM      7  C   UNL     1      35.262 -24.140 -12.944  0.00  0.00    +0.170 C 
ATOM      8  C   UNL     1      36.476 -23.472 -12.929  0.00  0.00    +0.196 C 
ATOM      9  C   UNL     1      37.133 -23.387 -11.705  0.00  0.00    +0.155 C 
ATOM     10  C   UNL     1      35.373 -24.573 -10.777  0.00  0.00    +0.253 C 
ATOM     11  H   UNL     1      34.796 -23.546 -16.685  0.00  0.00    +0.151 HD
ATOM     12  N   UNL     1      38.371 -22.730 -11.599  0.00  0.00    -0.341 N 
ATOM     13  H   UNL     1      38.827 -22.676 -10.728  0.00  0.00    +0.144 HD
ATOM     14  H   UNL     1      38.782 -22.323 -12.396  0.00  0.00    +0.144 HD
ENDROOT
BRANCH   1  16
ATOM     15  O4* UNL     1      33.273 -24.202 -16.111  0.00  0.00    -0.333 OA
ATOM     16  C1* UNL     1      33.554 -24.669 -14.775  0.00  0.00    +0.230 C 
ATOM     17  C2* UNL     1      32.333 -24.295 -13.942  0.00  0.00    +0.187 C 
ATOM     18  C3* UNL     1      31.210 -24.419 -14.952  0.00  0.00    +0.171 C 
ATOM     19  C4* UNL     1      31.865 -23.899 -16.225  0.00  0.00    +0.175 C 
BRANCH  17  20
ATOM     20  O2* UNL     1      32.156 -25.130 -12.814  0.00  0.00    -0.378 OA
ATOM     21  H2* UNL     1      31.231 -25.419 -12.767  0.00  0.00    +0.211 HD
ENDBRANCH  17  20
BRANCH  18  22
ATOM     22  O3* UNL     1      30.878 -25.792 -15.158  0.00  0.00    -0.379 OA
ATOM     23  H3* UNL     1      30.006 -25.853 -15.580  0.00  0.00    +0.211 HD
ENDBRANCH  18  22
BRANCH  19  24
ATOM     24  C5* UNL     1      31.714 -22.394 -16.400  0.00  0.00    +0.169 C 
BRANCH  24  25
ATOM     25  O5* UNL     1      30.563 -22.142 -17.186  0.00  0.00    -0.379 OA
ATOM     26  H5* UNL     1      30.487 -22.819 -17.877  0.00  0.00    +0.211 HD
ENDBRANCH  24  25
ENDBRANCH  19  24
ENDBRANCH   1  16
BRANCH   3  27
ATOM     27  C   UNL     1      36.553 -22.473 -17.134  0.00  0.00    +0.117 C 
BRANCH  27  30
ATOM     28 CL   UNL     1      36.685 -19.130 -21.095  0.00  0.00    -0.081 Cl
ATOM     29 CL   UNL     1      33.574 -19.828 -21.650  0.00  0.00    -0.081 Cl
ATOM     30  C   UNL     1      35.822 -21.803 -18.266  0.00  0.00    -0.002 C 
ATOM     31  C   UNL     1      36.486 -20.883 -19.077  0.00  0.00    +0.010 C 
ATOM     32  C   UNL     1      34.481 -22.102 -18.504  0.00  0.00    -0.002 C 
ATOM     33  C   UNL     1      35.809 -20.263 -20.127  0.00  0.00    +0.068 C 
ATOM     34  C   UNL     1      33.804 -21.482 -19.554  0.00  0.00    +0.012 C 
ATOM     35  C   UNL     1      34.468 -20.562 -20.364  0.00  0.00    +0.068 C 
ENDBRANCH  27  30
ENDBRANCH   3  27
TORSDOF 7
ENDMDL
MODEL 7
REMARK VINA RESULT:      -8.7      4.243      7.278
REMARK  Name = 25195347
REMARK  7 active torsions:
REMARK  status: ('A' for Active; 'I' for Inactive)
REMARK    1  A    between atoms: N_1  and  C1*_13
REMARK    2  A    between atoms: N_3  and  C_27
REMARK    3  A    between atoms: C2*_14  and  O2*_17
REMARK    4  A    between atoms: C3*_15  and  O3*_19
REMARK    5  A    between atoms: C4*_16  and  C5*_21
REMARK    6  A    between atoms: C5*_21  and  O5*_22
REMARK    7  A    between atoms: C_27  and  C_30
REMARK                            x       y       z     vdW  Elec       q    Type
REMARK                         _______ _______ _______ _____ _____    ______ ____
ROOT
ATOM      1  N   UNL     1      33.268 -23.696 -15.306  0.00  0.00    -0.208 N 
ATOM      2  N   UNL     1      35.356 -22.958 -15.047  0.00  0.00    -0.367 NA
ATOM      3  N   UNL     1      34.187 -23.860 -13.148  0.00  0.00    -0.292 N 
ATOM      4  N   UNL     1      32.958 -23.245 -17.673  0.00  0.00    -0.227 NA
ATOM      5  N   UNL     1      34.956 -22.243 -18.653  0.00  0.00    -0.227 NA
ATOM      6  C   UNL     1      34.317 -23.501 -14.447  0.00  0.00    +0.245 C 
ATOM      7  C   UNL     1      33.666 -23.248 -16.533  0.00  0.00    +0.170 C 
ATOM      8  C   UNL     1      34.963 -22.795 -16.351  0.00  0.00    +0.196 C 
ATOM      9  C   UNL     1      35.611 -22.278 -17.469  0.00  0.00    +0.155 C 
ATOM     10  C   UNL     1      33.688 -22.722 -18.682  0.00  0.00    +0.253 C 
ATOM     11  H   UNL     1      33.331 -24.257 -12.867  0.00  0.00    +0.151 HD
ATOM     12  N   UNL     1      36.927 -21.793 -17.374  0.00  0.00    -0.341 N 
ATOM     13  H   UNL     1      37.377 -21.429 -18.171  0.00  0.00    +0.144 HD
ATOM     14  H   UNL     1      37.400 -21.817 -16.511  0.00  0.00    +0.144 HD
ENDROOT
BRANCH   1  16
ATOM     15  O4* UNL     1      31.133 -24.507 -16.169  0.00  0.00    -0.333 OA
ATOM     16  C1* UNL     1      31.919 -24.289 -14.978  0.00  0.00    +0.230 C 
ATOM     17  C2* UNL     1      31.073 -23.388 -14.085  0.00  0.00    +0.187 C 
ATOM     18  C3* UNL     1      29.666 -23.838 -14.423  0.00  0.00    +0.171 C 
ATOM     19  C4* UNL     1      29.767 -24.108 -15.918  0.00  0.00    +0.175 C 
BRANCH  17  20
ATOM     20  O2* UNL     1      31.383 -23.526 -12.711  0.00  0.00    -0.378 OA
ATOM     21  H2* UNL     1      32.244 -23.962 -12.616  0.00  0.00    +0.211 HD
ENDBRANCH  17  20
BRANCH  18  22
ATOM     22  O3* UNL     1      29.370 -25.073 -13.772  0.00  0.00    -0.379 OA
ATOM     23  H3* UNL     1      28.975 -25.688 -14.410  0.00  0.00    +0.211 HD
ENDBRANCH  18  22
BRANCH  19  24
ATOM     24  C5* UNL     1      29.466 -22.881 -16.768  0.00  0.00    +0.169 C 
BRANCH  24  25
ATOM     25  O5* UNL     1      28.364 -23.172 -17.610  0.00  0.00    -0.379 OA
ATOM     26  H5* UNL     1      27.669 -22.509 -17.474  0.00  0.00    +0.211 HD
ENDBRANCH  24  25
ENDBRANCH  19  24
ENDBRANCH   1  16
BRANCH   3  27
ATOM     27  C   UNL     1      35.228 -23.705 -12.133  0.00  0.00    +0.117 C 
BRANCH  27  30
ATOM     28 CL   UNL     1      37.607 -27.388 -14.901  0.00  0.00    -0.081 Cl
ATOM     29 CL   UNL     1      40.432 -26.099 -13.990  0.00  0.00    -0.081 Cl
ATOM     30  C   UNL     1      36.519 -24.316 -12.605  0.00  0.00    -0.002 C 
ATOM     31  C   UNL     1      36.499 -25.435 -13.436  0.00  0.00    +0.010 C 
ATOM     32  C   UNL     1      37.737 -23.761 -12.211  0.00  0.00    -0.002 C 
ATOM     33  C   UNL     1      37.697 -26.000 -13.874  0.00  0.00    +0.068 C 
ATOM     34  C   UNL     1      38.935 -24.326 -12.649  0.00  0.00    +0.012 C 
ATOM     35  C   UNL     1      38.914 -25.445 -13.480  0.00  0.00    +0.068 C 
ENDBRANCH  27  30
ENDBRANCH   3  27
TORSDOF 7
ENDMDL
MODEL 8
REMARK VINA RESULT:      -8.0      8.804     11.924
REMARK  Name = 25195347
REMARK  7 active torsions:
REMARK  status: ('A' for Active; 'I' for Inactive)
REMARK    1  A    between atoms: N_1  and  C1*_13
REMARK    2  A    between atoms: N_3  and  C_27
REMARK    3  A    between atoms: C2*_14  and  O2*_17
REMARK    4  A    between atoms: C3*_15  and  O3*_19
REMARK    5  A    between atoms: C4*_16  and  C5*_21
REMARK    6  A    between atoms: C5*_21  and  O5*_22
REMARK    7  A    between atoms: C_27  and  C_30
REMARK                            x       y       z     vdW  Elec       q    Type
REMARK                         _______ _______ _______ _____ _____    ______ ____
ROOT
ATOM      1  N   UNL     1      32.261 -12.126 -22.806  0.00  0.00    -0.208 N 
ATOM      2  N   UNL     1      32.044 -12.089 -20.588  0.00  0.00    -0.367 NA
ATOM      3  N   UNL     1      32.265 -14.205 -21.709  0.00  0.00    -0.292 N 
ATOM      4  N   UNL     1      32.177  -9.744 -23.273  0.00  0.00    -0.227 NA
ATOM      5  N   UNL     1      31.908  -8.448 -21.222  0.00  0.00    -0.227 NA
ATOM      6  C   UNL     1      32.188 -12.855 -21.649  0.00  0.00    +0.245 C 
ATOM      7  C   UNL     1      32.156 -10.810 -22.459  0.00  0.00    +0.170 C 
ATOM      8  C   UNL     1      32.023 -10.808 -21.080  0.00  0.00    +0.196 C 
ATOM      9  C   UNL     1      31.896  -9.568 -20.461  0.00  0.00    +0.155 C 
ATOM     10  C   UNL     1      32.046  -8.603 -22.561  0.00  0.00    +0.253 C 
ATOM     11  H   UNL     1      32.374 -14.618 -22.596  0.00  0.00    +0.151 HD
ATOM     12  N   UNL     1      31.753  -9.473 -19.066  0.00  0.00    -0.341 N 
ATOM     13  H   UNL     1      31.664  -8.591 -18.638  0.00  0.00    +0.144 HD
ATOM     14  H   UNL     1      31.742 -10.290 -18.515  0.00  0.00    +0.144 HD
ENDROOT
BRANCH   1  16
ATOM     15  O4* UNL     1      32.192 -14.081 -24.268  0.00  0.00    -0.333 OA
ATOM     16  C1* UNL     1      32.423 -12.657 -24.210  0.00  0.00    +0.230 C 
ATOM     17  C2* UNL     1      33.826 -12.444 -24.769  0.00  0.00    +0.187 C 
ATOM     18  C3* UNL     1      33.925 -13.547 -25.803  0.00  0.00    +0.171 C 
ATOM     19  C4* UNL     1      33.182 -14.691 -25.125  0.00  0.00    +0.175 C 
BRANCH  17  20
ATOM     20  O2* UNL     1      34.011 -11.153 -25.318  0.00  0.00    -0.378 OA
ATOM     21  H2* UNL     1      34.866 -11.117 -25.775  0.00  0.00    +0.211 HD
ENDBRANCH  17  20
BRANCH  18  22
ATOM     22  O3* UNL     1      33.202 -13.190 -26.981  0.00  0.00    -0.379 OA
ATOM     23  H3* UNL     1      32.840 -12.296 -26.879  0.00  0.00    +0.211 HD
ENDBRANCH  18  22
BRANCH  19  24
ATOM     24  C5* UNL     1      34.087 -15.561 -24.263  0.00  0.00    +0.169 C 
BRANCH  24  25
ATOM     25  O5* UNL     1      34.744 -16.499 -25.098  0.00  0.00    -0.379 OA
ATOM     26  H5* UNL     1      34.268 -16.571 -25.941  0.00  0.00    +0.211 HD
ENDBRANCH  24  25
ENDBRANCH  19  24
ENDBRANCH   1  16
BRANCH   3  27
ATOM     27  C   UNL     1      32.201 -15.095 -20.551  0.00  0.00    +0.117 C 
BRANCH  27  30
ATOM     28 CL   UNL     1      32.731 -20.237 -20.950  0.00  0.00    -0.081 Cl
ATOM     29 CL   UNL     1      35.913 -19.774 -21.321  0.00  0.00    -0.081 Cl
ATOM     30  C   UNL     1      33.115 -16.274 -20.741  0.00  0.00    -0.002 C 
ATOM     31  C   UNL     1      32.592 -17.567 -20.760  0.00  0.00    +0.010 C 
ATOM     32  C   UNL     1      34.486 -16.075 -20.900  0.00  0.00    -0.002 C 
ATOM     33  C   UNL     1      33.440 -18.660 -20.937  0.00  0.00    +0.068 C 
ATOM     34  C   UNL     1      35.334 -17.168 -21.077  0.00  0.00    +0.012 C 
ATOM     35  C   UNL     1      34.811 -18.460 -21.096  0.00  0.00    +0.068 C 
ENDBRANCH  27  30
ENDBRANCH   3  27
TORSDOF 7
ENDMDL
MODEL 9
REMARK VINA RESULT:      -7.9     12.578     14.959
REMARK  Name = 25195347
REMARK  7 active torsions:
REMARK  status: ('A' for Active; 'I' for Inactive)
REMARK    1  A    between atoms: N_1  and  C1*_13
REMARK    2  A    between atoms: N_3  and  C_27
REMARK    3  A    between atoms: C2*_14  and  O2*_17
REMARK    4  A    between atoms: C3*_15  and  O3*_19
REMARK    5  A    between atoms: C4*_16  and  C5*_21
REMARK    6  A    between atoms: C5*_21  and  O5*_22
REMARK    7  A    between atoms: C_27  and  C_30
REMARK                            x       y       z     vdW  Elec       q    Type
REMARK                         _______ _______ _______ _____ _____    ______ ____
ROOT
ATOM      1  N   UNL     1      32.631  -8.164 -22.279  0.00  0.00    -0.208 N 
ATOM      2  N   UNL     1      32.928  -7.545 -24.400  0.00  0.00    -0.367 NA
ATOM      3  N   UNL     1      33.886  -9.616 -23.638  0.00  0.00    -0.292 N 
ATOM      4  N   UNL     1      31.309  -6.291 -21.479  0.00  0.00    -0.227 NA
ATOM      5  N   UNL     1      30.918  -4.661 -23.253  0.00  0.00    -0.227 NA
ATOM      6  C   UNL     1      33.181  -8.469 -23.496  0.00  0.00    +0.245 C 
ATOM      7  C   UNL     1      31.987  -6.969 -22.417  0.00  0.00    +0.170 C 
ATOM      8  C   UNL     1      32.182  -6.602 -23.739  0.00  0.00    +0.196 C 
ATOM      9  C   UNL     1      31.616  -5.398 -24.149  0.00  0.00    +0.155 C 
ATOM     10  C   UNL     1      30.809  -5.145 -21.992  0.00  0.00    +0.253 C 
ATOM     11  H   UNL     1      33.977 -10.197 -22.849  0.00  0.00    +0.151 HD
ATOM     12  N   UNL     1      31.767  -4.947 -25.471  0.00  0.00    -0.341 N 
ATOM     13  H   UNL     1      31.362  -4.095 -25.750  0.00  0.00    +0.144 HD
ATOM     14  H   UNL     1      32.278  -5.485 -26.119  0.00  0.00    +0.144 HD
ENDROOT
BRANCH   1  16
ATOM     15  O4* UNL     1      32.484 -10.382 -21.268  0.00  0.00    -0.333 OA
ATOM     16  C1* UNL     1      32.714  -8.981 -21.011  0.00  0.00    +0.230 C 
ATOM     17  C2* UNL     1      31.672  -8.575 -19.973  0.00  0.00    +0.187 C 
ATOM     18  C3* UNL     1      31.524  -9.846 -19.162  0.00  0.00    +0.171 C 
ATOM     19  C4* UNL     1      31.637 -10.925 -20.231  0.00  0.00    +0.175 C 
BRANCH  17  20
ATOM     20  O2* UNL     1      32.073  -7.465 -19.194  0.00  0.00    -0.378 OA
ATOM     21  H2* UNL     1      32.136  -7.730 -18.263  0.00  0.00    +0.211 HD
ENDBRANCH  17  20
BRANCH  18  22
ATOM     22  O3* UNL     1      32.626  -9.996 -18.267  0.00  0.00    -0.379 OA
ATOM     23  H3* UNL     1      33.403  -9.545 -18.634  0.00  0.00    +0.211 HD
ENDBRANCH  18  22
BRANCH  19  24
ATOM     24  C5* UNL     1      30.296 -11.291 -20.853  0.00  0.00    +0.169 C 
BRANCH  24  25
ATOM     25  O5* UNL     1      30.469 -11.430 -22.253  0.00  0.00    -0.379 OA
ATOM     26  H5* UNL     1      29.986 -12.212 -22.563  0.00  0.00    +0.211 HD
ENDBRANCH  24  25
ENDBRANCH  19  24
ENDBRANCH   1  16
BRANCH   3  27
ATOM     27  C   UNL     1      34.521 -10.054 -24.880  0.00  0.00    +0.117 C 
BRANCH  27  30
ATOM     28 CL   UNL     1      33.096 -14.774 -23.274  0.00  0.00    -0.081 Cl
ATOM     29 CL   UNL     1      32.723 -15.602 -26.381  0.00  0.00    -0.081 Cl
ATOM     30  C   UNL     1      34.072 -11.444 -25.238  0.00  0.00    -0.002 C 
ATOM     31  C   UNL     1      33.815 -12.376 -24.233  0.00  0.00    +0.010 C 
ATOM     32  C   UNL     1      33.912 -11.802 -26.577  0.00  0.00    -0.002 C 
ATOM     33  C   UNL     1      33.398 -13.664 -24.566  0.00  0.00    +0.068 C 
ATOM     34  C   UNL     1      33.495 -13.090 -26.910  0.00  0.00    +0.012 C 
ATOM     35  C   UNL     1      33.238 -14.021 -25.904  0.00  0.00    +0.068 C 
ENDBRANCH  27  30
ENDBRANCH   3  27
TORSDOF 7
ENDMDL
