MODEL 1
REMARK VINA RESULT:      -8.2      0.000      0.000
REMARK  Name = 3340355
REMARK  0 active torsions:
REMARK  status: ('A' for Active; 'I' for Inactive)
REMARK                            x       y       z     vdW  Elec       q    Type
REMARK                         _______ _______ _______ _____ _____    ______ ____
ROOT
ATOM      1  O   UNL     1      34.950 -19.559 -24.259  0.00  0.00    -0.273 OA
ATOM      2  O   UNL     1      33.155 -15.689 -26.623  0.00  0.00    -0.208 OA
ATOM      3  N   UNL     1      35.144 -16.440 -22.422  0.00  0.00    -0.316 N 
ATOM      4  N   UNL     1      34.272 -17.445 -24.798  0.00  0.00    -0.271 N 
ATOM      5  N   UNL     1      34.450 -14.240 -23.157  0.00  0.00    -0.263 N 
ATOM      6  N   UNL     1      33.447 -13.862 -25.262  0.00  0.00    -0.301 NA
ATOM      7  N   UNL     1      33.829 -12.104 -23.745  0.00  0.00    -0.320 N 
ATOM      8  C   UNL     1      35.175 -17.892 -22.518  0.00  0.00    +0.125 C 
ATOM      9  C   UNL     1      34.810 -18.378 -23.932  0.00  0.00    +0.242 C 
ATOM     10  C   UNL     1      34.583 -15.595 -23.354  0.00  0.00    +0.127 C 
ATOM     11  C   UNL     1      36.585 -18.373 -22.165  0.00  0.00    +0.029 C 
ATOM     12  C   UNL     1      34.152 -18.464 -21.533  0.00  0.00    +0.029 C 
ATOM     13  C   UNL     1      34.149 -16.109 -24.519  0.00  0.00    +0.174 C 
ATOM     14  C   UNL     1      33.542 -15.212 -25.560  0.00  0.00    +0.224 C 
ATOM     15  C   UNL     1      33.888 -13.424 -24.110  0.00  0.00    +0.248 C 
ATOM     16  H   UNL     1      35.556 -16.029 -21.627  0.00  0.00    +0.148 HD
ATOM     17  H   UNL     1      33.954 -17.762 -25.674  0.00  0.00    +0.156 HD
ATOM     18  H   UNL     1      34.766 -13.845 -22.312  0.00  0.00    +0.157 HD
ATOM     19  H   UNL     1      34.174 -11.820 -22.868  0.00  0.00    +0.146 HD
ATOM     20  H   UNL     1      33.442 -11.440 -24.360  0.00  0.00    +0.146 HD
ENDROOT
TORSDOF 0
ENDMDL
MODEL 2
REMARK VINA RESULT:      -8.2      4.691      7.529
REMARK  Name = 3340355
REMARK  0 active torsions:
REMARK  status: ('A' for Active; 'I' for Inactive)
REMARK                            x       y       z     vdW  Elec       q    Type
REMARK                         _______ _______ _______ _____ _____    ______ ____
ROOT
ATOM      1  O   UNL     1      37.125 -18.603 -21.804  0.00  0.00    -0.273 OA
ATOM      2  O   UNL     1      36.910 -21.870 -18.188  0.00  0.00    -0.208 OA
ATOM      3  N   UNL     1      33.804 -19.884 -21.118  0.00  0.00    -0.316 N 
ATOM      4  N   UNL     1      36.376 -20.103 -20.252  0.00  0.00    -0.271 N 
ATOM      5  N   UNL     1      33.165 -21.548 -19.478  0.00  0.00    -0.263 N 
ATOM      6  N   UNL     1      34.721 -22.541 -18.005  0.00  0.00    -0.301 NA
ATOM      7  N   UNL     1      32.440 -23.116 -17.960  0.00  0.00    -0.320 N 
ATOM      8  C   UNL     1      34.728 -18.922 -21.700  0.00  0.00    +0.125 C 
ATOM      9  C   UNL     1      36.181 -19.198 -21.278  0.00  0.00    +0.242 C 
ATOM     10  C   UNL     1      34.106 -20.754 -20.093  0.00  0.00    +0.127 C 
ATOM     11  C   UNL     1      34.618 -19.002 -23.225  0.00  0.00    +0.029 C 
ATOM     12  C   UNL     1      34.341 -17.523 -21.208  0.00  0.00    +0.029 C 
ATOM     13  C   UNL     1      35.380 -20.844 -19.671  0.00  0.00    +0.174 C 
ATOM     14  C   UNL     1      35.743 -21.790 -18.562  0.00  0.00    +0.224 C 
ATOM     15  C   UNL     1      33.502 -22.407 -18.460  0.00  0.00    +0.248 C 
ATOM     16  H   UNL     1      32.891 -19.917 -21.486  0.00  0.00    +0.148 HD
ATOM     17  H   UNL     1      37.294 -20.224 -19.915  0.00  0.00    +0.156 HD
ATOM     18  H   UNL     1      32.228 -21.499 -19.776  0.00  0.00    +0.157 HD
ATOM     19  H   UNL     1      31.539 -22.983 -18.334  0.00  0.00    +0.146 HD
ATOM     20  H   UNL     1      32.578 -23.758 -17.226  0.00  0.00    +0.146 HD
ENDROOT
TORSDOF 0
ENDMDL
MODEL 3
REMARK VINA RESULT:      -7.9      2.101      2.791
REMARK  Name = 3340355
REMARK  0 active torsions:
REMARK  status: ('A' for Active; 'I' for Inactive)
REMARK                            x       y       z     vdW  Elec       q    Type
REMARK                         _______ _______ _______ _____ _____    ______ ____
ROOT
ATOM      1  O   UNL     1      35.058 -17.414 -20.840  0.00  0.00    -0.273 OA
ATOM      2  O   UNL     1      34.706 -17.664 -25.698  0.00  0.00    -0.208 OA
ATOM      3  N   UNL     1      33.451 -14.558 -22.389  0.00  0.00    -0.316 N 
ATOM      4  N   UNL     1      34.579 -16.953 -23.026  0.00  0.00    -0.271 N 
ATOM      5  N   UNL     1      33.079 -14.165 -24.750  0.00  0.00    -0.263 N 
ATOM      6  N   UNL     1      33.703 -15.725 -26.410  0.00  0.00    -0.301 NA
ATOM      7  N   UNL     1      32.671 -13.683 -26.962  0.00  0.00    -0.320 N 
ATOM      8  C   UNL     1      33.778 -15.400 -21.249  0.00  0.00    +0.125 C 
ATOM      9  C   UNL     1      34.542 -16.666 -21.674  0.00  0.00    +0.242 C 
ATOM     10  C   UNL     1      33.531 -14.944 -23.709  0.00  0.00    +0.127 C 
ATOM     11  C   UNL     1      34.640 -14.590 -20.277  0.00  0.00    +0.029 C 
ATOM     12  C   UNL     1      32.471 -15.830 -20.575  0.00  0.00    +0.029 C 
ATOM     13  C   UNL     1      34.083 -16.134 -24.006  0.00  0.00    +0.174 C 
ATOM     14  C   UNL     1      34.194 -16.579 -25.437  0.00  0.00    +0.224 C 
ATOM     15  C   UNL     1      33.177 -14.580 -26.057  0.00  0.00    +0.248 C 
ATOM     16  H   UNL     1      33.148 -13.639 -22.203  0.00  0.00    +0.148 HD
ATOM     17  H   UNL     1      34.989 -17.805 -23.303  0.00  0.00    +0.156 HD
ATOM     18  H   UNL     1      32.675 -13.289 -24.553  0.00  0.00    +0.157 HD
ATOM     19  H   UNL     1      32.286 -12.832 -26.649  0.00  0.00    +0.146 HD
ATOM     20  H   UNL     1      32.695 -13.889 -27.924  0.00  0.00    +0.146 HD
ENDROOT
TORSDOF 0
ENDMDL
MODEL 4
REMARK VINA RESULT:      -7.6     10.874     12.354
REMARK  Name = 3340355
REMARK  0 active torsions:
REMARK  status: ('A' for Active; 'I' for Inactive)
REMARK                            x       y       z     vdW  Elec       q    Type
REMARK                         _______ _______ _______ _____ _____    ______ ____
ROOT
ATOM      1  O   UNL     1      36.188 -22.462 -15.638  0.00  0.00    -0.273 OA
ATOM      2  O   UNL     1      31.563 -22.640 -17.176  0.00  0.00    -0.208 OA
ATOM      3  N   UNL     1      34.035 -24.647 -13.707  0.00  0.00    -0.316 N 
ATOM      4  N   UNL     1      33.975 -22.986 -15.864  0.00  0.00    -0.271 N 
ATOM      5  N   UNL     1      31.666 -25.047 -14.016  0.00  0.00    -0.263 N 
ATOM      6  N   UNL     1      30.427 -24.046 -15.759  0.00  0.00    -0.301 NA
ATOM      7  N   UNL     1      29.421 -25.506 -14.212  0.00  0.00    -0.320 N 
ATOM      8  C   UNL     1      35.337 -24.160 -14.137  0.00  0.00    +0.125 C 
ATOM      9  C   UNL     1      35.213 -23.117 -15.262  0.00  0.00    +0.242 C 
ATOM     10  C   UNL     1      32.851 -24.452 -14.384  0.00  0.00    +0.127 C 
ATOM     11  C   UNL     1      36.042 -23.528 -12.935  0.00  0.00    +0.029 C 
ATOM     12  C   UNL     1      36.145 -25.348 -14.669  0.00  0.00    +0.029 C 
ATOM     13  C   UNL     1      32.841 -23.635 -15.452  0.00  0.00    +0.174 C 
ATOM     14  C   UNL     1      31.564 -23.393 -16.206  0.00  0.00    +0.224 C 
ATOM     15  C   UNL     1      30.502 -24.828 -14.713  0.00  0.00    +0.248 C 
ATOM     16  H   UNL     1      33.997 -25.156 -12.864  0.00  0.00    +0.148 HD
ATOM     17  H   UNL     1      33.905 -22.385 -16.641  0.00  0.00    +0.156 HD
ATOM     18  H   UNL     1      31.653 -25.646 -13.234  0.00  0.00    +0.157 HD
ATOM     19  H   UNL     1      29.525 -26.083 -13.421  0.00  0.00    +0.146 HD
ATOM     20  H   UNL     1      28.540 -25.415 -14.643  0.00  0.00    +0.146 HD
ENDROOT
TORSDOF 0
ENDMDL
MODEL 5
REMARK VINA RESULT:      -7.5      9.105     11.312
REMARK  Name = 3340355
REMARK  0 active torsions:
REMARK  status: ('A' for Active; 'I' for Inactive)
REMARK                            x       y       z     vdW  Elec       q    Type
REMARK                         _______ _______ _______ _____ _____    ______ ____
ROOT
ATOM      1  O   UNL     1      30.762 -23.673 -13.128  0.00  0.00    -0.273 OA
ATOM      2  O   UNL     1      35.203 -23.430 -15.132  0.00  0.00    -0.208 OA
ATOM      3  N   UNL     1      30.782 -22.953 -16.681  0.00  0.00    -0.316 N 
ATOM      4  N   UNL     1      32.483 -23.460 -14.616  0.00  0.00    -0.271 N 
ATOM      5  N   UNL     1      32.704 -22.674 -18.128  0.00  0.00    -0.263 N 
ATOM      6  N   UNL     1      34.922 -22.919 -17.353  0.00  0.00    -0.301 NA
ATOM      7  N   UNL     1      34.451 -22.389 -19.597  0.00  0.00    -0.320 N 
ATOM      8  C   UNL     1      30.135 -23.373 -15.447  0.00  0.00    +0.125 C 
ATOM      9  C   UNL     1      31.141 -23.499 -14.289  0.00  0.00    +0.242 C 
ATOM     10  C   UNL     1      32.142 -22.945 -16.902  0.00  0.00    +0.127 C 
ATOM     11  C   UNL     1      29.067 -22.340 -15.081  0.00  0.00    +0.029 C 
ATOM     12  C   UNL     1      29.495 -24.746 -15.681  0.00  0.00    +0.029 C 
ATOM     13  C   UNL     1      32.968 -23.207 -15.873  0.00  0.00    +0.174 C 
ATOM     14  C   UNL     1      34.456 -23.197 -16.078  0.00  0.00    +0.224 C 
ATOM     15  C   UNL     1      34.066 -22.673 -18.312  0.00  0.00    +0.248 C 
ATOM     16  H   UNL     1      30.202 -22.649 -17.417  0.00  0.00    +0.148 HD
ATOM     17  H   UNL     1      33.135 -23.626 -13.897  0.00  0.00    +0.156 HD
ATOM     18  H   UNL     1      32.115 -22.477 -18.892  0.00  0.00    +0.157 HD
ATOM     19  H   UNL     1      33.771 -22.210 -20.286  0.00  0.00    +0.146 HD
ATOM     20  H   UNL     1      35.407 -22.365 -19.830  0.00  0.00    +0.146 HD
ENDROOT
TORSDOF 0
ENDMDL
MODEL 6
REMARK VINA RESULT:      -7.5     10.846     12.620
REMARK  Name = 3340355
REMARK  0 active torsions:
REMARK  status: ('A' for Active; 'I' for Inactive)
REMARK                            x       y       z     vdW  Elec       q    Type
REMARK                         _______ _______ _______ _____ _____    ______ ____
ROOT
ATOM      1  O   UNL     1      38.714 -24.178 -14.994  0.00  0.00    -0.273 OA
ATOM      2  O   UNL     1      34.577 -22.909 -17.245  0.00  0.00    -0.208 OA
ATOM      3  N   UNL     1      35.689 -24.991 -13.170  0.00  0.00    -0.316 N 
ATOM      4  N   UNL     1      36.510 -23.871 -15.513  0.00  0.00    -0.271 N 
ATOM      5  N   UNL     1      33.400 -24.530 -13.813  0.00  0.00    -0.263 N 
ATOM      6  N   UNL     1      32.841 -23.491 -15.859  0.00  0.00    -0.301 NA
ATOM      7  N   UNL     1      31.188 -24.147 -14.316  0.00  0.00    -0.320 N 
ATOM      8  C   UNL     1      37.114 -25.116 -13.440  0.00  0.00    +0.125 C 
ATOM      9  C   UNL     1      37.527 -24.337 -14.701  0.00  0.00    +0.242 C 
ATOM     10  C   UNL     1      34.754 -24.501 -14.056  0.00  0.00    +0.127 C 
ATOM     11  C   UNL     1      37.887 -24.576 -12.234  0.00  0.00    +0.029 C 
ATOM     12  C   UNL     1      37.434 -26.598 -13.662  0.00  0.00    +0.029 C 
ATOM     13  C   UNL     1      35.176 -23.959 -15.212  0.00  0.00    +0.174 C 
ATOM     14  C   UNL     1      34.182 -23.408 -16.195  0.00  0.00    +0.224 C 
ATOM     15  C   UNL     1      32.494 -24.030 -14.718  0.00  0.00    +0.248 C 
ATOM     16  H   UNL     1      35.368 -25.278 -12.284  0.00  0.00    +0.148 HD
ATOM     17  H   UNL     1      36.762 -23.448 -16.366  0.00  0.00    +0.156 HD
ATOM     18  H   UNL     1      33.072 -24.919 -12.970  0.00  0.00    +0.157 HD
ATOM     19  H   UNL     1      30.975 -24.559 -13.448  0.00  0.00    +0.146 HD
ATOM     20  H   UNL     1      30.464 -23.818 -14.896  0.00  0.00    +0.146 HD
ENDROOT
TORSDOF 0
ENDMDL
MODEL 7
REMARK VINA RESULT:      -7.3      2.274      2.935
REMARK  Name = 3340355
REMARK  0 active torsions:
REMARK  status: ('A' for Active; 'I' for Inactive)
REMARK                            x       y       z     vdW  Elec       q    Type
REMARK                         _______ _______ _______ _____ _____    ______ ____
ROOT
ATOM      1  O   UNL     1      34.273 -19.425 -20.878  0.00  0.00    -0.273 OA
ATOM      2  O   UNL     1      32.561 -14.913 -20.173  0.00  0.00    -0.208 OA
ATOM      3  N   UNL     1      35.197 -17.038 -23.445  0.00  0.00    -0.316 N 
ATOM      4  N   UNL     1      33.816 -17.198 -21.104  0.00  0.00    -0.271 N 
ATOM      5  N   UNL     1      34.567 -14.705 -23.597  0.00  0.00    -0.263 N 
ATOM      6  N   UNL     1      33.250 -13.636 -21.954  0.00  0.00    -0.301 NA
ATOM      7  N   UNL     1      34.035 -12.481 -23.848  0.00  0.00    -0.320 N 
ATOM      8  C   UNL     1      35.343 -18.301 -22.736  0.00  0.00    +0.125 C 
ATOM      9  C   UNL     1      34.423 -18.373 -21.504  0.00  0.00    +0.242 C 
ATOM     10  C   UNL     1      34.560 -15.921 -22.952  0.00  0.00    +0.127 C 
ATOM     11  C   UNL     1      34.995 -19.441 -23.696  0.00  0.00    +0.029 C 
ATOM     12  C   UNL     1      36.794 -18.424 -22.261  0.00  0.00    +0.029 C 
ATOM     13  C   UNL     1      33.889 -16.014 -21.790  0.00  0.00    +0.174 C 
ATOM     14  C   UNL     1      33.176 -14.816 -21.231  0.00  0.00    +0.224 C 
ATOM     15  C   UNL     1      33.918 -13.610 -23.078  0.00  0.00    +0.248 C 
ATOM     16  H   UNL     1      35.585 -16.979 -24.348  0.00  0.00    +0.148 HD
ATOM     17  H   UNL     1      33.295 -17.213 -20.268  0.00  0.00    +0.156 HD
ATOM     18  H   UNL     1      35.050 -14.618 -24.451  0.00  0.00    +0.157 HD
ATOM     19  H   UNL     1      34.548 -12.509 -24.688  0.00  0.00    +0.146 HD
ATOM     20  H   UNL     1      33.605 -11.644 -23.561  0.00  0.00    +0.146 HD
ENDROOT
TORSDOF 0
ENDMDL
MODEL 8
REMARK VINA RESULT:      -7.3     10.908     12.605
REMARK  Name = 3340355
REMARK  0 active torsions:
REMARK  status: ('A' for Active; 'I' for Inactive)
REMARK                            x       y       z     vdW  Elec       q    Type
REMARK                         _______ _______ _______ _____ _____    ______ ____
ROOT
ATOM      1  O   UNL     1      30.842 -23.074 -16.446  0.00  0.00    -0.273 OA
ATOM      2  O   UNL     1      35.689 -22.745 -16.883  0.00  0.00    -0.208 OA
ATOM      3  N   UNL     1      32.714 -24.857 -13.906  0.00  0.00    -0.316 N 
ATOM      4  N   UNL     1      33.090 -23.281 -16.094  0.00  0.00    -0.271 N 
ATOM      5  N   UNL     1      35.119 -25.057 -13.701  0.00  0.00    -0.263 N 
ATOM      6  N   UNL     1      36.612 -23.994 -15.191  0.00  0.00    -0.301 NA
ATOM      7  N   UNL     1      37.385 -25.317 -13.405  0.00  0.00    -0.320 N 
ATOM      8  C   UNL     1      31.502 -24.255 -14.439  0.00  0.00    +0.125 C 
ATOM      9  C   UNL     1      31.769 -23.501 -15.753  0.00  0.00    +0.242 C 
ATOM     10  C   UNL     1      33.994 -24.570 -14.326  0.00  0.00    +0.127 C 
ATOM     11  C   UNL     1      30.476 -25.363 -14.689  0.00  0.00    +0.029 C 
ATOM     12  C   UNL     1      30.968 -23.253 -13.410  0.00  0.00    +0.029 C 
ATOM     13  C   UNL     1      34.162 -23.783 -15.404  0.00  0.00    +0.174 C 
ATOM     14  C   UNL     1      35.545 -23.459 -15.894  0.00  0.00    +0.224 C 
ATOM     15  C   UNL     1      36.382 -24.753 -14.150  0.00  0.00    +0.248 C 
ATOM     16  H   UNL     1      32.612 -25.524 -13.188  0.00  0.00    +0.148 HD
ATOM     17  H   UNL     1      33.273 -22.726 -16.887  0.00  0.00    +0.156 HD
ATOM     18  H   UNL     1      35.016 -25.638 -12.913  0.00  0.00    +0.157 HD
ATOM     19  H   UNL     1      37.164 -25.883 -12.630  0.00  0.00    +0.146 HD
ATOM     20  H   UNL     1      38.326 -25.158 -13.646  0.00  0.00    +0.146 HD
ENDROOT
TORSDOF 0
ENDMDL
MODEL 9
REMARK VINA RESULT:      -7.2     10.261     12.540
REMARK  Name = 3340355
REMARK  0 active torsions:
REMARK  status: ('A' for Active; 'I' for Inactive)
REMARK                            x       y       z     vdW  Elec       q    Type
REMARK                         _______ _______ _______ _____ _____    ______ ____
ROOT
ATOM      1  O   UNL     1      38.444 -23.536 -11.894  0.00  0.00    -0.273 OA
ATOM      2  O   UNL     1      37.464 -21.711 -16.310  0.00  0.00    -0.208 OA
ATOM      3  N   UNL     1      35.342 -24.705 -13.360  0.00  0.00    -0.316 N 
ATOM      4  N   UNL     1      37.459 -23.082 -13.905  0.00  0.00    -0.271 N 
ATOM      5  N   UNL     1      34.374 -24.071 -15.488  0.00  0.00    -0.263 N 
ATOM      6  N   UNL     1      35.441 -22.574 -16.971  0.00  0.00    -0.301 NA
ATOM      7  N   UNL     1      33.360 -23.546 -17.484  0.00  0.00    -0.320 N 
ATOM      8  C   UNL     1      36.435 -24.786 -12.403  0.00  0.00    +0.125 C 
ATOM      9  C   UNL     1      37.526 -23.741 -12.692  0.00  0.00    +0.242 C 
ATOM     10  C   UNL     1      35.377 -24.007 -14.547  0.00  0.00    +0.127 C 
ATOM     11  C   UNL     1      35.871 -24.555 -10.998  0.00  0.00    +0.029 C 
ATOM     12  C   UNL     1      37.063 -26.180 -12.505  0.00  0.00    +0.029 C 
ATOM     13  C   UNL     1      36.434 -23.217 -14.805  0.00  0.00    +0.174 C 
ATOM     14  C   UNL     1      36.498 -22.435 -16.087  0.00  0.00    +0.224 C 
ATOM     15  C   UNL     1      34.441 -23.359 -16.661  0.00  0.00    +0.248 C 
ATOM     16  H   UNL     1      34.510 -25.186 -13.141  0.00  0.00    +0.148 HD
ATOM     17  H   UNL     1      38.199 -22.475 -14.139  0.00  0.00    +0.156 HD
ATOM     18  H   UNL     1      33.590 -24.641 -15.315  0.00  0.00    +0.157 HD
ATOM     19  H   UNL     1      32.630 -24.146 -17.209  0.00  0.00    +0.146 HD
ATOM     20  H   UNL     1      33.314 -23.079 -18.350  0.00  0.00    +0.146 HD
ENDROOT
TORSDOF 0
ENDMDL
