MODEL 1
REMARK VINA RESULT:     -10.3      0.000      0.000
REMARK  Name = 12606920
REMARK  3 active torsions:
REMARK  status: ('A' for Active; 'I' for Inactive)
REMARK    1  A    between atoms: S_1  and  C_11
REMARK    2  A    between atoms: S_1  and  N_16
REMARK    3  A    between atoms: N_16  and  C_19
REMARK                            x       y       z     vdW  Elec       q    Type
REMARK                         _______ _______ _______ _____ _____    ______ ____
ROOT
ATOM      1  S   UNL     1      35.695 -18.273 -21.757  0.00  0.00    +0.074 S 
ATOM      2  O   UNL     1      35.325 -17.623 -20.507  0.00  0.00    -0.150 OA
ATOM      3  O   UNL     1      37.107 -18.502 -22.039  0.00  0.00    -0.150 OA
ENDROOT
BRANCH   1  11
ATOM      4  N   UNL     1      33.568 -13.032 -24.913  0.00  0.00    +0.387 N 
ATOM      5  C   UNL     1      33.896 -15.851 -25.157  0.00  0.00    -0.030 C 
ATOM      6  C   UNL     1      34.135 -15.243 -23.913  0.00  0.00    -0.046 C 
ATOM      7  C   UNL     1      33.333 -15.046 -26.300  0.00  0.00    +0.003 C 
ATOM      8  C   UNL     1      33.748 -13.803 -23.677  0.00  0.00    -0.055 C 
ATOM      9  C   UNL     1      32.680 -13.741 -25.834  0.00  0.00    -0.077 C 
ATOM     10  C   UNL     1      34.681 -16.000 -22.868  0.00  0.00    +0.014 C 
ATOM     11  C   UNL     1      35.010 -17.341 -23.065  0.00  0.00    +0.125 C 
ATOM     12  C   UNL     1      34.241 -17.196 -25.350  0.00  0.00    -0.003 C 
ATOM     13  C   UNL     1      34.793 -17.937 -24.306  0.00  0.00    +0.020 C 
ATOM     14  H   UNL     1      34.476 -12.898 -25.360  0.00  0.00    -0.084 HD
ATOM     15  H   UNL     1      33.152 -12.131 -24.683  0.00  0.00    -0.084 HD
ENDBRANCH   1  11
BRANCH   1  16
ATOM     16  N   UNL     1      34.839 -19.764 -21.860  0.00  0.00    -0.215 N 
ATOM     17  H   UNL     1      34.429 -20.056 -22.707  0.00  0.00    +0.174 HD
BRANCH  16  19
ATOM     18 CL   UNL     1      34.425 -23.094 -16.960  0.00  0.00    -0.082 Cl
ATOM     19  C   UNL     1      34.739 -20.570 -20.673  0.00  0.00    +0.065 C 
ATOM     20  C   UNL     1      33.486 -20.900 -20.170  0.00  0.00    +0.017 C 
ATOM     21  C   UNL     1      35.896 -21.012 -20.043  0.00  0.00    +0.017 C 
ATOM     22  C   UNL     1      33.389 -21.681 -19.019  0.00  0.00    +0.013 C 
ATOM     23  C   UNL     1      35.799 -21.795 -18.892  0.00  0.00    +0.013 C 
ATOM     24  C   UNL     1      34.545 -22.130 -18.381  0.00  0.00    +0.058 C 
ENDBRANCH  16  19
ENDBRANCH   1  16
TORSDOF 3
ENDMDL
MODEL 2
REMARK VINA RESULT:     -10.1      0.975      2.041
REMARK  Name = 12606920
REMARK  3 active torsions:
REMARK  status: ('A' for Active; 'I' for Inactive)
REMARK    1  A    between atoms: S_1  and  C_11
REMARK    2  A    between atoms: S_1  and  N_16
REMARK    3  A    between atoms: N_16  and  C_19
REMARK                            x       y       z     vdW  Elec       q    Type
REMARK                         _______ _______ _______ _____ _____    ______ ____
ROOT
ATOM      1  S   UNL     1      35.581 -17.888 -21.777  0.00  0.00    +0.074 S 
ATOM      2  O   UNL     1      35.670 -17.558 -20.361  0.00  0.00    -0.150 OA
ATOM      3  O   UNL     1      36.790 -18.299 -22.481  0.00  0.00    -0.150 OA
ENDROOT
BRANCH   1  11
ATOM      4  N   UNL     1      32.520 -14.607 -26.448  0.00  0.00    +0.387 N 
ATOM      5  C   UNL     1      33.815 -14.295 -23.931  0.00  0.00    -0.030 C 
ATOM      6  C   UNL     1      33.880 -15.540 -24.580  0.00  0.00    -0.046 C 
ATOM      7  C   UNL     1      33.199 -13.108 -24.626  0.00  0.00    +0.003 C 
ATOM      8  C   UNL     1      33.417 -15.683 -26.010  0.00  0.00    -0.055 C 
ATOM      9  C   UNL     1      33.100 -13.300 -26.141  0.00  0.00    -0.077 C 
ATOM     10  C   UNL     1      34.435 -16.639 -23.912  0.00  0.00    +0.014 C 
ATOM     11  C   UNL     1      34.897 -16.509 -22.603  0.00  0.00    +0.125 C 
ATOM     12  C   UNL     1      34.272 -14.177 -22.611  0.00  0.00    -0.003 C 
ATOM     13  C   UNL     1      34.813 -15.280 -21.952  0.00  0.00    +0.020 C 
ATOM     14  H   UNL     1      31.625 -14.699 -25.966  0.00  0.00    -0.084 HD
ATOM     15  H   UNL     1      32.385 -14.680 -27.456  0.00  0.00    -0.084 HD
ENDBRANCH   1  11
BRANCH   1  16
ATOM     16  N   UNL     1      34.365 -19.092 -21.971  0.00  0.00    -0.215 N 
ATOM     17  H   UNL     1      33.791 -19.108 -22.771  0.00  0.00    +0.174 HD
BRANCH  16  19
ATOM     18 CL   UNL     1      33.735 -23.147 -17.678  0.00  0.00    -0.082 Cl
ATOM     19  C   UNL     1      34.212 -20.074 -20.931  0.00  0.00    +0.065 C 
ATOM     20  C   UNL     1      35.319 -20.793 -20.498  0.00  0.00    +0.017 C 
ATOM     21  C   UNL     1      32.959 -20.292 -20.370  0.00  0.00    +0.017 C 
ATOM     22  C   UNL     1      35.171 -21.746 -19.490  0.00  0.00    +0.013 C 
ATOM     23  C   UNL     1      32.811 -21.245 -19.362  0.00  0.00    +0.013 C 
ATOM     24  C   UNL     1      33.917 -21.971 -18.921  0.00  0.00    +0.058 C 
ENDBRANCH  16  19
ENDBRANCH   1  16
TORSDOF 3
ENDMDL
MODEL 3
REMARK VINA RESULT:      -9.6      4.494      6.407
REMARK  Name = 12606920
REMARK  3 active torsions:
REMARK  status: ('A' for Active; 'I' for Inactive)
REMARK    1  A    between atoms: S_1  and  C_11
REMARK    2  A    between atoms: S_1  and  N_16
REMARK    3  A    between atoms: N_16  and  C_19
REMARK                            x       y       z     vdW  Elec       q    Type
REMARK                         _______ _______ _______ _____ _____    ______ ____
ROOT
ATOM      1  S   UNL     1      33.089 -13.280 -23.600  0.00  0.00    +0.074 S 
ATOM      2  O   UNL     1      32.854 -13.747 -24.960  0.00  0.00    -0.150 OA
ATOM      3  O   UNL     1      32.070 -13.527 -22.586  0.00  0.00    -0.150 OA
ENDROOT
BRANCH   1  11
ATOM      4  N   UNL     1      32.457  -7.005 -22.126  0.00  0.00    +0.387 N 
ATOM      5  C   UNL     1      33.888  -8.810 -23.802  0.00  0.00    -0.030 C 
ATOM      6  C   UNL     1      32.813  -9.296 -23.038  0.00  0.00    -0.046 C 
ATOM      7  C   UNL     1      34.181  -7.332 -23.845  0.00  0.00    +0.003 C 
ATOM      8  C   UNL     1      31.885  -8.342 -22.326  0.00  0.00    -0.055 C 
ATOM      9  C   UNL     1      32.993  -6.484 -23.383  0.00  0.00    -0.077 C 
ATOM     10  C   UNL     1      32.569 -10.675 -22.990  0.00  0.00    +0.014 C 
ATOM     11  C   UNL     1      33.400 -11.563 -23.672  0.00  0.00    +0.125 C 
ATOM     12  C   UNL     1      34.725  -9.711 -24.474  0.00  0.00    -0.003 C 
ATOM     13  C   UNL     1      34.478 -11.082 -24.411  0.00  0.00    +0.020 C 
ATOM     14  H   UNL     1      33.210  -7.062 -21.439  0.00  0.00    -0.084 HD
ATOM     15  H   UNL     1      31.725  -6.379 -21.795  0.00  0.00    -0.084 HD
ENDBRANCH   1  11
BRANCH   1  16
ATOM     16  N   UNL     1      34.597 -13.920 -23.068  0.00  0.00    -0.215 N 
ATOM     17  H   UNL     1      35.388 -13.341 -22.974  0.00  0.00    +0.174 HD
BRANCH  16  19
ATOM     18 CL   UNL     1      34.891 -19.717 -21.813  0.00  0.00    -0.082 Cl
ATOM     19  C   UNL     1      34.668 -15.324 -22.764  0.00  0.00    +0.065 C 
ATOM     20  C   UNL     1      34.521 -15.751 -21.450  0.00  0.00    +0.017 C 
ATOM     21  C   UNL     1      34.882 -16.239 -23.788  0.00  0.00    +0.017 C 
ATOM     22  C   UNL     1      34.591 -17.113 -21.155  0.00  0.00    +0.013 C 
ATOM     23  C   UNL     1      34.951 -17.601 -23.494  0.00  0.00    +0.013 C 
ATOM     24  C   UNL     1      34.805 -18.037 -22.177  0.00  0.00    +0.058 C 
ENDBRANCH  16  19
ENDBRANCH   1  16
TORSDOF 3
ENDMDL
MODEL 4
REMARK VINA RESULT:      -9.6      3.542      7.500
REMARK  Name = 12606920
REMARK  3 active torsions:
REMARK  status: ('A' for Active; 'I' for Inactive)
REMARK    1  A    between atoms: S_1  and  C_11
REMARK    2  A    between atoms: S_1  and  N_16
REMARK    3  A    between atoms: N_16  and  C_19
REMARK                            x       y       z     vdW  Elec       q    Type
REMARK                         _______ _______ _______ _____ _____    ______ ____
ROOT
ATOM      1  S   UNL     1      35.164 -18.139 -22.669  0.00  0.00    +0.074 S 
ATOM      2  O   UNL     1      34.072 -17.832 -23.584  0.00  0.00    -0.150 OA
ATOM      3  O   UNL     1      36.417 -18.646 -23.215  0.00  0.00    -0.150 OA
ENDROOT
BRANCH   1  11
ATOM      4  N   UNL     1      35.379 -22.364 -17.764  0.00  0.00    +0.387 N 
ATOM      5  C   UNL     1      33.605 -21.129 -19.620  0.00  0.00    -0.030 C 
ATOM      6  C   UNL     1      34.990 -20.936 -19.769  0.00  0.00    -0.046 C 
ATOM      7  C   UNL     1      33.081 -22.093 -18.586  0.00  0.00    +0.003 C 
ATOM      8  C   UNL     1      35.968 -21.755 -18.963  0.00  0.00    -0.055 C 
ATOM      9  C   UNL     1      34.148 -23.078 -18.105  0.00  0.00    -0.077 C 
ATOM     10  C   UNL     1      35.461 -20.020 -20.718  0.00  0.00    +0.014 C 
ATOM     11  C   UNL     1      34.565 -19.284 -21.493  0.00  0.00    +0.125 C 
ATOM     12  C   UNL     1      32.713 -20.376 -20.394  0.00  0.00    -0.003 C 
ATOM     13  C   UNL     1      33.193 -19.459 -21.329  0.00  0.00    +0.020 C 
ATOM     14  H   UNL     1      35.164 -21.632 -17.086  0.00  0.00    -0.084 HD
ATOM     15  H   UNL     1      36.045 -23.026 -17.368  0.00  0.00    -0.084 HD
ENDBRANCH   1  11
BRANCH   1  16
ATOM     16  N   UNL     1      35.475 -16.739 -21.716  0.00  0.00    -0.215 N 
ATOM     17  H   UNL     1      36.287 -16.672 -21.163  0.00  0.00    +0.174 HD
BRANCH  16  19
ATOM     18 CL   UNL     1      31.509 -12.321 -21.863  0.00  0.00    -0.082 Cl
ATOM     19  C   UNL     1      34.514 -15.668 -21.752  0.00  0.00    +0.065 C 
ATOM     20  C   UNL     1      33.577 -15.552 -20.733  0.00  0.00    +0.017 C 
ATOM     21  C   UNL     1      34.535 -14.762 -22.805  0.00  0.00    +0.017 C 
ATOM     22  C   UNL     1      32.645 -14.515 -20.768  0.00  0.00    +0.013 C 
ATOM     23  C   UNL     1      33.603 -13.724 -22.840  0.00  0.00    +0.013 C 
ATOM     24  C   UNL     1      32.659 -13.600 -21.821  0.00  0.00    +0.058 C 
ENDBRANCH  16  19
ENDBRANCH   1  16
TORSDOF 3
ENDMDL
MODEL 5
REMARK VINA RESULT:      -9.5      1.599      2.557
REMARK  Name = 12606920
REMARK  3 active torsions:
REMARK  status: ('A' for Active; 'I' for Inactive)
REMARK    1  A    between atoms: S_1  and  C_11
REMARK    2  A    between atoms: S_1  and  N_16
REMARK    3  A    between atoms: N_16  and  C_19
REMARK                            x       y       z     vdW  Elec       q    Type
REMARK                         _______ _______ _______ _____ _____    ______ ____
ROOT
ATOM      1  S   UNL     1      35.393 -17.973 -21.839  0.00  0.00    +0.074 S 
ATOM      2  O   UNL     1      36.037 -18.091 -20.538  0.00  0.00    -0.150 OA
ATOM      3  O   UNL     1      36.226 -17.946 -23.036  0.00  0.00    -0.150 OA
ENDROOT
BRANCH   1  11
ATOM      4  N   UNL     1      32.906 -12.372 -23.938  0.00  0.00    +0.387 N 
ATOM      5  C   UNL     1      32.836 -14.214 -21.766  0.00  0.00    -0.030 C 
ATOM      6  C   UNL     1      33.796 -14.391 -22.779  0.00  0.00    -0.046 C 
ATOM      7  C   UNL     1      31.961 -12.988 -21.756  0.00  0.00    +0.003 C 
ATOM      8  C   UNL     1      34.024 -13.316 -23.813  0.00  0.00    -0.055 C 
ATOM      9  C   UNL     1      32.522 -11.858 -22.624  0.00  0.00    -0.077 C 
ATOM     10  C   UNL     1      34.586 -15.547 -22.787  0.00  0.00    +0.014 C 
ATOM     11  C   UNL     1      34.407 -16.531 -21.815  0.00  0.00    +0.125 C 
ATOM     12  C   UNL     1      32.656 -15.214 -20.801  0.00  0.00    -0.003 C 
ATOM     13  C   UNL     1      33.441 -16.366 -20.825  0.00  0.00    +0.020 C 
ATOM     14  H   UNL     1      32.108 -12.851 -24.357  0.00  0.00    -0.084 HD
ATOM     15  H   UNL     1      33.196 -11.592 -24.525  0.00  0.00    -0.084 HD
ENDBRANCH   1  11
BRANCH   1  16
ATOM     16  N   UNL     1      34.227 -19.232 -21.977  0.00  0.00    -0.215 N 
ATOM     17  H   UNL     1      33.640 -19.296 -22.765  0.00  0.00    +0.174 HD
BRANCH  16  19
ATOM     18 CL   UNL     1      33.848 -23.186 -17.562  0.00  0.00    -0.082 Cl
ATOM     19  C   UNL     1      34.135 -20.190 -20.907  0.00  0.00    +0.065 C 
ATOM     20  C   UNL     1      35.266 -20.897 -20.520  0.00  0.00    +0.017 C 
ATOM     21  C   UNL     1      32.916 -20.397 -20.273  0.00  0.00    +0.017 C 
ATOM     22  C   UNL     1      35.177 -21.826 -19.483  0.00  0.00    +0.013 C 
ATOM     23  C   UNL     1      32.827 -21.325 -19.236  0.00  0.00    +0.013 C 
ATOM     24  C   UNL     1      33.957 -22.039 -18.841  0.00  0.00    +0.058 C 
ENDBRANCH  16  19
ENDBRANCH   1  16
TORSDOF 3
ENDMDL
MODEL 6
REMARK VINA RESULT:      -9.5      1.683      2.456
REMARK  Name = 12606920
REMARK  3 active torsions:
REMARK  status: ('A' for Active; 'I' for Inactive)
REMARK    1  A    between atoms: S_1  and  C_11
REMARK    2  A    between atoms: S_1  and  N_16
REMARK    3  A    between atoms: N_16  and  C_19
REMARK                            x       y       z     vdW  Elec       q    Type
REMARK                         _______ _______ _______ _____ _____    ______ ____
ROOT
ATOM      1  S   UNL     1      35.542 -18.092 -21.849  0.00  0.00    +0.074 S 
ATOM      2  O   UNL     1      36.033 -18.034 -20.478  0.00  0.00    -0.150 OA
ATOM      3  O   UNL     1      36.482 -18.396 -22.920  0.00  0.00    -0.150 OA
ENDROOT
BRANCH   1  11
ATOM      4  N   UNL     1      32.234 -12.641 -20.711  0.00  0.00    +0.387 N 
ATOM      5  C   UNL     1      33.517 -14.128 -22.773  0.00  0.00    -0.030 C 
ATOM      6  C   UNL     1      33.366 -14.714 -21.504  0.00  0.00    -0.046 C 
ATOM      7  C   UNL     1      32.878 -12.797 -23.075  0.00  0.00    +0.003 C 
ATOM      8  C   UNL     1      32.491 -14.064 -20.460  0.00  0.00    -0.055 C 
ATOM      9  C   UNL     1      31.769 -12.438 -22.083  0.00  0.00    -0.077 C 
ATOM     10  C   UNL     1      33.986 -15.940 -21.231  0.00  0.00    +0.014 C 
ATOM     11  C   UNL     1      34.769 -16.566 -22.201  0.00  0.00    +0.125 C 
ATOM     12  C   UNL     1      34.315 -14.759 -23.737  0.00  0.00    -0.003 C 
ATOM     13  C   UNL     1      34.935 -15.974 -23.452  0.00  0.00    +0.020 C 
ATOM     14  H   UNL     1      33.096 -12.114 -20.567  0.00  0.00    -0.084 HD
ATOM     15  H   UNL     1      31.513 -12.317 -20.067  0.00  0.00    -0.084 HD
ENDBRANCH   1  11
BRANCH   1  16
ATOM     16  N   UNL     1      34.230 -19.206 -21.900  0.00  0.00    -0.215 N 
ATOM     17  H   UNL     1      33.566 -19.174 -22.627  0.00  0.00    +0.174 HD
BRANCH  16  19
ATOM     18 CL   UNL     1      33.826 -23.253 -17.572  0.00  0.00    -0.082 Cl
ATOM     19  C   UNL     1      34.132 -20.186 -20.852  0.00  0.00    +0.065 C 
ATOM     20  C   UNL     1      35.260 -20.903 -20.474  0.00  0.00    +0.017 C 
ATOM     21  C   UNL     1      32.909 -20.405 -20.228  0.00  0.00    +0.017 C 
ATOM     22  C   UNL     1      35.165 -21.854 -19.457  0.00  0.00    +0.013 C 
ATOM     23  C   UNL     1      32.814 -21.356 -19.211  0.00  0.00    +0.013 C 
ATOM     24  C   UNL     1      33.942 -22.079 -18.826  0.00  0.00    +0.058 C 
ENDBRANCH  16  19
ENDBRANCH   1  16
TORSDOF 3
ENDMDL
MODEL 7
REMARK VINA RESULT:      -9.4      3.917      7.770
REMARK  Name = 12606920
REMARK  3 active torsions:
REMARK  status: ('A' for Active; 'I' for Inactive)
REMARK    1  A    between atoms: S_1  and  C_11
REMARK    2  A    between atoms: S_1  and  N_16
REMARK    3  A    between atoms: N_16  and  C_19
REMARK                            x       y       z     vdW  Elec       q    Type
REMARK                         _______ _______ _______ _____ _____    ______ ____
ROOT
ATOM      1  S   UNL     1      34.471 -16.666 -22.461  0.00  0.00    +0.074 S 
ATOM      2  O   UNL     1      34.175 -17.023 -23.842  0.00  0.00    -0.150 OA
ATOM      3  O   UNL     1      35.538 -15.709 -22.196  0.00  0.00    -0.150 OA
ENDROOT
BRANCH   1  11
ATOM      4  N   UNL     1      33.287 -22.334 -19.558  0.00  0.00    +0.387 N 
ATOM      5  C   UNL     1      35.372 -20.497 -20.186  0.00  0.00    -0.030 C 
ATOM      6  C   UNL     1      34.039 -20.125 -20.434  0.00  0.00    -0.046 C 
ATOM      7  C   UNL     1      35.678 -21.784 -19.463  0.00  0.00    +0.003 C 
ATOM      8  C   UNL     1      32.899 -20.960 -19.902  0.00  0.00    -0.055 C 
ATOM      9  C   UNL     1      34.470 -22.331 -18.699  0.00  0.00    -0.077 C 
ATOM     10  C   UNL     1      33.771 -18.938 -21.127  0.00  0.00    +0.014 C 
ATOM     11  C   UNL     1      34.817 -18.141 -21.592  0.00  0.00    +0.125 C 
ATOM     12  C   UNL     1      36.416 -19.696 -20.667  0.00  0.00    -0.003 C 
ATOM     13  C   UNL     1      36.137 -18.522 -21.365  0.00  0.00    +0.020 C 
ATOM     14  H   UNL     1      33.495 -22.848 -20.415  0.00  0.00    -0.084 HD
ATOM     15  H   UNL     1      32.518 -22.778 -19.058  0.00  0.00    -0.084 HD
ENDBRANCH   1  11
BRANCH   1  16
ATOM     16  N   UNL     1      33.013 -16.121 -21.724  0.00  0.00    -0.215 N 
ATOM     17  H   UNL     1      32.417 -16.749 -21.253  0.00  0.00    +0.174 HD
BRANCH  16  19
ATOM     18 CL   UNL     1      31.678 -10.346 -22.102  0.00  0.00    -0.082 Cl
ATOM     19  C   UNL     1      32.689 -14.722 -21.815  0.00  0.00    +0.065 C 
ATOM     20  C   UNL     1      32.653 -14.105 -23.060  0.00  0.00    +0.017 C 
ATOM     21  C   UNL     1      32.416 -14.003 -20.658  0.00  0.00    +0.017 C 
ATOM     22  C   UNL     1      32.340 -12.749 -23.148  0.00  0.00    +0.013 C 
ATOM     23  C   UNL     1      32.102 -12.646 -20.746  0.00  0.00    +0.013 C 
ATOM     24  C   UNL     1      32.064 -12.020 -21.992  0.00  0.00    +0.058 C 
ENDBRANCH  16  19
ENDBRANCH   1  16
TORSDOF 3
ENDMDL
MODEL 8
REMARK VINA RESULT:      -9.4      1.920      2.883
REMARK  Name = 12606920
REMARK  3 active torsions:
REMARK  status: ('A' for Active; 'I' for Inactive)
REMARK    1  A    between atoms: S_1  and  C_11
REMARK    2  A    between atoms: S_1  and  N_16
REMARK    3  A    between atoms: N_16  and  C_19
REMARK                            x       y       z     vdW  Elec       q    Type
REMARK                         _______ _______ _______ _____ _____    ______ ____
ROOT
ATOM      1  S   UNL     1      33.863 -16.186 -21.240  0.00  0.00    +0.074 S 
ATOM      2  O   UNL     1      32.537 -16.302 -20.647  0.00  0.00    -0.150 OA
ATOM      3  O   UNL     1      34.983 -15.807 -20.388  0.00  0.00    -0.150 OA
ENDROOT
BRANCH   1  11
ATOM      4  N   UNL     1      32.747 -14.076 -27.261  0.00  0.00    +0.387 N 
ATOM      5  C   UNL     1      33.604 -13.227 -24.681  0.00  0.00    -0.030 C 
ATOM      6  C   UNL     1      33.428 -14.600 -24.923  0.00  0.00    -0.046 C 
ATOM      7  C   UNL     1      33.484 -12.236 -25.811  0.00  0.00    +0.003 C 
ATOM      8  C   UNL     1      33.209 -15.109 -26.327  0.00  0.00    -0.055 C 
ATOM      9  C   UNL     1      33.608 -12.896 -27.187  0.00  0.00    -0.077 C 
ATOM     10  C   UNL     1      33.520 -15.506 -23.858  0.00  0.00    +0.014 C 
ATOM     11  C   UNL     1      33.757 -15.049 -22.562  0.00  0.00    +0.125 C 
ATOM     12  C   UNL     1      33.831 -12.776 -23.374  0.00  0.00    -0.003 C 
ATOM     13  C   UNL     1      33.909 -13.685 -22.320  0.00  0.00    +0.020 C 
ATOM     14  H   UNL     1      31.791 -13.809 -27.021  0.00  0.00    -0.084 HD
ATOM     15  H   UNL     1      32.780 -14.449 -28.209  0.00  0.00    -0.084 HD
ENDBRANCH   1  11
BRANCH   1  16
ATOM     16  N   UNL     1      34.223 -17.669 -22.040  0.00  0.00    -0.215 N 
ATOM     17  H   UNL     1      34.410 -17.691 -23.007  0.00  0.00    +0.174 HD
BRANCH  16  19
ATOM     18 CL   UNL     1      34.311 -22.645 -18.799  0.00  0.00    -0.082 Cl
ATOM     19  C   UNL     1      34.245 -18.874 -21.254  0.00  0.00    +0.065 C 
ATOM     20  C   UNL     1      35.462 -19.452 -20.917  0.00  0.00    +0.017 C 
ATOM     21  C   UNL     1      33.047 -19.446 -20.842  0.00  0.00    +0.017 C 
ATOM     22  C   UNL     1      35.482 -20.621 -20.156  0.00  0.00    +0.013 C 
ATOM     23  C   UNL     1      33.068 -20.615 -20.080  0.00  0.00    +0.013 C 
ATOM     24  C   UNL     1      34.285 -21.202 -19.737  0.00  0.00    +0.058 C 
ENDBRANCH  16  19
ENDBRANCH   1  16
TORSDOF 3
ENDMDL
MODEL 9
REMARK VINA RESULT:      -9.4      4.795      9.752
REMARK  Name = 12606920
REMARK  3 active torsions:
REMARK  status: ('A' for Active; 'I' for Inactive)
REMARK    1  A    between atoms: S_1  and  C_11
REMARK    2  A    between atoms: S_1  and  N_16
REMARK    3  A    between atoms: N_16  and  C_19
REMARK                            x       y       z     vdW  Elec       q    Type
REMARK                         _______ _______ _______ _____ _____    ______ ____
ROOT
ATOM      1  S   UNL     1      33.906 -22.563 -18.780  0.00  0.00    +0.074 S 
ATOM      2  O   UNL     1      32.792 -21.633 -18.916  0.00  0.00    -0.150 OA
ATOM      3  O   UNL     1      33.912 -23.776 -19.589  0.00  0.00    -0.150 OA
ENDROOT
BRANCH   1  11
ATOM      4  N   UNL     1      36.601 -23.319 -12.939  0.00  0.00    +0.387 N 
ATOM      5  C   UNL     1      34.198 -23.757 -14.403  0.00  0.00    -0.030 C 
ATOM      6  C   UNL     1      35.346 -23.328 -15.091  0.00  0.00    -0.046 C 
ATOM      7  C   UNL     1      34.280 -24.121 -12.943  0.00  0.00    +0.003 C 
ATOM      8  C   UNL     1      36.690 -23.313 -14.404  0.00  0.00    -0.055 C 
ATOM      9  C   UNL     1      35.715 -24.390 -12.484  0.00  0.00    -0.077 C 
ATOM     10  C   UNL     1      35.248 -22.972 -16.442  0.00  0.00    +0.014 C 
ATOM     11  C   UNL     1      34.017 -23.016 -17.096  0.00  0.00    +0.125 C 
ATOM     12  C   UNL     1      32.963 -23.787 -15.065  0.00  0.00    -0.003 C 
ATOM     13  C   UNL     1      32.876 -23.420 -16.408  0.00  0.00    +0.020 C 
ATOM     14  H   UNL     1      36.233 -22.422 -12.621  0.00  0.00    -0.084 HD
ATOM     15  H   UNL     1      37.531 -23.474 -12.552  0.00  0.00    -0.084 HD
ENDBRANCH   1  11
BRANCH   1  16
ATOM     16  N   UNL     1      35.368 -21.690 -19.038  0.00  0.00    -0.215 N 
ATOM     17  H   UNL     1      36.185 -21.909 -18.534  0.00  0.00    +0.174 HD
BRANCH  16  19
ATOM     18 CL   UNL     1      35.342 -17.322 -23.062  0.00  0.00    -0.082 Cl
ATOM     19  C   UNL     1      35.361 -20.632 -20.013  0.00  0.00    +0.065 C 
ATOM     20  C   UNL     1      36.539 -19.952 -20.295  0.00  0.00    +0.017 C 
ATOM     21  C   UNL     1      34.177 -20.303 -20.662  0.00  0.00    +0.017 C 
ATOM     22  C   UNL     1      36.533 -18.925 -21.240  0.00  0.00    +0.013 C 
ATOM     23  C   UNL     1      34.171 -19.277 -21.608  0.00  0.00    +0.013 C 
ATOM     24  C   UNL     1      35.349 -18.589 -21.897  0.00  0.00    +0.058 C 
ENDBRANCH  16  19
ENDBRANCH   1  16
TORSDOF 3
ENDMDL
