MODEL 1
REMARK VINA RESULT:      -9.4      0.000      0.000
REMARK  Name = 128564
REMARK  11 active torsions:
REMARK  status: ('A' for Active; 'I' for Inactive)
REMARK    1  A    between atoms: N_2  and  C_17
REMARK    2  A    between atoms: C_3  and  C_5
REMARK    3  A    between atoms: C_5  and  C_6
REMARK    4  A    between atoms: C_5  and  C_10
REMARK    5  A    between atoms: C_6  and  C_7
REMARK    6  A    between atoms: C_10  and  C_13
REMARK    7  A    between atoms: N_12  and  O_15
REMARK    8  A    between atoms: C_17  and  C_20
REMARK    9  A    between atoms: C_17  and  C_23
REMARK   10  A    between atoms: C_23  and  C_24
REMARK   11  A    between atoms: C_29  and  O_30
REMARK                            x       y       z     vdW  Elec       q    Type
REMARK                         _______ _______ _______ _____ _____    ______ ____
ROOT
ATOM      1  O   UNL     1      35.746 -22.153 -15.765  0.00  0.00    -0.275 OA
ATOM      2  N   UNL     1      33.906 -23.560 -15.884  0.00  0.00    -0.298 N 
ATOM      3  C   UNL     1      35.145 -23.166 -15.407  0.00  0.00    +0.223 C 
ATOM      4  H   UNL     1      33.507 -24.389 -15.535  0.00  0.00    +0.150 HD
ENDROOT
BRANCH   3   5
ATOM      5  C   UNL     1      35.741 -24.107 -14.361  0.00  0.00    +0.086 C 
BRANCH   5   6
ATOM      6  C   UNL     1      36.101 -25.487 -14.951  0.00  0.00    +0.010 C 
BRANCH   6   7
ATOM      7  C   UNL     1      37.524 -25.987 -14.624  0.00  0.00    +0.000 C 
ATOM      8  C   UNL     1      37.623 -26.599 -13.226  0.00  0.00    +0.000 C 
ATOM      9  C   UNL     1      38.518 -24.828 -14.749  0.00  0.00    +0.000 C 
ENDBRANCH   6   7
ENDBRANCH   5   6
BRANCH   5  10
ATOM     10  C   UNL     1      34.780 -24.248 -13.168  0.00  0.00    +0.096 C 
BRANCH  10  13
ATOM     11  O   UNL     1      35.247 -24.927 -10.913  0.00  0.00    -0.273 OA
ATOM     12  N   UNL     1      36.461 -23.177 -11.814  0.00  0.00    -0.197 N 
ATOM     13  C   UNL     1      35.514 -24.170 -11.844  0.00  0.00    +0.245 C 
ATOM     14  H   UNL     1      36.635 -22.598 -12.591  0.00  0.00    +0.182 HD
BRANCH  12  15
ATOM     15  O   UNL     1      37.165 -23.040 -10.610  0.00  0.00    -0.295 OA
ATOM     16  H   UNL     1      37.800 -23.768 -10.523  0.00  0.00    +0.241 HD
ENDBRANCH  12  15
ENDBRANCH  10  13
ENDBRANCH   5  10
ENDBRANCH   3   5
BRANCH   2  17
ATOM     17  C   UNL     1      33.179 -22.802 -16.874  0.00  0.00    +0.153 C 
BRANCH  17  20
ATOM     18  O   UNL     1      30.810 -22.454 -17.247  0.00  0.00    -0.273 OA
ATOM     19  N   UNL     1      31.477 -23.964 -15.613  0.00  0.00    -0.301 N 
ATOM     20  C   UNL     1      31.694 -23.023 -16.609  0.00  0.00    +0.241 C 
ATOM     21  C   UNL     1      30.161 -24.394 -15.201  0.00  0.00    +0.111 C 
ATOM     22  H   UNL     1      32.260 -24.358 -15.165  0.00  0.00    +0.150 HD
ENDBRANCH  17  20
BRANCH  17  23
ATOM     23  C   UNL     1      33.534 -23.225 -18.304  0.00  0.00    +0.055 C 
BRANCH  23  24
ATOM     24  C   UNL     1      34.082 -22.086 -19.130  0.00  0.00    -0.020 C 
ATOM     25  C   UNL     1      35.461 -21.915 -19.255  0.00  0.00    -0.001 C 
ATOM     26  C   UNL     1      33.209 -21.207 -19.770  0.00  0.00    -0.001 C 
ATOM     27  C   UNL     1      35.967 -20.863 -20.019  0.00  0.00    +0.037 C 
ATOM     28  C   UNL     1      33.715 -20.155 -20.534  0.00  0.00    +0.037 C 
ATOM     29  C   UNL     1      35.094 -19.983 -20.659  0.00  0.00    +0.139 C 
BRANCH  29  30
ATOM     30  O   UNL     1      35.587 -18.958 -21.405  0.00  0.00    -0.471 OA
ATOM     31  C   UNL     1      35.087 -17.652 -21.125  0.00  0.00    +0.252 C 
ENDBRANCH  29  30
ENDBRANCH  23  24
ENDBRANCH  17  23
ENDBRANCH   2  17
TORSDOF 11
ENDMDL
MODEL 2
REMARK VINA RESULT:      -9.3      2.252      2.995
REMARK  Name = 128564
REMARK  11 active torsions:
REMARK  status: ('A' for Active; 'I' for Inactive)
REMARK    1  A    between atoms: N_2  and  C_17
REMARK    2  A    between atoms: C_3  and  C_5
REMARK    3  A    between atoms: C_5  and  C_6
REMARK    4  A    between atoms: C_5  and  C_10
REMARK    5  A    between atoms: C_6  and  C_7
REMARK    6  A    between atoms: C_10  and  C_13
REMARK    7  A    between atoms: N_12  and  O_15
REMARK    8  A    between atoms: C_17  and  C_20
REMARK    9  A    between atoms: C_17  and  C_23
REMARK   10  A    between atoms: C_23  and  C_24
REMARK   11  A    between atoms: C_29  and  O_30
REMARK                            x       y       z     vdW  Elec       q    Type
REMARK                         _______ _______ _______ _____ _____    ______ ____
ROOT
ATOM      1  O   UNL     1      36.698 -22.611 -15.873  0.00  0.00    -0.275 OA
ATOM      2  N   UNL     1      34.817 -23.965 -15.838  0.00  0.00    -0.298 N 
ATOM      3  C   UNL     1      36.144 -23.669 -15.576  0.00  0.00    +0.223 C 
ATOM      4  H   UNL     1      34.464 -24.842 -15.561  0.00  0.00    +0.150 HD
ENDROOT
BRANCH   3   5
ATOM      5  C   UNL     1      36.906 -24.785 -14.864  0.00  0.00    +0.086 C 
BRANCH   5   6
ATOM      6  C   UNL     1      36.466 -24.950 -13.394  0.00  0.00    +0.010 C 
BRANCH   6   7
ATOM      7  C   UNL     1      36.220 -23.629 -12.633  0.00  0.00    +0.000 C 
ATOM      8  C   UNL     1      37.499 -23.065 -12.013  0.00  0.00    +0.000 C 
ATOM      9  C   UNL     1      35.173 -23.853 -11.539  0.00  0.00    +0.000 C 
ENDBRANCH   6   7
ENDBRANCH   5   6
BRANCH   5  10
ATOM     10  C   UNL     1      38.421 -24.537 -14.964  0.00  0.00    +0.096 C 
BRANCH  10  13
ATOM     11  O   UNL     1      38.712 -26.919 -14.889  0.00  0.00    -0.273 OA
ATOM     12  N   UNL     1      40.503 -25.568 -14.325  0.00  0.00    -0.197 N 
ATOM     13  C   UNL     1      39.215 -25.808 -14.732  0.00  0.00    +0.245 C 
ATOM     14  H   UNL     1      40.854 -24.655 -14.215  0.00  0.00    +0.182 HD
BRANCH  12  15
ATOM     15  O   UNL     1      41.286 -26.703 -14.076  0.00  0.00    -0.295 OA
ATOM     16  H   UNL     1      40.911 -27.197 -13.330  0.00  0.00    +0.241 HD
ENDBRANCH  12  15
ENDBRANCH  10  13
ENDBRANCH   5  10
ENDBRANCH   3   5
BRANCH   2  17
ATOM     17  C   UNL     1      33.930 -23.039 -16.501  0.00  0.00    +0.153 C 
BRANCH  17  20
ATOM     18  O   UNL     1      31.516 -23.221 -16.387  0.00  0.00    -0.273 OA
ATOM     19  N   UNL     1      32.725 -23.097 -14.408  0.00  0.00    -0.301 N 
ATOM     20  C   UNL     1      32.584 -23.114 -15.788  0.00  0.00    +0.241 C 
ATOM     21  C   UNL     1      31.610 -23.205 -13.496  0.00  0.00    +0.111 C 
ATOM     22  H   UNL     1      33.631 -23.007 -14.031  0.00  0.00    +0.150 HD
ENDBRANCH  17  20
BRANCH  17  23
ATOM     23  C   UNL     1      33.764 -23.360 -17.990  0.00  0.00    +0.055 C 
BRANCH  23  24
ATOM     24  C   UNL     1      34.202 -22.226 -18.884  0.00  0.00    -0.020 C 
ATOM     25  C   UNL     1      33.248 -21.445 -19.539  0.00  0.00    -0.001 C 
ATOM     26  C   UNL     1      35.560 -21.957 -19.056  0.00  0.00    -0.001 C 
ATOM     27  C   UNL     1      33.653 -20.396 -20.365  0.00  0.00    +0.037 C 
ATOM     28  C   UNL     1      35.964 -20.909 -19.882  0.00  0.00    +0.037 C 
ATOM     29  C   UNL     1      35.011 -20.128 -20.536  0.00  0.00    +0.139 C 
BRANCH  29  30
ATOM     30  O   UNL     1      35.406 -19.105 -21.342  0.00  0.00    -0.471 OA
ATOM     31  C   UNL     1      34.825 -19.041 -22.643  0.00  0.00    +0.252 C 
ENDBRANCH  29  30
ENDBRANCH  23  24
ENDBRANCH  17  23
ENDBRANCH   2  17
TORSDOF 11
ENDMDL
MODEL 3
REMARK VINA RESULT:      -8.8      9.418     15.417
REMARK  Name = 128564
REMARK  11 active torsions:
REMARK  status: ('A' for Active; 'I' for Inactive)
REMARK    1  A    between atoms: N_2  and  C_17
REMARK    2  A    between atoms: C_3  and  C_5
REMARK    3  A    between atoms: C_5  and  C_6
REMARK    4  A    between atoms: C_5  and  C_10
REMARK    5  A    between atoms: C_6  and  C_7
REMARK    6  A    between atoms: C_10  and  C_13
REMARK    7  A    between atoms: N_12  and  O_15
REMARK    8  A    between atoms: C_17  and  C_20
REMARK    9  A    between atoms: C_17  and  C_23
REMARK   10  A    between atoms: C_23  and  C_24
REMARK   11  A    between atoms: C_29  and  O_30
REMARK                            x       y       z     vdW  Elec       q    Type
REMARK                         _______ _______ _______ _____ _____    ______ ____
ROOT
ATOM      1  O   UNL     1      35.380  -9.438 -23.936  0.00  0.00    -0.275 OA
ATOM      2  N   UNL     1      33.294 -10.447 -23.845  0.00  0.00    -0.298 N 
ATOM      3  C   UNL     1      34.159  -9.366 -23.801  0.00  0.00    +0.223 C 
ATOM      4  H   UNL     1      32.330 -10.286 -23.725  0.00  0.00    +0.150 HD
ENDROOT
BRANCH   3   5
ATOM      5  C   UNL     1      33.470  -8.022 -23.566  0.00  0.00    +0.086 C 
BRANCH   5   6
ATOM      6  C   UNL     1      34.010  -6.916 -24.496  0.00  0.00    +0.010 C 
BRANCH   6   7
ATOM      7  C   UNL     1      33.019  -5.771 -24.795  0.00  0.00    +0.000 C 
ATOM      8  C   UNL     1      31.561  -6.208 -24.654  0.00  0.00    +0.000 C 
ATOM      9  C   UNL     1      33.261  -5.237 -26.210  0.00  0.00    +0.000 C 
ENDBRANCH   6   7
ENDBRANCH   5   6
BRANCH   5  10
ATOM     10  C   UNL     1      33.598  -7.614 -22.088  0.00  0.00    +0.096 C 
BRANCH  10  13
ATOM     11  O   UNL     1      31.561  -8.831 -21.726  0.00  0.00    -0.273 OA
ATOM     12  N   UNL     1      32.796  -8.170 -19.885  0.00  0.00    -0.197 N 
ATOM     13  C   UNL     1      32.540  -8.278 -21.229  0.00  0.00    +0.245 C 
ATOM     14  H   UNL     1      33.598  -7.715 -19.542  0.00  0.00    +0.182 HD
BRANCH  12  15
ATOM     15  O   UNL     1      31.845  -8.748 -19.034  0.00  0.00    -0.295 OA
ATOM     16  H   UNL     1      30.974  -8.360 -19.213  0.00  0.00    +0.241 HD
ENDBRANCH  12  15
ENDBRANCH  10  13
ENDBRANCH   5  10
ENDBRANCH   3   5
BRANCH   2  17
ATOM     17  C   UNL     1      33.752 -11.799 -24.061  0.00  0.00    +0.153 C 
BRANCH  17  20
ATOM     18  O   UNL     1      34.684 -11.248 -26.229  0.00  0.00    -0.273 OA
ATOM     19  N   UNL     1      33.247 -13.064 -26.055  0.00  0.00    -0.301 N 
ATOM     20  C   UNL     1      33.949 -11.974 -25.563  0.00  0.00    +0.241 C 
ATOM     21  C   UNL     1      33.298 -13.482 -27.438  0.00  0.00    +0.111 C 
ATOM     22  H   UNL     1      32.685 -13.579 -25.432  0.00  0.00    +0.150 HD
ENDBRANCH  17  20
BRANCH  17  23
ATOM     23  C   UNL     1      32.759 -12.838 -23.528  0.00  0.00    +0.055 C 
BRANCH  23  24
ATOM     24  C   UNL     1      33.427 -13.920 -22.716  0.00  0.00    -0.020 C 
ATOM     25  C   UNL     1      33.177 -14.020 -21.347  0.00  0.00    -0.001 C 
ATOM     26  C   UNL     1      34.294 -14.822 -23.334  0.00  0.00    -0.001 C 
ATOM     27  C   UNL     1      33.795 -15.021 -20.596  0.00  0.00    +0.037 C 
ATOM     28  C   UNL     1      34.911 -15.823 -22.584  0.00  0.00    +0.037 C 
ATOM     29  C   UNL     1      34.661 -15.922 -21.215  0.00  0.00    +0.139 C 
BRANCH  29  30
ATOM     30  O   UNL     1      35.263 -16.899 -20.483  0.00  0.00    -0.471 OA
ATOM     31  C   UNL     1      35.597 -18.108 -21.162  0.00  0.00    +0.252 C 
ENDBRANCH  29  30
ENDBRANCH  23  24
ENDBRANCH  17  23
ENDBRANCH   2  17
TORSDOF 11
ENDMDL
MODEL 4
REMARK VINA RESULT:      -8.6      3.135      5.704
REMARK  Name = 128564
REMARK  11 active torsions:
REMARK  status: ('A' for Active; 'I' for Inactive)
REMARK    1  A    between atoms: N_2  and  C_17
REMARK    2  A    between atoms: C_3  and  C_5
REMARK    3  A    between atoms: C_5  and  C_6
REMARK    4  A    between atoms: C_5  and  C_10
REMARK    5  A    between atoms: C_6  and  C_7
REMARK    6  A    between atoms: C_10  and  C_13
REMARK    7  A    between atoms: N_12  and  O_15
REMARK    8  A    between atoms: C_17  and  C_20
REMARK    9  A    between atoms: C_17  and  C_23
REMARK   10  A    between atoms: C_23  and  C_24
REMARK   11  A    between atoms: C_29  and  O_30
REMARK                            x       y       z     vdW  Elec       q    Type
REMARK                         _______ _______ _______ _____ _____    ______ ____
ROOT
ATOM      1  O   UNL     1      35.928 -26.648 -15.707  0.00  0.00    -0.275 OA
ATOM      2  N   UNL     1      35.996 -24.438 -15.011  0.00  0.00    -0.298 N 
ATOM      3  C   UNL     1      36.470 -25.737 -15.083  0.00  0.00    +0.223 C 
ATOM      4  H   UNL     1      36.503 -23.778 -14.484  0.00  0.00    +0.150 HD
ENDROOT
BRANCH   3   5
ATOM      5  C   UNL     1      37.765 -25.975 -14.307  0.00  0.00    +0.086 C 
BRANCH   5   6
ATOM      6  C   UNL     1      37.579 -25.792 -12.786  0.00  0.00    +0.010 C 
BRANCH   6   7
ATOM      7  C   UNL     1      37.001 -24.426 -12.358  0.00  0.00    +0.000 C 
ATOM      8  C   UNL     1      38.047 -23.532 -11.691  0.00  0.00    +0.000 C 
ATOM      9  C   UNL     1      35.824 -24.642 -11.403  0.00  0.00    +0.000 C 
ENDBRANCH   6   7
ENDBRANCH   5   6
BRANCH   5  10
ATOM     10  C   UNL     1      38.878 -25.058 -14.843  0.00  0.00    +0.096 C 
BRANCH  10  13
ATOM     11  O   UNL     1      40.985 -24.571 -13.800  0.00  0.00    -0.273 OA
ATOM     12  N   UNL     1      40.503 -26.766 -14.347  0.00  0.00    -0.197 N 
ATOM     13  C   UNL     1      40.232 -25.423 -14.267  0.00  0.00    +0.245 C 
ATOM     14  H   UNL     1      39.862 -27.406 -14.731  0.00  0.00    +0.182 HD
BRANCH  12  15
ATOM     15  O   UNL     1      41.749 -27.168 -13.846  0.00  0.00    -0.295 OA
ATOM     16  H   UNL     1      42.210 -27.697 -14.515  0.00  0.00    +0.241 HD
ENDBRANCH  12  15
ENDBRANCH  10  13
ENDBRANCH   5  10
ENDBRANCH   3   5
BRANCH   2  17
ATOM     17  C   UNL     1      34.789 -24.014 -15.680  0.00  0.00    +0.153 C 
BRANCH  17  20
ATOM     18  O   UNL     1      34.536 -22.894 -17.814  0.00  0.00    -0.273 OA
ATOM     19  N   UNL     1      36.372 -22.378 -16.488  0.00  0.00    -0.301 N 
ATOM     20  C   UNL     1      35.202 -23.058 -16.794  0.00  0.00    +0.241 C 
ATOM     21  C   UNL     1      36.956 -21.377 -17.351  0.00  0.00    +0.111 C 
ATOM     22  H   UNL     1      36.827 -22.587 -15.640  0.00  0.00    +0.150 HD
ENDBRANCH  17  20
BRANCH  17  23
ATOM     23  C   UNL     1      33.808 -23.326 -14.723  0.00  0.00    +0.055 C 
BRANCH  23  24
ATOM     24  C   UNL     1      32.365 -23.575 -15.088  0.00  0.00    -0.020 C 
ATOM     25  C   UNL     1      31.749 -22.798 -16.070  0.00  0.00    -0.001 C 
ATOM     26  C   UNL     1      31.647 -24.584 -14.445  0.00  0.00    -0.001 C 
ATOM     27  C   UNL     1      30.416 -23.029 -16.408  0.00  0.00    +0.037 C 
ATOM     28  C   UNL     1      30.314 -24.814 -14.782  0.00  0.00    +0.037 C 
ATOM     29  C   UNL     1      29.698 -24.037 -15.764  0.00  0.00    +0.139 C 
BRANCH  29  30
ATOM     30  O   UNL     1      28.397 -24.263 -16.093  0.00  0.00    -0.471 OA
ATOM     31  C   UNL     1      27.818 -23.409 -17.078  0.00  0.00    +0.252 C 
ENDBRANCH  29  30
ENDBRANCH  23  24
ENDBRANCH  17  23
ENDBRANCH   2  17
TORSDOF 11
ENDMDL
MODEL 5
REMARK VINA RESULT:      -8.5      2.381      6.770
REMARK  Name = 128564
REMARK  11 active torsions:
REMARK  status: ('A' for Active; 'I' for Inactive)
REMARK    1  A    between atoms: N_2  and  C_17
REMARK    2  A    between atoms: C_3  and  C_5
REMARK    3  A    between atoms: C_5  and  C_6
REMARK    4  A    between atoms: C_5  and  C_10
REMARK    5  A    between atoms: C_6  and  C_7
REMARK    6  A    between atoms: C_10  and  C_13
REMARK    7  A    between atoms: N_12  and  O_15
REMARK    8  A    between atoms: C_17  and  C_20
REMARK    9  A    between atoms: C_17  and  C_23
REMARK   10  A    between atoms: C_23  and  C_24
REMARK   11  A    between atoms: C_29  and  O_30
REMARK                            x       y       z     vdW  Elec       q    Type
REMARK                         _______ _______ _______ _____ _____    ______ ____
ROOT
ATOM      1  O   UNL     1      33.731 -23.978 -19.016  0.00  0.00    -0.275 OA
ATOM      2  N   UNL     1      33.203 -22.671 -17.175  0.00  0.00    -0.298 N 
ATOM      3  C   UNL     1      33.704 -22.886 -18.448  0.00  0.00    +0.223 C 
ATOM      4  H   UNL     1      33.226 -21.758 -16.806  0.00  0.00    +0.150 HD
ENDROOT
BRANCH   3   5
ATOM      5  C   UNL     1      34.240 -21.629 -19.132  0.00  0.00    +0.086 C 
BRANCH   5   6
ATOM      6  C   UNL     1      33.336 -21.161 -20.291  0.00  0.00    +0.010 C 
BRANCH   6   7
ATOM      7  C   UNL     1      33.470 -19.669 -20.664  0.00  0.00    +0.000 C 
ATOM      8  C   UNL     1      32.114 -18.969 -20.771  0.00  0.00    +0.000 C 
ATOM      9  C   UNL     1      34.224 -19.535 -21.989  0.00  0.00    +0.000 C 
ENDBRANCH   6   7
ENDBRANCH   5   6
BRANCH   5  10
ATOM     10  C   UNL     1      35.682 -21.863 -19.613  0.00  0.00    +0.096 C 
BRANCH  10  13
ATOM     11  O   UNL     1      36.996 -19.876 -19.910  0.00  0.00    -0.273 OA
ATOM     12  N   UNL     1      36.977 -20.888 -17.831  0.00  0.00    -0.197 N 
ATOM     13  C   UNL     1      36.615 -20.763 -19.148  0.00  0.00    +0.245 C 
ATOM     14  H   UNL     1      36.641 -21.620 -17.265  0.00  0.00    +0.182 HD
BRANCH  12  15
ATOM     15  O   UNL     1      37.854 -19.910 -17.343  0.00  0.00    -0.295 OA
ATOM     16  H   UNL     1      38.632 -19.857 -17.919  0.00  0.00    +0.241 HD
ENDBRANCH  12  15
ENDBRANCH  10  13
ENDBRANCH   5  10
ENDBRANCH   3   5
BRANCH   2  17
ATOM     17  C   UNL     1      32.649 -23.732 -16.369  0.00  0.00    +0.153 C 
BRANCH  17  20
ATOM     18  O   UNL     1      30.573 -22.604 -16.908  0.00  0.00    -0.273 OA
ATOM     19  N   UNL     1      30.513 -24.451 -15.502  0.00  0.00    -0.301 N 
ATOM     20  C   UNL     1      31.144 -23.503 -16.294  0.00  0.00    +0.241 C 
ATOM     21  C   UNL     1      29.082 -24.493 -15.302  0.00  0.00    +0.111 C 
ATOM     22  H   UNL     1      31.067 -25.130 -15.053  0.00  0.00    +0.150 HD
ENDBRANCH  17  20
BRANCH  17  23
ATOM     23  C   UNL     1      33.254 -23.766 -14.961  0.00  0.00    +0.055 C 
BRANCH  23  24
ATOM     24  C   UNL     1      34.755 -23.927 -14.974  0.00  0.00    -0.020 C 
ATOM     25  C   UNL     1      35.578 -22.801 -14.930  0.00  0.00    -0.001 C 
ATOM     26  C   UNL     1      35.319 -25.201 -15.028  0.00  0.00    -0.001 C 
ATOM     27  C   UNL     1      36.964 -22.949 -14.941  0.00  0.00    +0.037 C 
ATOM     28  C   UNL     1      36.706 -25.350 -15.039  0.00  0.00    +0.037 C 
ATOM     29  C   UNL     1      37.529 -24.224 -14.995  0.00  0.00    +0.139 C 
BRANCH  29  30
ATOM     30  O   UNL     1      38.882 -24.369 -15.006  0.00  0.00    -0.471 OA
ATOM     31  C   UNL     1      39.438 -25.341 -14.123  0.00  0.00    +0.252 C 
ENDBRANCH  29  30
ENDBRANCH  23  24
ENDBRANCH  17  23
ENDBRANCH   2  17
TORSDOF 11
ENDMDL
MODEL 6
REMARK VINA RESULT:      -8.4     10.035     16.039
REMARK  Name = 128564
REMARK  11 active torsions:
REMARK  status: ('A' for Active; 'I' for Inactive)
REMARK    1  A    between atoms: N_2  and  C_17
REMARK    2  A    between atoms: C_3  and  C_5
REMARK    3  A    between atoms: C_5  and  C_6
REMARK    4  A    between atoms: C_5  and  C_10
REMARK    5  A    between atoms: C_6  and  C_7
REMARK    6  A    between atoms: C_10  and  C_13
REMARK    7  A    between atoms: N_12  and  O_15
REMARK    8  A    between atoms: C_17  and  C_20
REMARK    9  A    between atoms: C_17  and  C_23
REMARK   10  A    between atoms: C_23  and  C_24
REMARK   11  A    between atoms: C_29  and  O_30
REMARK                            x       y       z     vdW  Elec       q    Type
REMARK                         _______ _______ _______ _____ _____    ______ ____
ROOT
ATOM      1  O   UNL     1      35.258  -9.281 -23.784  0.00  0.00    -0.275 OA
ATOM      2  N   UNL     1      33.187 -10.315 -23.918  0.00  0.00    -0.298 N 
ATOM      3  C   UNL     1      34.029  -9.221 -23.803  0.00  0.00    +0.223 C 
ATOM      4  H   UNL     1      32.214 -10.164 -23.924  0.00  0.00    +0.150 HD
ENDROOT
BRANCH   3   5
ATOM      5  C   UNL     1      33.304  -7.880 -23.702  0.00  0.00    +0.086 C 
BRANCH   5   6
ATOM      6  C   UNL     1      34.133  -6.720 -24.290  0.00  0.00    +0.010 C 
BRANCH   6   7
ATOM      7  C   UNL     1      33.574  -6.112 -25.595  0.00  0.00    +0.000 C 
ATOM      8  C   UNL     1      34.659  -5.445 -26.441  0.00  0.00    +0.000 C 
ATOM      9  C   UNL     1      32.482  -5.093 -25.261  0.00  0.00    +0.000 C 
ENDBRANCH   6   7
ENDBRANCH   5   6
BRANCH   5  10
ATOM     10  C   UNL     1      32.916  -7.599 -22.240  0.00  0.00    +0.096 C 
BRANCH  10  13
ATOM     11  O   UNL     1      30.659  -7.026 -22.827  0.00  0.00    -0.273 OA
ATOM     12  N   UNL     1      31.755  -5.733 -21.252  0.00  0.00    -0.197 N 
ATOM     13  C   UNL     1      31.650  -6.770 -22.145  0.00  0.00    +0.245 C 
ATOM     14  H   UNL     1      32.574  -5.574 -20.731  0.00  0.00    +0.182 HD
BRANCH  12  15
ATOM     15  O   UNL     1      30.623  -4.916 -21.130  0.00  0.00    -0.295 OA
ATOM     16  H   UNL     1      30.482  -4.697 -20.196  0.00  0.00    +0.241 HD
ENDBRANCH  12  15
ENDBRANCH  10  13
ENDBRANCH   5  10
ENDBRANCH   3   5
BRANCH   2  17
ATOM     17  C   UNL     1      33.681 -11.667 -24.029  0.00  0.00    +0.153 C 
BRANCH  17  20
ATOM     18  O   UNL     1      34.786 -11.280 -26.151  0.00  0.00    -0.273 OA
ATOM     19  N   UNL     1      33.222 -12.990 -25.997  0.00  0.00    -0.301 N 
ATOM     20  C   UNL     1      33.962 -11.925 -25.505  0.00  0.00    +0.241 C 
ATOM     21  C   UNL     1      33.334 -13.475 -27.353  0.00  0.00    +0.111 C 
ATOM     22  H   UNL     1      32.588 -13.438 -25.391  0.00  0.00    +0.150 HD
ENDBRANCH  17  20
BRANCH  17  23
ATOM     23  C   UNL     1      32.681 -12.695 -23.489  0.00  0.00    +0.055 C 
BRANCH  23  24
ATOM     24  C   UNL     1      33.344 -13.793 -22.694  0.00  0.00    -0.020 C 
ATOM     25  C   UNL     1      34.296 -14.615 -23.299  0.00  0.00    -0.001 C 
ATOM     26  C   UNL     1      33.006 -13.986 -21.355  0.00  0.00    -0.001 C 
ATOM     27  C   UNL     1      34.908 -15.630 -22.564  0.00  0.00    +0.037 C 
ATOM     28  C   UNL     1      33.619 -15.001 -20.620  0.00  0.00    +0.037 C 
ATOM     29  C   UNL     1      34.571 -15.823 -21.224  0.00  0.00    +0.139 C 
BRANCH  29  30
ATOM     30  O   UNL     1      35.169 -16.812 -20.507  0.00  0.00    -0.471 OA
ATOM     31  C   UNL     1      35.108 -18.132 -21.045  0.00  0.00    +0.252 C 
ENDBRANCH  29  30
ENDBRANCH  23  24
ENDBRANCH  17  23
ENDBRANCH   2  17
TORSDOF 11
ENDMDL
MODEL 7
REMARK VINA RESULT:      -8.3      9.051     14.779
REMARK  Name = 128564
REMARK  11 active torsions:
REMARK  status: ('A' for Active; 'I' for Inactive)
REMARK    1  A    between atoms: N_2  and  C_17
REMARK    2  A    between atoms: C_3  and  C_5
REMARK    3  A    between atoms: C_5  and  C_6
REMARK    4  A    between atoms: C_5  and  C_10
REMARK    5  A    between atoms: C_6  and  C_7
REMARK    6  A    between atoms: C_10  and  C_13
REMARK    7  A    between atoms: N_12  and  O_15
REMARK    8  A    between atoms: C_17  and  C_20
REMARK    9  A    between atoms: C_17  and  C_23
REMARK   10  A    between atoms: C_23  and  C_24
REMARK   11  A    between atoms: C_29  and  O_30
REMARK                            x       y       z     vdW  Elec       q    Type
REMARK                         _______ _______ _______ _____ _____    ______ ____
ROOT
ATOM      1  O   UNL     1      34.141  -9.642 -23.208  0.00  0.00    -0.275 OA
ATOM      2  N   UNL     1      32.766 -11.502 -23.375  0.00  0.00    -0.298 N 
ATOM      3  C   UNL     1      33.057 -10.194 -23.022  0.00  0.00    +0.223 C 
ATOM      4  H   UNL     1      31.867 -11.854 -23.184  0.00  0.00    +0.150 HD
ENDROOT
BRANCH   3   5
ATOM      5  C   UNL     1      31.896  -9.450 -22.363  0.00  0.00    +0.086 C 
BRANCH   5   6
ATOM      6  C   UNL     1      30.874 -10.411 -21.721  0.00  0.00    +0.010 C 
BRANCH   6   7
ATOM      7  C   UNL     1      31.072 -10.661 -20.210  0.00  0.00    +0.000 C 
ATOM      8  C   UNL     1      31.902  -9.565 -19.540  0.00  0.00    +0.000 C 
ATOM      9  C   UNL     1      31.746 -12.019 -19.998  0.00  0.00    +0.000 C 
ENDBRANCH   6   7
ENDBRANCH   5   6
BRANCH   5  10
ATOM     10  C   UNL     1      31.217  -8.521 -23.384  0.00  0.00    +0.096 C 
BRANCH  10  13
ATOM     11  O   UNL     1      31.671  -6.253 -24.029  0.00  0.00    -0.273 OA
ATOM     12  N   UNL     1      31.664  -6.782 -21.778  0.00  0.00    -0.197 N 
ATOM     13  C   UNL     1      31.536  -7.064 -23.115  0.00  0.00    +0.245 C 
ATOM     14  H   UNL     1      31.544  -7.472 -21.086  0.00  0.00    +0.182 HD
BRANCH  12  15
ATOM     15  O   UNL     1      31.976  -5.454 -21.461  0.00  0.00    -0.295 OA
ATOM     16  H   UNL     1      31.164  -4.979 -21.223  0.00  0.00    +0.241 HD
ENDBRANCH  12  15
ENDBRANCH  10  13
ENDBRANCH   5  10
ENDBRANCH   3   5
BRANCH   2  17
ATOM     17  C   UNL     1      33.731 -12.367 -24.011  0.00  0.00    +0.153 C 
BRANCH  17  20
ATOM     18  O   UNL     1      33.375 -11.899 -26.363  0.00  0.00    -0.273 OA
ATOM     19  N   UNL     1      35.217 -10.965 -25.300  0.00  0.00    -0.301 N 
ATOM     20  C   UNL     1      34.072 -11.746 -25.362  0.00  0.00    +0.241 C 
ATOM     21  C   UNL     1      35.734 -10.225 -26.428  0.00  0.00    +0.111 C 
ATOM     22  H   UNL     1      35.702 -10.912 -24.444  0.00  0.00    +0.150 HD
ENDBRANCH  17  20
BRANCH  17  23
ATOM     23  C   UNL     1      33.197 -13.791 -24.199  0.00  0.00    +0.055 C 
BRANCH  23  24
ATOM     24  C   UNL     1      33.812 -14.777 -23.236  0.00  0.00    -0.020 C 
ATOM     25  C   UNL     1      34.633 -15.800 -23.713  0.00  0.00    -0.001 C 
ATOM     26  C   UNL     1      33.561 -14.665 -21.868  0.00  0.00    -0.001 C 
ATOM     27  C   UNL     1      35.202 -16.710 -22.823  0.00  0.00    +0.037 C 
ATOM     28  C   UNL     1      34.130 -15.576 -20.978  0.00  0.00    +0.037 C 
ATOM     29  C   UNL     1      34.951 -16.598 -21.456  0.00  0.00    +0.139 C 
BRANCH  29  30
ATOM     30  O   UNL     1      35.506 -17.486 -20.587  0.00  0.00    -0.471 OA
ATOM     31  C   UNL     1      36.013 -18.702 -21.135  0.00  0.00    +0.252 C 
ENDBRANCH  29  30
ENDBRANCH  23  24
ENDBRANCH  17  23
ENDBRANCH   2  17
TORSDOF 11
ENDMDL
MODEL 8
REMARK VINA RESULT:      -8.3      5.620     11.506
REMARK  Name = 128564
REMARK  11 active torsions:
REMARK  status: ('A' for Active; 'I' for Inactive)
REMARK    1  A    between atoms: N_2  and  C_17
REMARK    2  A    between atoms: C_3  and  C_5
REMARK    3  A    between atoms: C_5  and  C_6
REMARK    4  A    between atoms: C_5  and  C_10
REMARK    5  A    between atoms: C_6  and  C_7
REMARK    6  A    between atoms: C_10  and  C_13
REMARK    7  A    between atoms: N_12  and  O_15
REMARK    8  A    between atoms: C_17  and  C_20
REMARK    9  A    between atoms: C_17  and  C_23
REMARK   10  A    between atoms: C_23  and  C_24
REMARK   11  A    between atoms: C_29  and  O_30
REMARK                            x       y       z     vdW  Elec       q    Type
REMARK                         _______ _______ _______ _____ _____    ______ ____
ROOT
ATOM      1  O   UNL     1      34.839 -14.965 -20.346  0.00  0.00    -0.275 OA
ATOM      2  N   UNL     1      33.718 -16.055 -22.058  0.00  0.00    -0.298 N 
ATOM      3  C   UNL     1      34.025 -14.959 -21.269  0.00  0.00    +0.223 C 
ATOM      4  H   UNL     1      33.050 -15.949 -22.774  0.00  0.00    +0.150 HD
ENDROOT
BRANCH   3   5
ATOM      5  C   UNL     1      33.259 -13.688 -21.636  0.00  0.00    +0.086 C 
BRANCH   5   6
ATOM      6  C   UNL     1      32.262 -13.268 -20.536  0.00  0.00    +0.010 C 
BRANCH   6   7
ATOM      7  C   UNL     1      31.929 -11.760 -20.497  0.00  0.00    +0.000 C 
ATOM      8  C   UNL     1      31.539 -11.283 -19.098  0.00  0.00    +0.000 C 
ATOM      9  C   UNL     1      30.793 -11.459 -21.479  0.00  0.00    +0.000 C 
ENDBRANCH   6   7
ENDBRANCH   5   6
BRANCH   5  10
ATOM     10  C   UNL     1      32.549 -13.871 -22.988  0.00  0.00    +0.096 C 
BRANCH  10  13
ATOM     11  O   UNL     1      33.342 -13.672 -25.245  0.00  0.00    -0.273 OA
ATOM     12  N   UNL     1      33.922 -12.032 -23.721  0.00  0.00    -0.197 N 
ATOM     13  C   UNL     1      33.303 -13.192 -24.114  0.00  0.00    +0.245 C 
ATOM     14  H   UNL     1      33.857 -11.693 -22.799  0.00  0.00    +0.182 HD
BRANCH  12  15
ATOM     15  O   UNL     1      34.652 -11.363 -24.712  0.00  0.00    -0.295 OA
ATOM     16  H   UNL     1      34.856 -10.464 -24.411  0.00  0.00    +0.241 HD
ENDBRANCH  12  15
ENDBRANCH  10  13
ENDBRANCH   5  10
ENDBRANCH   3   5
BRANCH   2  17
ATOM     17  C   UNL     1      34.337 -17.345 -21.871  0.00  0.00    +0.153 C 
BRANCH  17  20
ATOM     18  O   UNL     1      36.185 -18.265 -23.142  0.00  0.00    -0.273 OA
ATOM     19  N   UNL     1      34.443 -17.234 -24.281  0.00  0.00    -0.301 N 
ATOM     20  C   UNL     1      35.113 -17.661 -23.145  0.00  0.00    +0.241 C 
ATOM     21  C   UNL     1      34.935 -17.453 -25.622  0.00  0.00    +0.111 C 
ATOM     22  H   UNL     1      33.588 -16.758 -24.169  0.00  0.00    +0.150 HD
ENDBRANCH  17  20
BRANCH  17  23
ATOM     23  C   UNL     1      33.310 -18.445 -21.584  0.00  0.00    +0.055 C 
BRANCH  23  24
ATOM     24  C   UNL     1      33.874 -19.567 -20.747  0.00  0.00    -0.020 C 
ATOM     25  C   UNL     1      35.256 -19.719 -20.623  0.00  0.00    -0.001 C 
ATOM     26  C   UNL     1      33.014 -20.452 -20.096  0.00  0.00    -0.001 C 
ATOM     27  C   UNL     1      35.777 -20.756 -19.849  0.00  0.00    +0.037 C 
ATOM     28  C   UNL     1      33.535 -21.488 -19.322  0.00  0.00    +0.037 C 
ATOM     29  C   UNL     1      34.917 -21.640 -19.198  0.00  0.00    +0.139 C 
BRANCH  29  30
ATOM     30  O   UNL     1      35.424 -22.652 -18.442  0.00  0.00    -0.471 OA
ATOM     31  C   UNL     1      36.100 -22.288 -17.240  0.00  0.00    +0.252 C 
ENDBRANCH  29  30
ENDBRANCH  23  24
ENDBRANCH  17  23
ENDBRANCH   2  17
TORSDOF 11
ENDMDL
MODEL 9
REMARK VINA RESULT:      -8.3      6.476     12.942
REMARK  Name = 128564
REMARK  11 active torsions:
REMARK  status: ('A' for Active; 'I' for Inactive)
REMARK    1  A    between atoms: N_2  and  C_17
REMARK    2  A    between atoms: C_3  and  C_5
REMARK    3  A    between atoms: C_5  and  C_6
REMARK    4  A    between atoms: C_5  and  C_10
REMARK    5  A    between atoms: C_6  and  C_7
REMARK    6  A    between atoms: C_10  and  C_13
REMARK    7  A    between atoms: N_12  and  O_15
REMARK    8  A    between atoms: C_17  and  C_20
REMARK    9  A    between atoms: C_17  and  C_23
REMARK   10  A    between atoms: C_23  and  C_24
REMARK   11  A    between atoms: C_29  and  O_30
REMARK                            x       y       z     vdW  Elec       q    Type
REMARK                         _______ _______ _______ _____ _____    ______ ____
ROOT
ATOM      1  O   UNL     1      32.360 -13.634 -23.479  0.00  0.00    -0.275 OA
ATOM      2  N   UNL     1      34.466 -14.551 -23.796  0.00  0.00    -0.298 N 
ATOM      3  C   UNL     1      33.490 -13.584 -23.964  0.00  0.00    +0.223 C 
ATOM      4  H   UNL     1      35.342 -14.420 -24.227  0.00  0.00    +0.150 HD
ENDROOT
BRANCH   3   5
ATOM      5  C   UNL     1      33.925 -12.398 -24.825  0.00  0.00    +0.086 C 
BRANCH   5   6
ATOM      6  C   UNL     1      33.803 -11.054 -24.076  0.00  0.00    +0.010 C 
BRANCH   6   7
ATOM      7  C   UNL     1      34.978 -10.076 -24.293  0.00  0.00    +0.000 C 
ATOM      8  C   UNL     1      34.576  -8.619 -24.060  0.00  0.00    +0.000 C 
ATOM      9  C   UNL     1      35.526 -10.238 -25.713  0.00  0.00    +0.000 C 
ENDBRANCH   6   7
ENDBRANCH   5   6
BRANCH   5  10
ATOM     10  C   UNL     1      33.123 -12.376 -26.138  0.00  0.00    +0.096 C 
BRANCH  10  13
ATOM     11  O   UNL     1      33.969 -13.892 -27.796  0.00  0.00    -0.273 OA
ATOM     12  N   UNL     1      32.307 -14.631 -26.367  0.00  0.00    -0.197 N 
ATOM     13  C   UNL     1      33.193 -13.707 -26.860  0.00  0.00    +0.245 C 
ATOM     14  H   UNL     1      31.707 -14.428 -25.613  0.00  0.00    +0.182 HD
BRANCH  12  15
ATOM     15  O   UNL     1      32.309 -15.879 -27.004  0.00  0.00    -0.295 OA
ATOM     16  H   UNL     1      31.432 -16.286 -26.920  0.00  0.00    +0.241 HD
ENDBRANCH  12  15
ENDBRANCH  10  13
ENDBRANCH   5  10
ENDBRANCH   3   5
BRANCH   2  17
ATOM     17  C   UNL     1      34.250 -15.745 -23.015  0.00  0.00    +0.153 C 
BRANCH  17  20
ATOM     18  O   UNL     1      35.026 -14.874 -20.890  0.00  0.00    -0.273 OA
ATOM     19  N   UNL     1      32.782 -15.423 -21.124  0.00  0.00    -0.301 N 
ATOM     20  C   UNL     1      34.093 -15.311 -21.561  0.00  0.00    +0.241 C 
ATOM     21  C   UNL     1      32.351 -15.033 -19.801  0.00  0.00    +0.111 C 
ATOM     22  H   UNL     1      32.111 -15.788 -21.745  0.00  0.00    +0.150 HD
ENDBRANCH  17  20
BRANCH  17  23
ATOM     23  C   UNL     1      35.403 -16.745 -23.151  0.00  0.00    +0.055 C 
BRANCH  23  24
ATOM     24  C   UNL     1      35.245 -17.946 -22.251  0.00  0.00    -0.020 C 
ATOM     25  C   UNL     1      34.010 -18.589 -22.155  0.00  0.00    -0.001 C 
ATOM     26  C   UNL     1      36.334 -18.414 -21.516  0.00  0.00    -0.001 C 
ATOM     27  C   UNL     1      33.865 -19.699 -21.323  0.00  0.00    +0.037 C 
ATOM     28  C   UNL     1      36.189 -19.524 -20.684  0.00  0.00    +0.037 C 
ATOM     29  C   UNL     1      34.954 -20.167 -20.588  0.00  0.00    +0.139 C 
BRANCH  29  30
ATOM     30  O   UNL     1      34.813 -21.250 -19.777  0.00  0.00    -0.471 OA
ATOM     31  C   UNL     1      33.483 -21.633 -19.430  0.00  0.00    +0.252 C 
ENDBRANCH  29  30
ENDBRANCH  23  24
ENDBRANCH  17  23
ENDBRANCH   2  17
TORSDOF 11
ENDMDL
