MODEL 1
REMARK VINA RESULT:      -8.1      0.000      0.000
REMARK  Name = 4369452
REMARK  1 active torsions:
REMARK  status: ('A' for Active; 'I' for Inactive)
REMARK    1  A    between atoms: N_5  and  C_10
REMARK                            x       y       z     vdW  Elec       q    Type
REMARK                         _______ _______ _______ _____ _____    ______ ____
ROOT
ATOM      1  S   UNL     1      34.166 -16.918 -21.333  0.00  0.00    +0.130 S 
ATOM      2  O   UNL     1      32.836 -16.624 -20.842  0.00  0.00    -0.135 OA
ATOM      3  O   UNL     1      35.345 -16.697 -20.521  0.00  0.00    -0.135 OA
ATOM      4  O   UNL     1      35.105 -16.815 -25.017  0.00  0.00    -0.272 OA
ATOM      5  N   UNL     1      34.202 -18.503 -22.013  0.00  0.00    -0.169 N 
ATOM      6  N   UNL     1      34.409 -16.211 -22.863  0.00  0.00    -0.171 N 
ATOM      7  C   UNL     1      34.937 -18.541 -23.313  0.00  0.00    +0.203 C 
ATOM      8  C   UNL     1      34.823 -17.129 -23.869  0.00  0.00    +0.264 C 
ATOM      9  H   UNL     1      34.276 -15.250 -23.035  0.00  0.00    +0.178 HD
ENDROOT
BRANCH   5  10
ATOM     10  C   UNL     1      34.332 -19.595 -21.087  0.00  0.00    +0.071 C 
ATOM     11  C   UNL     1      35.596 -20.082 -20.755  0.00  0.00    +0.016 C 
ATOM     12  C   UNL     1      33.193 -20.169 -20.521  0.00  0.00    +0.016 C 
ATOM     13  C   UNL     1      35.722 -21.142 -19.857  0.00  0.00    +0.001 C 
ATOM     14  C   UNL     1      33.319 -21.229 -19.623  0.00  0.00    +0.001 C 
ATOM     15  C   UNL     1      34.583 -21.716 -19.292  0.00  0.00    +0.000 C 
ENDBRANCH   5  10
TORSDOF 1
ENDMDL
MODEL 2
REMARK VINA RESULT:      -7.5      1.868      2.349
REMARK  Name = 4369452
REMARK  1 active torsions:
REMARK  status: ('A' for Active; 'I' for Inactive)
REMARK    1  A    between atoms: N_5  and  C_10
REMARK                            x       y       z     vdW  Elec       q    Type
REMARK                         _______ _______ _______ _____ _____    ______ ____
ROOT
ATOM      1  S   UNL     1      35.715 -18.259 -22.988  0.00  0.00    +0.130 S 
ATOM      2  O   UNL     1      37.110 -18.602 -22.809  0.00  0.00    -0.135 OA
ATOM      3  O   UNL     1      34.859 -18.995 -23.897  0.00  0.00    -0.135 OA
ATOM      4  O   UNL     1      34.345 -14.747 -22.490  0.00  0.00    -0.272 OA
ATOM      5  N   UNL     1      34.949 -18.100 -21.450  0.00  0.00    -0.169 N 
ATOM      6  N   UNL     1      35.543 -16.593 -23.293  0.00  0.00    -0.171 N 
ATOM      7  C   UNL     1      34.071 -16.894 -21.381  0.00  0.00    +0.203 C 
ATOM      8  C   UNL     1      34.650 -15.928 -22.405  0.00  0.00    +0.264 C 
ATOM      9  H   UNL     1      36.018 -16.131 -24.022  0.00  0.00    +0.178 HD
ENDROOT
BRANCH   5  10
ATOM     10  C   UNL     1      34.540 -19.320 -20.809  0.00  0.00    +0.071 C 
ATOM     11  C   UNL     1      35.499 -20.214 -20.333  0.00  0.00    +0.016 C 
ATOM     12  C   UNL     1      33.183 -19.611 -20.664  0.00  0.00    +0.016 C 
ATOM     13  C   UNL     1      35.102 -21.398 -19.712  0.00  0.00    +0.001 C 
ATOM     14  C   UNL     1      32.786 -20.796 -20.043  0.00  0.00    +0.001 C 
ATOM     15  C   UNL     1      33.745 -21.689 -19.568  0.00  0.00    +0.000 C 
ENDBRANCH   5  10
TORSDOF 1
ENDMDL
MODEL 3
REMARK VINA RESULT:      -7.4      1.209      1.434
REMARK  Name = 4369452
REMARK  1 active torsions:
REMARK  status: ('A' for Active; 'I' for Inactive)
REMARK    1  A    between atoms: N_5  and  C_10
REMARK                            x       y       z     vdW  Elec       q    Type
REMARK                         _______ _______ _______ _____ _____    ______ ____
ROOT
ATOM      1  S   UNL     1      33.718 -16.040 -21.203  0.00  0.00    +0.130 S 
ATOM      2  O   UNL     1      32.438 -16.255 -20.562  0.00  0.00    -0.135 OA
ATOM      3  O   UNL     1      34.870 -15.561 -20.466  0.00  0.00    -0.135 OA
ATOM      4  O   UNL     1      34.090 -15.156 -24.883  0.00  0.00    -0.272 OA
ATOM      5  N   UNL     1      34.145 -17.425 -22.138  0.00  0.00    -0.169 N 
ATOM      6  N   UNL     1      33.532 -15.096 -22.608  0.00  0.00    -0.171 N 
ATOM      7  C   UNL     1      34.680 -17.054 -23.482  0.00  0.00    +0.203 C 
ATOM      8  C   UNL     1      34.070 -15.693 -23.785  0.00  0.00    +0.264 C 
ATOM      9  H   UNL     1      33.091 -14.215 -22.607  0.00  0.00    +0.178 HD
ENDROOT
BRANCH   5  10
ATOM     10  C   UNL     1      34.721 -18.530 -21.420  0.00  0.00    +0.071 C 
ATOM     11  C   UNL     1      36.104 -18.604 -21.246  0.00  0.00    +0.016 C 
ATOM     12  C   UNL     1      33.898 -19.529 -20.900  0.00  0.00    +0.016 C 
ATOM     13  C   UNL     1      36.662 -19.676 -20.551  0.00  0.00    +0.001 C 
ATOM     14  C   UNL     1      34.458 -20.601 -20.204  0.00  0.00    +0.001 C 
ATOM     15  C   UNL     1      35.839 -20.675 -20.030  0.00  0.00    +0.000 C 
ENDBRANCH   5  10
TORSDOF 1
ENDMDL
MODEL 4
REMARK VINA RESULT:      -7.4      2.753      5.550
REMARK  Name = 4369452
REMARK  1 active torsions:
REMARK  status: ('A' for Active; 'I' for Inactive)
REMARK    1  A    between atoms: N_5  and  C_10
REMARK                            x       y       z     vdW  Elec       q    Type
REMARK                         _______ _______ _______ _____ _____    ______ ____
ROOT
ATOM      1  S   UNL     1      34.390 -15.922 -21.067  0.00  0.00    +0.130 S 
ATOM      2  O   UNL     1      34.929 -14.697 -20.516  0.00  0.00    -0.135 OA
ATOM      3  O   UNL     1      32.973 -16.221 -21.020  0.00  0.00    -0.135 OA
ATOM      4  O   UNL     1      36.377 -19.154 -21.319  0.00  0.00    -0.272 OA
ATOM      5  N   UNL     1      34.994 -16.162 -22.666  0.00  0.00    -0.169 N 
ATOM      6  N   UNL     1      35.258 -17.270 -20.493  0.00  0.00    -0.171 N 
ATOM      7  C   UNL     1      35.423 -17.572 -22.900  0.00  0.00    +0.203 C 
ATOM      8  C   UNL     1      35.776 -18.109 -21.520  0.00  0.00    +0.264 C 
ATOM      9  H   UNL     1      35.388 -17.453 -19.534  0.00  0.00    +0.178 HD
ENDROOT
BRANCH   5  10
ATOM     10  C   UNL     1      34.335 -15.431 -23.715  0.00  0.00    +0.071 C 
ATOM     11  C   UNL     1      33.989 -16.076 -24.903  0.00  0.00    +0.016 C 
ATOM     12  C   UNL     1      34.045 -14.077 -23.546  0.00  0.00    +0.016 C 
ATOM     13  C   UNL     1      33.352 -15.367 -25.921  0.00  0.00    +0.001 C 
ATOM     14  C   UNL     1      33.407 -13.369 -24.565  0.00  0.00    +0.001 C 
ATOM     15  C   UNL     1      33.062 -14.013 -25.752  0.00  0.00    +0.000 C 
ENDBRANCH   5  10
TORSDOF 1
ENDMDL
MODEL 5
REMARK VINA RESULT:      -7.3      9.529     10.637
REMARK  Name = 4369452
REMARK  1 active torsions:
REMARK  status: ('A' for Active; 'I' for Inactive)
REMARK    1  A    between atoms: N_5  and  C_10
REMARK                            x       y       z     vdW  Elec       q    Type
REMARK                         _______ _______ _______ _____ _____    ______ ____
ROOT
ATOM      1  S   UNL     1      37.464 -26.222 -13.363  0.00  0.00    +0.130 S 
ATOM      2  O   UNL     1      37.101 -26.219 -11.962  0.00  0.00    -0.135 OA
ATOM      3  O   UNL     1      36.904 -27.181 -14.294  0.00  0.00    -0.135 OA
ATOM      4  O   UNL     1      40.817 -24.980 -14.657  0.00  0.00    -0.272 OA
ATOM      5  N   UNL     1      37.333 -24.626 -14.006  0.00  0.00    -0.169 N 
ATOM      6  N   UNL     1      39.157 -26.201 -13.543  0.00  0.00    -0.171 N 
ATOM      7  C   UNL     1      38.501 -24.267 -14.864  0.00  0.00    +0.203 C 
ATOM      8  C   UNL     1      39.642 -25.138 -14.358  0.00  0.00    +0.264 C 
ATOM      9  H   UNL     1      39.748 -26.867 -13.121  0.00  0.00    +0.178 HD
ENDROOT
BRANCH   5  10
ATOM     10  C   UNL     1      36.014 -24.190 -14.375  0.00  0.00    +0.071 C 
ATOM     11  C   UNL     1      35.797 -23.599 -15.621  0.00  0.00    +0.016 C 
ATOM     12  C   UNL     1      34.950 -24.356 -13.488  0.00  0.00    +0.016 C 
ATOM     13  C   UNL     1      34.518 -23.176 -15.978  0.00  0.00    +0.001 C 
ATOM     14  C   UNL     1      33.670 -23.932 -13.847  0.00  0.00    +0.001 C 
ATOM     15  C   UNL     1      33.454 -23.342 -15.091  0.00  0.00    +0.000 C 
ENDBRANCH   5  10
TORSDOF 1
ENDMDL
MODEL 6
REMARK VINA RESULT:      -7.2      8.342     10.119
REMARK  Name = 4369452
REMARK  1 active torsions:
REMARK  status: ('A' for Active; 'I' for Inactive)
REMARK    1  A    between atoms: N_5  and  C_10
REMARK                            x       y       z     vdW  Elec       q    Type
REMARK                         _______ _______ _______ _____ _____    ______ ____
ROOT
ATOM      1  S   UNL     1      36.907 -25.796 -14.744  0.00  0.00    +0.130 S 
ATOM      2  O   UNL     1      36.155 -26.691 -15.598  0.00  0.00    -0.135 OA
ATOM      3  O   UNL     1      38.318 -25.546 -14.956  0.00  0.00    -0.135 OA
ATOM      4  O   UNL     1      36.018 -25.137 -11.106  0.00  0.00    -0.272 OA
ATOM      5  N   UNL     1      36.059 -24.304 -14.568  0.00  0.00    -0.169 N 
ATOM      6  N   UNL     1      36.655 -26.180 -13.104  0.00  0.00    -0.171 N 
ATOM      7  C   UNL     1      36.047 -23.826 -13.154  0.00  0.00    +0.203 C 
ATOM      8  C   UNL     1      36.202 -25.086 -12.313  0.00  0.00    +0.264 C 
ATOM      9  H   UNL     1      36.810 -27.081 -12.736  0.00  0.00    +0.178 HD
ENDROOT
BRANCH   5  10
ATOM     10  C   UNL     1      36.201 -23.357 -15.641  0.00  0.00    +0.071 C 
ATOM     11  C   UNL     1      35.202 -23.245 -16.609  0.00  0.00    +0.016 C 
ATOM     12  C   UNL     1      37.337 -22.551 -15.715  0.00  0.00    +0.016 C 
ATOM     13  C   UNL     1      35.340 -22.328 -17.650  0.00  0.00    +0.001 C 
ATOM     14  C   UNL     1      37.475 -21.633 -16.757  0.00  0.00    +0.001 C 
ATOM     15  C   UNL     1      36.477 -21.522 -17.724  0.00  0.00    +0.000 C 
ENDBRANCH   5  10
TORSDOF 1
ENDMDL
MODEL 7
REMARK VINA RESULT:      -7.2      1.855      2.436
REMARK  Name = 4369452
REMARK  1 active torsions:
REMARK  status: ('A' for Active; 'I' for Inactive)
REMARK    1  A    between atoms: N_5  and  C_10
REMARK                            x       y       z     vdW  Elec       q    Type
REMARK                         _______ _______ _______ _____ _____    ______ ____
ROOT
ATOM      1  S   UNL     1      33.708 -15.343 -22.780  0.00  0.00    +0.130 S 
ATOM      2  O   UNL     1      32.514 -15.356 -21.962  0.00  0.00    -0.135 OA
ATOM      3  O   UNL     1      34.941 -14.736 -22.320  0.00  0.00    -0.135 OA
ATOM      4  O   UNL     1      33.639 -15.392 -26.581  0.00  0.00    -0.272 OA
ATOM      5  N   UNL     1      34.018 -16.927 -23.390  0.00  0.00    -0.169 N 
ATOM      6  N   UNL     1      33.357 -14.764 -24.342  0.00  0.00    -0.171 N 
ATOM      7  C   UNL     1      34.389 -16.911 -24.836  0.00  0.00    +0.203 C 
ATOM      8  C   UNL     1      33.750 -15.645 -25.391  0.00  0.00    +0.264 C 
ATOM      9  H   UNL     1      32.922 -13.896 -24.506  0.00  0.00    +0.178 HD
ENDROOT
BRANCH   5  10
ATOM     10  C   UNL     1      34.673 -17.842 -22.495  0.00  0.00    +0.071 C 
ATOM     11  C   UNL     1      36.064 -17.951 -22.504  0.00  0.00    +0.016 C 
ATOM     12  C   UNL     1      33.918 -18.621 -21.617  0.00  0.00    +0.016 C 
ATOM     13  C   UNL     1      36.699 -18.839 -21.637  0.00  0.00    +0.001 C 
ATOM     14  C   UNL     1      34.555 -19.509 -20.749  0.00  0.00    +0.001 C 
ATOM     15  C   UNL     1      35.944 -19.619 -20.760  0.00  0.00    +0.000 C 
ENDBRANCH   5  10
TORSDOF 1
ENDMDL
MODEL 8
REMARK VINA RESULT:      -6.8      8.339     10.119
REMARK  Name = 4369452
REMARK  1 active torsions:
REMARK  status: ('A' for Active; 'I' for Inactive)
REMARK    1  A    between atoms: N_5  and  C_10
REMARK                            x       y       z     vdW  Elec       q    Type
REMARK                         _______ _______ _______ _____ _____    ______ ____
ROOT
ATOM      1  S   UNL     1      36.245 -25.071 -14.908  0.00  0.00    +0.130 S 
ATOM      2  O   UNL     1      36.019 -26.374 -15.496  0.00  0.00    -0.135 OA
ATOM      3  O   UNL     1      36.725 -23.952 -15.694  0.00  0.00    -0.135 OA
ATOM      4  O   UNL     1      37.151 -24.556 -11.251  0.00  0.00    -0.272 OA
ATOM      5  N   UNL     1      34.867 -24.598 -13.983  0.00  0.00    -0.169 N 
ATOM      6  N   UNL     1      37.195 -25.206 -13.502  0.00  0.00    -0.171 N 
ATOM      7  C   UNL     1      35.248 -24.012 -12.664  0.00  0.00    +0.203 C 
ATOM      8  C   UNL     1      36.608 -24.617 -12.345  0.00  0.00    +0.264 C 
ATOM      9  H   UNL     1      38.073 -25.651 -13.490  0.00  0.00    +0.178 HD
ENDROOT
BRANCH   5  10
ATOM     10  C   UNL     1      33.761 -24.045 -14.718  0.00  0.00    +0.071 C 
ATOM     11  C   UNL     1      32.546 -23.805 -14.075  0.00  0.00    +0.016 C 
ATOM     12  C   UNL     1      33.903 -23.751 -16.074  0.00  0.00    +0.016 C 
ATOM     13  C   UNL     1      31.474 -23.271 -14.788  0.00  0.00    +0.001 C 
ATOM     14  C   UNL     1      32.829 -23.215 -16.787  0.00  0.00    +0.001 C 
ATOM     15  C   UNL     1      31.615 -22.976 -16.144  0.00  0.00    +0.000 C 
ENDBRANCH   5  10
TORSDOF 1
ENDMDL
MODEL 9
REMARK VINA RESULT:      -6.7      7.873      9.101
REMARK  Name = 4369452
REMARK  1 active torsions:
REMARK  status: ('A' for Active; 'I' for Inactive)
REMARK    1  A    between atoms: N_5  and  C_10
REMARK                            x       y       z     vdW  Elec       q    Type
REMARK                         _______ _______ _______ _____ _____    ______ ____
ROOT
ATOM      1  S   UNL     1      36.048 -25.053 -14.722  0.00  0.00    +0.130 S 
ATOM      2  O   UNL     1      36.188 -25.350 -13.313  0.00  0.00    -0.135 OA
ATOM      3  O   UNL     1      35.703 -26.077 -15.688  0.00  0.00    -0.135 OA
ATOM      4  O   UNL     1      37.906 -22.225 -16.458  0.00  0.00    -0.272 OA
ATOM      5  N   UNL     1      35.032 -23.674 -14.932  0.00  0.00    -0.169 N 
ATOM      6  N   UNL     1      37.403 -24.193 -15.291  0.00  0.00    -0.171 N 
ATOM      7  C   UNL     1      35.582 -22.718 -15.939  0.00  0.00    +0.203 C 
ATOM      8  C   UNL     1      37.085 -22.962 -15.932  0.00  0.00    +0.264 C 
ATOM      9  H   UNL     1      38.326 -24.520 -15.186  0.00  0.00    +0.178 HD
ENDROOT
BRANCH   5  10
ATOM     10  C   UNL     1      33.615 -23.906 -14.867  0.00  0.00    +0.071 C 
ATOM     11  C   UNL     1      33.073 -24.616 -13.795  0.00  0.00    +0.016 C 
ATOM     12  C   UNL     1      32.782 -23.424 -15.877  0.00  0.00    +0.016 C 
ATOM     13  C   UNL     1      31.698 -24.843 -13.733  0.00  0.00    +0.001 C 
ATOM     14  C   UNL     1      31.406 -23.651 -15.814  0.00  0.00    +0.001 C 
ATOM     15  C   UNL     1      30.865 -24.360 -14.743  0.00  0.00    +0.000 C 
ENDBRANCH   5  10
TORSDOF 1
ENDMDL
