MODEL 1
REMARK VINA RESULT:      -9.8      0.000      0.000
REMARK  Name = 444607
REMARK  6 active torsions:
REMARK  status: ('A' for Active; 'I' for Inactive)
REMARK    1  A    between atoms: S_1  and  C_5
REMARK    2  A    between atoms: S_1  and  N_15
REMARK    3  A    between atoms: C_6  and  S_9
REMARK    4  A    between atoms: S_9  and  N_12
REMARK    5  A    between atoms: N_15  and  C_17
REMARK    6  A    between atoms: C_17  and  C_18
REMARK                            x       y       z     vdW  Elec       q    Type
REMARK                         _______ _______ _______ _____ _____    ______ ____
ROOT
ATOM      1  S   UNL     1      35.871 -24.245 -11.428  0.00  0.00    +0.066 S 
ATOM      2  O   UNL     1      35.287 -25.253 -10.563  0.00  0.00    -0.152 OA
ATOM      3  O   UNL     1      36.776 -23.239 -10.908  0.00  0.00    -0.152 OA
ENDROOT
BRANCH   1   5
ATOM      4  S   UNL     1      38.475 -24.589 -12.709  0.00  0.00    -0.047 S 
ATOM      5  C   UNL     1      36.876 -25.150 -12.604  0.00  0.00    +0.153 C 
ATOM      6  C   UNL     1      38.839 -25.775 -13.889  0.00  0.00    +0.152 C 
ATOM      7  C   UNL     1      36.602 -26.195 -13.420  0.00  0.00    +0.029 C 
ATOM      8  C   UNL     1      37.749 -26.567 -14.177  0.00  0.00    +0.028 C 
BRANCH   6   9
ATOM      9  S   UNL     1      40.493 -25.741 -14.482  0.00  0.00    +0.063 S 
ATOM     10  O   UNL     1      40.992 -24.400 -14.199  0.00  0.00    -0.153 OA
ATOM     11  O   UNL     1      41.131 -26.910 -13.890  0.00  0.00    -0.153 OA
BRANCH   9  12
ATOM     12  N   UNL     1      40.469 -25.942 -16.187  0.00  0.00    -0.203 NA
ATOM     13  H   UNL     1      41.102 -26.699 -16.450  0.00  0.00    +0.144 HD
ATOM     14  H   UNL     1      40.771 -25.077 -16.636  0.00  0.00    +0.144 HD
ENDBRANCH   9  12
ENDBRANCH   6   9
ENDBRANCH   1   5
BRANCH   1  15
ATOM     15  N   UNL     1      34.633 -23.467 -12.314  0.00  0.00    -0.174 NA
ATOM     16  H   UNL     1      35.080 -22.788 -12.929  0.00  0.00    +0.149 HD
BRANCH  15  17
ATOM     17  C   UNL     1      33.749 -24.311 -13.154  0.00  0.00    +0.118 C 
BRANCH  17  18
ATOM     18  C   UNL     1      33.678 -23.840 -14.568  0.00  0.00    -0.005 C 
ATOM     19  C   UNL     1      34.847 -23.514 -15.254  0.00  0.00    -0.003 C 
ATOM     20  C   UNL     1      32.441 -23.726 -15.203  0.00  0.00    -0.003 C 
ATOM     21  C   UNL     1      33.545 -22.959 -17.211  0.00  0.00    -0.022 C 
ATOM     22  C   UNL     1      34.781 -23.074 -16.576  0.00  0.00    -0.005 C 
ATOM     23  C   UNL     1      32.374 -23.285 -16.525  0.00  0.00    -0.005 C 
ATOM     24  C   UNL     1      33.473 -22.486 -18.624  0.00  0.00    +0.031 C 
ENDBRANCH  17  18
ENDBRANCH  15  17
ENDBRANCH   1  15
TORSDOF 6
ENDMDL
MODEL 2
REMARK VINA RESULT:      -9.7      1.630      2.438
REMARK  Name = 444607
REMARK  6 active torsions:
REMARK  status: ('A' for Active; 'I' for Inactive)
REMARK    1  A    between atoms: S_1  and  C_5
REMARK    2  A    between atoms: S_1  and  N_15
REMARK    3  A    between atoms: C_6  and  S_9
REMARK    4  A    between atoms: S_9  and  N_12
REMARK    5  A    between atoms: N_15  and  C_17
REMARK    6  A    between atoms: C_17  and  C_18
REMARK                            x       y       z     vdW  Elec       q    Type
REMARK                         _______ _______ _______ _____ _____    ______ ____
ROOT
ATOM      1  S   UNL     1      35.660 -24.562 -11.964  0.00  0.00    +0.066 S 
ATOM      2  O   UNL     1      35.665 -25.394 -10.776  0.00  0.00    -0.152 OA
ATOM      3  O   UNL     1      36.128 -23.190 -11.925  0.00  0.00    -0.152 OA
ENDROOT
BRANCH   1   5
ATOM      4  S   UNL     1      38.376 -24.775 -13.022  0.00  0.00    -0.047 S 
ATOM      5  C   UNL     1      36.784 -25.360 -13.109  0.00  0.00    +0.153 C 
ATOM      6  C   UNL     1      38.866 -25.859 -14.253  0.00  0.00    +0.152 C 
ATOM      7  C   UNL     1      36.603 -26.339 -14.027  0.00  0.00    +0.029 C 
ATOM      8  C   UNL     1      37.822 -26.637 -14.702  0.00  0.00    +0.028 C 
BRANCH   6   9
ATOM      9  S   UNL     1      40.566 -25.761 -14.687  0.00  0.00    +0.063 S 
ATOM     10  O   UNL     1      40.631 -26.033 -16.117  0.00  0.00    -0.153 OA
ATOM     11  O   UNL     1      41.020 -24.483 -14.154  0.00  0.00    -0.153 OA
BRANCH   9  12
ATOM     12  N   UNL     1      41.413 -27.016 -13.876  0.00  0.00    -0.203 NA
ATOM     13  H   UNL     1      42.332 -27.137 -14.301  0.00  0.00    +0.144 HD
ATOM     14  H   UNL     1      40.887 -27.887 -13.953  0.00  0.00    +0.144 HD
ENDBRANCH   9  12
ENDBRANCH   6   9
ENDBRANCH   1   5
BRANCH   1  15
ATOM     15  N   UNL     1      34.106 -24.593 -12.675  0.00  0.00    -0.174 NA
ATOM     16  H   UNL     1      33.464 -24.143 -12.024  0.00  0.00    +0.149 HD
BRANCH  15  17
ATOM     17  C   UNL     1      33.935 -23.934 -13.993  0.00  0.00    +0.118 C 
BRANCH  17  18
ATOM     18  C   UNL     1      32.538 -24.034 -14.509  0.00  0.00    -0.005 C 
ATOM     19  C   UNL     1      31.658 -24.965 -13.961  0.00  0.00    -0.003 C 
ATOM     20  C   UNL     1      32.115 -23.194 -15.539  0.00  0.00    -0.003 C 
ATOM     21  C   UNL     1      29.927 -24.220 -15.473  0.00  0.00    -0.022 C 
ATOM     22  C   UNL     1      30.352 -25.058 -14.443  0.00  0.00    -0.005 C 
ATOM     23  C   UNL     1      30.809 -23.287 -16.022  0.00  0.00    -0.005 C 
ATOM     24  C   UNL     1      28.532 -24.320 -15.990  0.00  0.00    +0.031 C 
ENDBRANCH  17  18
ENDBRANCH  15  17
ENDBRANCH   1  15
TORSDOF 6
ENDMDL
MODEL 3
REMARK VINA RESULT:      -9.4      1.624      2.347
REMARK  Name = 444607
REMARK  6 active torsions:
REMARK  status: ('A' for Active; 'I' for Inactive)
REMARK    1  A    between atoms: S_1  and  C_5
REMARK    2  A    between atoms: S_1  and  N_15
REMARK    3  A    between atoms: C_6  and  S_9
REMARK    4  A    between atoms: S_9  and  N_12
REMARK    5  A    between atoms: N_15  and  C_17
REMARK    6  A    between atoms: C_17  and  C_18
REMARK                            x       y       z     vdW  Elec       q    Type
REMARK                         _______ _______ _______ _____ _____    ______ ____
ROOT
ATOM      1  S   UNL     1      35.433 -23.966 -12.768  0.00  0.00    +0.066 S 
ATOM      2  O   UNL     1      34.485 -24.867 -12.141  0.00  0.00    -0.152 OA
ATOM      3  O   UNL     1      36.237 -23.050 -11.981  0.00  0.00    -0.152 OA
ENDROOT
BRANCH   1   5
ATOM      4  S   UNL     1      38.209 -24.356 -13.596  0.00  0.00    -0.047 S 
ATOM      5  C   UNL     1      36.648 -25.023 -13.555  0.00  0.00    +0.153 C 
ATOM      6  C   UNL     1      38.806 -25.746 -14.398  0.00  0.00    +0.152 C 
ATOM      7  C   UNL     1      36.555 -26.250 -14.120  0.00  0.00    +0.029 C 
ATOM      8  C   UNL     1      37.818 -26.681 -14.617  0.00  0.00    +0.028 C 
BRANCH   6   9
ATOM      9  S   UNL     1      40.523 -25.699 -14.773  0.00  0.00    +0.063 S 
ATOM     10  O   UNL     1      40.630 -26.000 -16.196  0.00  0.00    -0.153 OA
ATOM     11  O   UNL     1      40.990 -24.422 -14.248  0.00  0.00    -0.153 OA
BRANCH   9  12
ATOM     12  N   UNL     1      41.308 -26.959 -13.910  0.00  0.00    -0.203 NA
ATOM     13  H   UNL     1      41.104 -27.855 -14.354  0.00  0.00    +0.144 HD
ATOM     14  H   UNL     1      40.971 -26.973 -12.947  0.00  0.00    +0.144 HD
ENDBRANCH   9  12
ENDBRANCH   6   9
ENDBRANCH   1   5
BRANCH   1  15
ATOM     15  N   UNL     1      34.650 -23.086 -14.006  0.00  0.00    -0.174 NA
ATOM     16  H   UNL     1      35.240 -22.285 -14.231  0.00  0.00    +0.149 HD
BRANCH  15  17
ATOM     17  C   UNL     1      34.358 -23.791 -15.278  0.00  0.00    +0.118 C 
BRANCH  17  18
ATOM     18  C   UNL     1      34.890 -23.070 -16.471  0.00  0.00    -0.005 C 
ATOM     19  C   UNL     1      34.092 -22.912 -17.604  0.00  0.00    -0.003 C 
ATOM     20  C   UNL     1      36.185 -22.553 -16.451  0.00  0.00    -0.003 C 
ATOM     21  C   UNL     1      35.885 -21.719 -18.700  0.00  0.00    -0.022 C 
ATOM     22  C   UNL     1      34.590 -22.237 -18.718  0.00  0.00    -0.005 C 
ATOM     23  C   UNL     1      36.683 -21.877 -17.567  0.00  0.00    -0.005 C 
ATOM     24  C   UNL     1      36.418 -20.999 -19.892  0.00  0.00    +0.031 C 
ENDBRANCH  17  18
ENDBRANCH  15  17
ENDBRANCH   1  15
TORSDOF 6
ENDMDL
MODEL 4
REMARK VINA RESULT:      -9.4      8.632     10.854
REMARK  Name = 444607
REMARK  6 active torsions:
REMARK  status: ('A' for Active; 'I' for Inactive)
REMARK    1  A    between atoms: S_1  and  C_5
REMARK    2  A    between atoms: S_1  and  N_15
REMARK    3  A    between atoms: C_6  and  S_9
REMARK    4  A    between atoms: S_9  and  N_12
REMARK    5  A    between atoms: N_15  and  C_17
REMARK    6  A    between atoms: C_17  and  C_18
REMARK                            x       y       z     vdW  Elec       q    Type
REMARK                         _______ _______ _______ _____ _____    ______ ____
ROOT
ATOM      1  S   UNL     1      35.712 -18.462 -22.005  0.00  0.00    +0.066 S 
ATOM      2  O   UNL     1      37.014 -18.692 -21.408  0.00  0.00    -0.152 OA
ATOM      3  O   UNL     1      35.451 -18.792 -23.393  0.00  0.00    -0.152 OA
ENDROOT
BRANCH   1   5
ATOM      4  S   UNL     1      35.343 -20.786 -20.272  0.00  0.00    -0.047 S 
ATOM      5  C   UNL     1      34.579 -19.516 -21.100  0.00  0.00    +0.153 C 
ATOM      6  C   UNL     1      33.833 -21.340 -19.683  0.00  0.00    +0.152 C 
ATOM      7  C   UNL     1      33.233 -19.489 -20.953  0.00  0.00    +0.029 C 
ATOM      8  C   UNL     1      32.789 -20.557 -20.122  0.00  0.00    +0.028 C 
BRANCH   6   9
ATOM      9  S   UNL     1      33.921 -22.766 -18.659  0.00  0.00    +0.063 S 
ATOM     10  O   UNL     1      33.947 -23.908 -19.565  0.00  0.00    -0.153 OA
ATOM     11  O   UNL     1      35.032 -22.513 -17.751  0.00  0.00    -0.153 OA
BRANCH   9  12
ATOM     12  N   UNL     1      32.478 -22.866 -17.732  0.00  0.00    -0.203 NA
ATOM     13  H   UNL     1      31.783 -22.224 -18.113  0.00  0.00    +0.144 HD
ATOM     14  H   UNL     1      32.677 -22.614 -16.764  0.00  0.00    +0.144 HD
ENDBRANCH   9  12
ENDBRANCH   6   9
ENDBRANCH   1   5
BRANCH   1  15
ATOM     15  N   UNL     1      35.233 -16.845 -21.723  0.00  0.00    -0.174 NA
ATOM     16  H   UNL     1      36.050 -16.342 -21.380  0.00  0.00    +0.149 HD
BRANCH  15  17
ATOM     17  C   UNL     1      34.688 -16.076 -22.868  0.00  0.00    +0.118 C 
BRANCH  17  18
ATOM     18  C   UNL     1      33.795 -14.961 -22.437  0.00  0.00    -0.005 C 
ATOM     19  C   UNL     1      33.307 -14.055 -23.378  0.00  0.00    -0.003 C 
ATOM     20  C   UNL     1      33.447 -14.826 -21.093  0.00  0.00    -0.003 C 
ATOM     21  C   UNL     1      32.123 -12.878 -21.632  0.00  0.00    -0.022 C 
ATOM     22  C   UNL     1      32.471 -13.014 -22.976  0.00  0.00    -0.005 C 
ATOM     23  C   UNL     1      32.611 -13.784 -20.690  0.00  0.00    -0.005 C 
ATOM     24  C   UNL     1      31.231 -11.763 -21.201  0.00  0.00    +0.031 C 
ENDBRANCH  17  18
ENDBRANCH  15  17
ENDBRANCH   1  15
TORSDOF 6
ENDMDL
MODEL 5
REMARK VINA RESULT:      -9.2      4.571      6.476
REMARK  Name = 444607
REMARK  6 active torsions:
REMARK  status: ('A' for Active; 'I' for Inactive)
REMARK    1  A    between atoms: S_1  and  C_5
REMARK    2  A    between atoms: S_1  and  N_15
REMARK    3  A    between atoms: C_6  and  S_9
REMARK    4  A    between atoms: S_9  and  N_12
REMARK    5  A    between atoms: N_15  and  C_17
REMARK    6  A    between atoms: C_17  and  C_18
REMARK                            x       y       z     vdW  Elec       q    Type
REMARK                         _______ _______ _______ _____ _____    ______ ____
ROOT
ATOM      1  S   UNL     1      33.494 -22.989 -18.007  0.00  0.00    +0.066 S 
ATOM      2  O   UNL     1      33.700 -24.242 -18.708  0.00  0.00    -0.152 OA
ATOM      3  O   UNL     1      32.283 -22.213 -18.191  0.00  0.00    -0.152 OA
ENDROOT
BRANCH   1   5
ATOM      4  S   UNL     1      35.000 -23.656 -15.593  0.00  0.00    -0.047 S 
ATOM      5  C   UNL     1      33.460 -23.416 -16.266  0.00  0.00    +0.153 C 
ATOM      6  C   UNL     1      34.304 -23.997 -14.066  0.00  0.00    +0.152 C 
ATOM      7  C   UNL     1      32.440 -23.581 -15.391  0.00  0.00    +0.029 C 
ATOM      8  C   UNL     1      32.928 -23.922 -14.097  0.00  0.00    +0.028 C 
BRANCH   6   9
ATOM      9  S   UNL     1      35.460 -24.366 -12.795  0.00  0.00    +0.063 S 
ATOM     10  O   UNL     1      36.351 -23.215 -12.719  0.00  0.00    -0.153 OA
ATOM     11  O   UNL     1      34.651 -24.755 -11.647  0.00  0.00    -0.153 OA
BRANCH   9  12
ATOM     12  N   UNL     1      36.396 -25.722 -13.281  0.00  0.00    -0.203 NA
ATOM     13  H   UNL     1      36.509 -26.358 -12.492  0.00  0.00    +0.144 HD
ATOM     14  H   UNL     1      37.314 -25.406 -13.596  0.00  0.00    +0.144 HD
ENDBRANCH   9  12
ENDBRANCH   6   9
ENDBRANCH   1   5
BRANCH   1  15
ATOM     15  N   UNL     1      34.844 -21.969 -18.252  0.00  0.00    -0.174 NA
ATOM     16  H   UNL     1      35.573 -22.270 -17.605  0.00  0.00    +0.149 HD
BRANCH  15  17
ATOM     17  C   UNL     1      35.445 -21.930 -19.607  0.00  0.00    +0.118 C 
BRANCH  17  18
ATOM     18  C   UNL     1      35.275 -20.605 -20.273  0.00  0.00    -0.005 C 
ATOM     19  C   UNL     1      33.997 -20.126 -20.557  0.00  0.00    -0.003 C 
ATOM     20  C   UNL     1      36.396 -19.846 -20.608  0.00  0.00    -0.003 C 
ATOM     21  C   UNL     1      34.959 -18.128 -21.515  0.00  0.00    -0.022 C 
ATOM     22  C   UNL     1      33.839 -18.887 -21.178  0.00  0.00    -0.005 C 
ATOM     23  C   UNL     1      36.238 -18.606 -21.230  0.00  0.00    -0.005 C 
ATOM     24  C   UNL     1      34.790 -16.804 -22.181  0.00  0.00    +0.031 C 
ENDBRANCH  17  18
ENDBRANCH  15  17
ENDBRANCH   1  15
TORSDOF 6
ENDMDL
MODEL 6
REMARK VINA RESULT:      -9.1      5.071      7.723
REMARK  Name = 444607
REMARK  6 active torsions:
REMARK  status: ('A' for Active; 'I' for Inactive)
REMARK    1  A    between atoms: S_1  and  C_5
REMARK    2  A    between atoms: S_1  and  N_15
REMARK    3  A    between atoms: C_6  and  S_9
REMARK    4  A    between atoms: S_9  and  N_12
REMARK    5  A    between atoms: N_15  and  C_17
REMARK    6  A    between atoms: C_17  and  C_18
REMARK                            x       y       z     vdW  Elec       q    Type
REMARK                         _______ _______ _______ _____ _____    ______ ____
ROOT
ATOM      1  S   UNL     1      34.726 -23.397 -15.886  0.00  0.00    +0.066 S 
ATOM      2  O   UNL     1      35.437 -22.390 -15.122  0.00  0.00    -0.152 OA
ATOM      3  O   UNL     1      35.090 -24.799 -15.806  0.00  0.00    -0.152 OA
ENDROOT
BRANCH   1   5
ATOM      4  S   UNL     1      31.876 -23.153 -16.486  0.00  0.00    -0.047 S 
ATOM      5  C   UNL     1      33.043 -23.363 -15.270  0.00  0.00    +0.153 C 
ATOM      6  C   UNL     1      30.621 -23.208 -15.322  0.00  0.00    +0.152 C 
ATOM      7  C   UNL     1      32.529 -23.473 -14.022  0.00  0.00    +0.029 C 
ATOM      8  C   UNL     1      31.108 -23.384 -14.046  0.00  0.00    +0.028 C 
BRANCH   6   9
ATOM      9  S   UNL     1      29.000 -23.033 -15.979  0.00  0.00    +0.063 S 
ATOM     10  O   UNL     1      29.167 -22.451 -17.305  0.00  0.00    -0.153 OA
ATOM     11  O   UNL     1      28.382 -24.343 -15.816  0.00  0.00    -0.153 OA
BRANCH   9  12
ATOM     12  N   UNL     1      28.136 -21.904 -15.016  0.00  0.00    -0.203 NA
ATOM     13  H   UNL     1      28.654 -21.025 -14.974  0.00  0.00    +0.144 HD
ATOM     14  H   UNL     1      28.024 -22.276 -14.073  0.00  0.00    +0.144 HD
ENDBRANCH   9  12
ENDBRANCH   6   9
ENDBRANCH   1   5
BRANCH   1  15
ATOM     15  N   UNL     1      34.673 -22.935 -17.530  0.00  0.00    -0.174 NA
ATOM     16  H   UNL     1      33.853 -22.342 -17.653  0.00  0.00    +0.149 HD
BRANCH  15  17
ATOM     17  C   UNL     1      35.838 -22.199 -18.081  0.00  0.00    +0.118 C 
BRANCH  17  18
ATOM     18  C   UNL     1      35.469 -21.303 -19.214  0.00  0.00    -0.005 C 
ATOM     19  C   UNL     1      34.137 -21.194 -19.612  0.00  0.00    -0.003 C 
ATOM     20  C   UNL     1      36.457 -20.573 -19.876  0.00  0.00    -0.003 C 
ATOM     21  C   UNL     1      34.778 -19.625 -21.333  0.00  0.00    -0.022 C 
ATOM     22  C   UNL     1      33.792 -20.355 -20.671  0.00  0.00    -0.005 C 
ATOM     23  C   UNL     1      36.111 -19.734 -20.936  0.00  0.00    -0.005 C 
ATOM     24  C   UNL     1      34.410 -18.730 -22.468  0.00  0.00    +0.031 C 
ENDBRANCH  17  18
ENDBRANCH  15  17
ENDBRANCH   1  15
TORSDOF 6
ENDMDL
MODEL 7
REMARK VINA RESULT:      -9.0      2.960      3.999
REMARK  Name = 444607
REMARK  6 active torsions:
REMARK  status: ('A' for Active; 'I' for Inactive)
REMARK    1  A    between atoms: S_1  and  C_5
REMARK    2  A    between atoms: S_1  and  N_15
REMARK    3  A    between atoms: C_6  and  S_9
REMARK    4  A    between atoms: S_9  and  N_12
REMARK    5  A    between atoms: N_15  and  C_17
REMARK    6  A    between atoms: C_17  and  C_18
REMARK                            x       y       z     vdW  Elec       q    Type
REMARK                         _______ _______ _______ _____ _____    ______ ____
ROOT
ATOM      1  S   UNL     1      34.550 -23.460 -15.711  0.00  0.00    +0.066 S 
ATOM      2  O   UNL     1      33.388 -23.857 -14.939  0.00  0.00    -0.152 OA
ATOM      3  O   UNL     1      35.190 -22.176 -15.503  0.00  0.00    -0.152 OA
ENDROOT
BRANCH   1   5
ATOM      4  S   UNL     1      37.373 -23.951 -15.135  0.00  0.00    -0.047 S 
ATOM      5  C   UNL     1      35.830 -24.642 -15.287  0.00  0.00    +0.153 C 
ATOM      6  C   UNL     1      38.045 -25.480 -14.758  0.00  0.00    +0.152 C 
ATOM      7  C   UNL     1      35.796 -25.978 -15.065  0.00  0.00    +0.029 C 
ATOM      8  C   UNL     1      37.093 -26.476 -14.754  0.00  0.00    +0.028 C 
BRANCH   6   9
ATOM      9  S   UNL     1      39.777 -25.469 -14.459  0.00  0.00    +0.063 S 
ATOM     10  O   UNL     1      39.967 -24.699 -13.236  0.00  0.00    -0.153 OA
ATOM     11  O   UNL     1      40.182 -26.868 -14.525  0.00  0.00    -0.153 OA
BRANCH   9  12
ATOM     12  N   UNL     1      40.550 -24.622 -15.737  0.00  0.00    -0.203 NA
ATOM     13  H   UNL     1      39.876 -24.010 -16.197  0.00  0.00    +0.144 HD
ATOM     14  H   UNL     1      40.919 -25.290 -16.414  0.00  0.00    +0.144 HD
ENDBRANCH   9  12
ENDBRANCH   6   9
ENDBRANCH   1   5
BRANCH   1  15
ATOM     15  N   UNL     1      34.219 -23.648 -17.377  0.00  0.00    -0.174 NA
ATOM     16  H   UNL     1      33.914 -24.610 -17.520  0.00  0.00    +0.149 HD
BRANCH  15  17
ATOM     17  C   UNL     1      33.193 -22.764 -17.983  0.00  0.00    +0.118 C 
BRANCH  17  18
ATOM     18  C   UNL     1      33.771 -21.808 -18.972  0.00  0.00    -0.005 C 
ATOM     19  C   UNL     1      32.934 -20.944 -19.678  0.00  0.00    -0.003 C 
ATOM     20  C   UNL     1      35.148 -21.778 -19.190  0.00  0.00    -0.003 C 
ATOM     21  C   UNL     1      34.851 -20.019 -20.820  0.00  0.00    -0.022 C 
ATOM     22  C   UNL     1      33.474 -20.050 -20.602  0.00  0.00    -0.005 C 
ATOM     23  C   UNL     1      35.688 -20.883 -20.114  0.00  0.00    -0.005 C 
ATOM     24  C   UNL     1      35.428 -19.064 -21.810  0.00  0.00    +0.031 C 
ENDBRANCH  17  18
ENDBRANCH  15  17
ENDBRANCH   1  15
TORSDOF 6
ENDMDL
MODEL 8
REMARK VINA RESULT:      -9.0      8.604     10.506
REMARK  Name = 444607
REMARK  6 active torsions:
REMARK  status: ('A' for Active; 'I' for Inactive)
REMARK    1  A    between atoms: S_1  and  C_5
REMARK    2  A    between atoms: S_1  and  N_15
REMARK    3  A    between atoms: C_6  and  S_9
REMARK    4  A    between atoms: S_9  and  N_12
REMARK    5  A    between atoms: N_15  and  C_17
REMARK    6  A    between atoms: C_17  and  C_18
REMARK                            x       y       z     vdW  Elec       q    Type
REMARK                         _______ _______ _______ _____ _____    ______ ____
ROOT
ATOM      1  S   UNL     1      35.496 -18.547 -21.750  0.00  0.00    +0.066 S 
ATOM      2  O   UNL     1      36.857 -18.321 -22.196  0.00  0.00    -0.152 OA
ATOM      3  O   UNL     1      34.454 -18.939 -22.679  0.00  0.00    -0.152 OA
ENDROOT
BRANCH   1   5
ATOM      4  S   UNL     1      34.084 -20.639 -20.275  0.00  0.00    -0.047 S 
ATOM      5  C   UNL     1      35.590 -19.930 -20.614  0.00  0.00    +0.153 C 
ATOM      6  C   UNL     1      34.829 -21.779 -19.236  0.00  0.00    +0.152 C 
ATOM      7  C   UNL     1      36.633 -20.515 -19.978  0.00  0.00    +0.029 C 
ATOM      8  C   UNL     1      36.193 -21.601 -19.168  0.00  0.00    +0.028 C 
BRANCH   6   9
ATOM      9  S   UNL     1      33.724 -22.919 -18.483  0.00  0.00    +0.063 S 
ATOM     10  O   UNL     1      32.447 -22.226 -18.373  0.00  0.00    -0.153 OA
ATOM     11  O   UNL     1      33.841 -24.138 -19.274  0.00  0.00    -0.153 OA
BRANCH   9  12
ATOM     12  N   UNL     1      34.279 -23.252 -16.892  0.00  0.00    -0.203 NA
ATOM     13  H   UNL     1      35.287 -23.410 -16.908  0.00  0.00    +0.144 HD
ATOM     14  H   UNL     1      33.811 -24.086 -16.536  0.00  0.00    +0.144 HD
ENDBRANCH   9  12
ENDBRANCH   6   9
ENDBRANCH   1   5
BRANCH   1  15
ATOM     15  N   UNL     1      34.956 -17.194 -20.856  0.00  0.00    -0.174 NA
ATOM     16  H   UNL     1      35.551 -16.406 -21.109  0.00  0.00    +0.149 HD
BRANCH  15  17
ATOM     17  C   UNL     1      33.548 -16.762 -21.037  0.00  0.00    +0.118 C 
BRANCH  17  18
ATOM     18  C   UNL     1      33.436 -15.442 -21.722  0.00  0.00    -0.005 C 
ATOM     19  C   UNL     1      32.548 -14.480 -21.242  0.00  0.00    -0.003 C 
ATOM     20  C   UNL     1      34.220 -15.170 -22.844  0.00  0.00    -0.003 C 
ATOM     21  C   UNL     1      33.227 -12.973 -23.004  0.00  0.00    -0.022 C 
ATOM     22  C   UNL     1      32.444 -13.245 -21.883  0.00  0.00    -0.005 C 
ATOM     23  C   UNL     1      34.115 -13.935 -23.485  0.00  0.00    -0.005 C 
ATOM     24  C   UNL     1      33.114 -11.654 -23.691  0.00  0.00    +0.031 C 
ENDBRANCH  17  18
ENDBRANCH  15  17
ENDBRANCH   1  15
TORSDOF 6
ENDMDL
MODEL 9
REMARK VINA RESULT:      -8.9      5.069      7.594
REMARK  Name = 444607
REMARK  6 active torsions:
REMARK  status: ('A' for Active; 'I' for Inactive)
REMARK    1  A    between atoms: S_1  and  C_5
REMARK    2  A    between atoms: S_1  and  N_15
REMARK    3  A    between atoms: C_6  and  S_9
REMARK    4  A    between atoms: S_9  and  N_12
REMARK    5  A    between atoms: N_15  and  C_17
REMARK    6  A    between atoms: C_17  and  C_18
REMARK                            x       y       z     vdW  Elec       q    Type
REMARK                         _______ _______ _______ _____ _____    ______ ____
ROOT
ATOM      1  S   UNL     1      33.019 -23.944 -13.952  0.00  0.00    +0.066 S 
ATOM      2  O   UNL     1      32.912 -23.259 -12.678  0.00  0.00    -0.152 OA
ATOM      3  O   UNL     1      33.638 -25.251 -14.055  0.00  0.00    -0.152 OA
ENDROOT
BRANCH   1   5
ATOM      4  S   UNL     1      30.727 -23.042 -15.525  0.00  0.00    -0.047 S 
ATOM      5  C   UNL     1      31.330 -24.235 -14.479  0.00  0.00    +0.153 C 
ATOM      6  C   UNL     1      29.226 -23.858 -15.628  0.00  0.00    +0.152 C 
ATOM      7  C   UNL     1      30.450 -25.226 -14.202  0.00  0.00    +0.029 C 
ATOM      8  C   UNL     1      29.212 -25.011 -14.874  0.00  0.00    +0.028 C 
BRANCH   6   9
ATOM      9  S   UNL     1      28.031 -23.077 -16.653  0.00  0.00    +0.063 S 
ATOM     10  O   UNL     1      28.679 -21.884 -17.185  0.00  0.00    -0.153 OA
ATOM     11  O   UNL     1      27.556 -24.124 -17.548  0.00  0.00    -0.153 OA
BRANCH   9  12
ATOM     12  N   UNL     1      26.716 -22.565 -15.673  0.00  0.00    -0.203 NA
ATOM     13  H   UNL     1      26.129 -23.368 -15.445  0.00  0.00    +0.144 HD
ATOM     14  H   UNL     1      26.163 -21.874 -16.179  0.00  0.00    +0.144 HD
ENDBRANCH   9  12
ENDBRANCH   6   9
ENDBRANCH   1   5
BRANCH   1  15
ATOM     15  N   UNL     1      33.736 -22.902 -15.101  0.00  0.00    -0.174 NA
ATOM     16  H   UNL     1      34.090 -22.090 -14.597  0.00  0.00    +0.149 HD
BRANCH  15  17
ATOM     17  C   UNL     1      34.852 -23.437 -15.919  0.00  0.00    +0.118 C 
BRANCH  17  18
ATOM     18  C   UNL     1      35.058 -22.671 -17.182  0.00  0.00    -0.005 C 
ATOM     19  C   UNL     1      36.282 -22.051 -17.431  0.00  0.00    -0.003 C 
ATOM     20  C   UNL     1      34.025 -22.576 -18.115  0.00  0.00    -0.003 C 
ATOM     21  C   UNL     1      35.442 -21.240 -19.546  0.00  0.00    -0.022 C 
ATOM     22  C   UNL     1      36.474 -21.336 -18.613  0.00  0.00    -0.005 C 
ATOM     23  C   UNL     1      34.217 -21.860 -19.298  0.00  0.00    -0.005 C 
ATOM     24  C   UNL     1      35.647 -20.474 -20.809  0.00  0.00    +0.031 C 
ENDBRANCH  17  18
ENDBRANCH  15  17
ENDBRANCH   1  15
TORSDOF 6
ENDMDL
