MODEL 1
REMARK VINA RESULT:     -10.2      0.000      0.000
REMARK  Name = 195347
REMARK  6 active torsions:
REMARK  status: ('A' for Active; 'I' for Inactive)
REMARK    1  A    between atoms: N_2  and  C_18
REMARK    2  A    between atoms: N_3  and  C_9
REMARK    3  A    between atoms: C_15  and  O_21
REMARK    4  A    between atoms: O_21  and  C_22
REMARK    5  A    between atoms: C_22  and  C_26
REMARK    6  A    between atoms: C_26  and  O_27
REMARK                            x       y       z     vdW  Elec       q    Type
REMARK                         _______ _______ _______ _____ _____    ______ ____
ROOT
ATOM      1  O   UNL     1      36.718 -22.008 -16.658  0.00  0.00    -0.252 OA
ATOM      2  N   UNL     1      34.754 -22.718 -17.719  0.00  0.00    -0.268 N 
ATOM      3  N   UNL     1      35.461 -23.781 -15.794  0.00  0.00    -0.268 N 
ATOM      4  C   UNL     1      35.749 -22.759 -16.712  0.00  0.00    +0.308 C 
ATOM      5  H   UNL     1      34.033 -23.384 -17.633  0.00  0.00    +0.156 HD
ATOM      6  H   UNL     1      34.645 -24.302 -15.970  0.00  0.00    +0.156 HD
ENDROOT
BRANCH   3   9
ATOM      7 CL   UNL     1      35.639 -24.256 -10.701  0.00  0.00    -0.082 Cl
ATOM      8 CL   UNL     1      39.822 -25.606 -13.834  0.00  0.00    -0.082 Cl
ATOM      9  C   UNL     1      36.200 -24.154 -14.646  0.00  0.00    +0.053 C 
ATOM     10  C   UNL     1      37.490 -24.636 -14.798  0.00  0.00    +0.026 C 
ATOM     11  C   UNL     1      35.618 -24.032 -13.395  0.00  0.00    +0.026 C 
ATOM     12  C   UNL     1      36.346 -24.401 -12.265  0.00  0.00    +0.060 C 
ATOM     13  C   UNL     1      38.218 -25.005 -13.667  0.00  0.00    +0.060 C 
ATOM     14  C   UNL     1      37.646 -24.888 -12.400  0.00  0.00    +0.023 C 
ENDBRANCH   3   9
BRANCH   2  18
ATOM     15  C   UNL     1      34.467 -20.146 -20.999  0.00  0.00    +0.139 C 
ATOM     16  C   UNL     1      35.712 -20.624 -20.603  0.00  0.00    +0.038 C 
ATOM     17  C   UNL     1      33.317 -20.518 -20.310  0.00  0.00    +0.038 C 
ATOM     18  C   UNL     1      34.658 -21.860 -18.814  0.00  0.00    +0.052 C 
ATOM     19  C   UNL     1      35.808 -21.483 -19.508  0.00  0.00    +0.018 C 
ATOM     20  C   UNL     1      33.413 -21.378 -19.216  0.00  0.00    +0.018 C 
BRANCH  15  21
ATOM     21  O   UNL     1      34.373 -19.305 -22.072  0.00  0.00    -0.472 OA
BRANCH  21  22
ATOM     22  C   UNL     1      35.185 -18.131 -22.038  0.00  0.00    +0.221 C 
ATOM     23  C   UNL     1      36.611 -18.554 -21.696  0.00  0.00    +0.055 C 
ATOM     24  C   UNL     1      34.597 -17.179 -21.001  0.00  0.00    +0.055 C 
BRANCH  22  26
ATOM     25  O   UNL     1      34.613 -18.107 -24.406  0.00  0.00    -0.246 OA
ATOM     26  C   UNL     1      35.107 -17.537 -23.439  0.00  0.00    +0.350 C 
BRANCH  26  27
ATOM     27  O   UNL     1      35.645 -16.294 -23.528  0.00  0.00    -0.478 OA
ATOM     28  H   UNL     1      35.305 -15.679 -24.148  0.00  0.00    +0.295 HD
ENDBRANCH  26  27
ENDBRANCH  22  26
ENDBRANCH  21  22
ENDBRANCH  15  21
ENDBRANCH   2  18
TORSDOF 6
ENDMDL
MODEL 2
REMARK VINA RESULT:     -10.1      0.027      2.049
REMARK  Name = 195347
REMARK  6 active torsions:
REMARK  status: ('A' for Active; 'I' for Inactive)
REMARK    1  A    between atoms: N_2  and  C_18
REMARK    2  A    between atoms: N_3  and  C_9
REMARK    3  A    between atoms: C_15  and  O_21
REMARK    4  A    between atoms: O_21  and  C_22
REMARK    5  A    between atoms: C_22  and  C_26
REMARK    6  A    between atoms: C_26  and  O_27
REMARK                            x       y       z     vdW  Elec       q    Type
REMARK                         _______ _______ _______ _____ _____    ______ ____
ROOT
ATOM      1  O   UNL     1      36.696 -21.986 -16.651  0.00  0.00    -0.252 OA
ATOM      2  N   UNL     1      34.738 -22.705 -17.718  0.00  0.00    -0.268 N 
ATOM      3  N   UNL     1      35.447 -23.769 -15.795  0.00  0.00    -0.268 N 
ATOM      4  C   UNL     1      35.731 -22.743 -16.710  0.00  0.00    +0.308 C 
ATOM      5  H   UNL     1      34.021 -23.375 -17.636  0.00  0.00    +0.156 HD
ATOM      6  H   UNL     1      34.635 -24.295 -15.974  0.00  0.00    +0.156 HD
ENDROOT
BRANCH   3   9
ATOM      7 CL   UNL     1      39.806 -25.595 -13.831  0.00  0.00    -0.082 Cl
ATOM      8 CL   UNL     1      35.626 -24.231 -10.701  0.00  0.00    -0.082 Cl
ATOM      9  C   UNL     1      36.186 -24.141 -14.647  0.00  0.00    +0.053 C 
ATOM     10  C   UNL     1      35.603 -24.014 -13.396  0.00  0.00    +0.026 C 
ATOM     11  C   UNL     1      37.475 -24.625 -14.796  0.00  0.00    +0.026 C 
ATOM     12  C   UNL     1      38.202 -24.992 -13.665  0.00  0.00    +0.060 C 
ATOM     13  C   UNL     1      36.331 -24.381 -12.263  0.00  0.00    +0.060 C 
ATOM     14  C   UNL     1      37.631 -24.870 -12.399  0.00  0.00    +0.023 C 
ENDBRANCH   3   9
BRANCH   2  18
ATOM     15  C   UNL     1      34.445 -20.129 -20.994  0.00  0.00    +0.139 C 
ATOM     16  C   UNL     1      33.294 -20.513 -20.313  0.00  0.00    +0.038 C 
ATOM     17  C   UNL     1      35.692 -20.596 -20.593  0.00  0.00    +0.038 C 
ATOM     18  C   UNL     1      34.640 -21.844 -18.812  0.00  0.00    +0.052 C 
ATOM     19  C   UNL     1      33.391 -21.373 -19.219  0.00  0.00    +0.018 C 
ATOM     20  C   UNL     1      35.789 -21.455 -19.498  0.00  0.00    +0.018 C 
BRANCH  15  21
ATOM     21  O   UNL     1      34.349 -19.286 -22.066  0.00  0.00    -0.472 OA
BRANCH  21  22
ATOM     22  C   UNL     1      35.166 -18.115 -22.035  0.00  0.00    +0.221 C 
ATOM     23  C   UNL     1      36.585 -18.541 -21.668  0.00  0.00    +0.055 C 
ATOM     24  C   UNL     1      34.569 -17.149 -21.018  0.00  0.00    +0.055 C 
BRANCH  22  26
ATOM     25  O   UNL     1      34.638 -18.121 -24.413  0.00  0.00    -0.246 OA
ATOM     26  C   UNL     1      35.111 -17.538 -23.444  0.00  0.00    +0.350 C 
BRANCH  26  27
ATOM     27  O   UNL     1      35.642 -16.292 -23.536  0.00  0.00    -0.478 OA
ATOM     28  H   UNL     1      35.934 -15.968 -24.366  0.00  0.00    +0.295 HD
ENDBRANCH  26  27
ENDBRANCH  22  26
ENDBRANCH  21  22
ENDBRANCH  15  21
ENDBRANCH   2  18
TORSDOF 6
ENDMDL
MODEL 3
REMARK VINA RESULT:      -9.8      7.574     10.643
REMARK  Name = 195347
REMARK  6 active torsions:
REMARK  status: ('A' for Active; 'I' for Inactive)
REMARK    1  A    between atoms: N_2  and  C_18
REMARK    2  A    between atoms: N_3  and  C_9
REMARK    3  A    between atoms: C_15  and  O_21
REMARK    4  A    between atoms: O_21  and  C_22
REMARK    5  A    between atoms: C_22  and  C_26
REMARK    6  A    between atoms: C_26  and  O_27
REMARK                            x       y       z     vdW  Elec       q    Type
REMARK                         _______ _______ _______ _____ _____    ______ ____
ROOT
ATOM      1  O   UNL     1      33.725 -14.532 -21.035  0.00  0.00    -0.252 OA
ATOM      2  N   UNL     1      33.211 -13.881 -23.226  0.00  0.00    -0.268 N 
ATOM      3  N   UNL     1      33.959 -16.028 -22.817  0.00  0.00    -0.268 N 
ATOM      4  C   UNL     1      33.642 -14.792 -22.232  0.00  0.00    +0.308 C 
ATOM      5  H   UNL     1      33.196 -14.231 -24.147  0.00  0.00    +0.156 HD
ATOM      6  H   UNL     1      33.843 -16.086 -23.793  0.00  0.00    +0.156 HD
ENDROOT
BRANCH   3   9
ATOM      7 CL   UNL     1      32.871 -20.239 -20.120  0.00  0.00    -0.082 Cl
ATOM      8 CL   UNL     1      37.921 -19.027 -21.590  0.00  0.00    -0.082 Cl
ATOM      9  C   UNL     1      34.427 -17.201 -22.178  0.00  0.00    +0.053 C 
ATOM     10  C   UNL     1      35.781 -17.491 -22.202  0.00  0.00    +0.026 C 
ATOM     11  C   UNL     1      33.521 -18.035 -21.544  0.00  0.00    +0.026 C 
ATOM     12  C   UNL     1      33.982 -19.190 -20.914  0.00  0.00    +0.060 C 
ATOM     13  C   UNL     1      36.243 -18.648 -21.572  0.00  0.00    +0.060 C 
ATOM     14  C   UNL     1      35.342 -19.497 -20.929  0.00  0.00    +0.023 C 
ENDBRANCH   3   9
BRANCH   2  18
ATOM     15  C   UNL     1      31.992  -9.911 -22.778  0.00  0.00    +0.139 C 
ATOM     16  C   UNL     1      31.365 -10.912 -22.044  0.00  0.00    +0.038 C 
ATOM     17  C   UNL     1      33.022 -10.221 -23.659  0.00  0.00    +0.038 C 
ATOM     18  C   UNL     1      32.804 -12.555 -23.076  0.00  0.00    +0.052 C 
ATOM     19  C   UNL     1      31.772 -12.238 -22.193  0.00  0.00    +0.018 C 
ATOM     20  C   UNL     1      33.429 -11.547 -23.808  0.00  0.00    +0.018 C 
BRANCH  15  21
ATOM     21  O   UNL     1      31.594  -8.611 -22.630  0.00  0.00    -0.472 OA
BRANCH  21  22
ATOM     22  C   UNL     1      32.403  -7.784 -21.793  0.00  0.00    +0.221 C 
ATOM     23  C   UNL     1      33.754  -7.599 -22.477  0.00  0.00    +0.055 C 
ATOM     24  C   UNL     1      32.528  -8.468 -20.435  0.00  0.00    +0.055 C 
BRANCH  22  26
ATOM     25  O   UNL     1      30.749  -6.111 -22.423  0.00  0.00    -0.246 OA
ATOM     26  C   UNL     1      31.656  -6.461 -21.677  0.00  0.00    +0.350 C 
BRANCH  26  27
ATOM     27  O   UNL     1      32.093  -5.684 -20.654  0.00  0.00    -0.478 OA
ATOM     28  H   UNL     1      31.578  -4.956 -20.366  0.00  0.00    +0.295 HD
ENDBRANCH  26  27
ENDBRANCH  22  26
ENDBRANCH  21  22
ENDBRANCH  15  21
ENDBRANCH   2  18
TORSDOF 6
ENDMDL
MODEL 4
REMARK VINA RESULT:      -9.8      7.567     10.722
REMARK  Name = 195347
REMARK  6 active torsions:
REMARK  status: ('A' for Active; 'I' for Inactive)
REMARK    1  A    between atoms: N_2  and  C_18
REMARK    2  A    between atoms: N_3  and  C_9
REMARK    3  A    between atoms: C_15  and  O_21
REMARK    4  A    between atoms: O_21  and  C_22
REMARK    5  A    between atoms: C_22  and  C_26
REMARK    6  A    between atoms: C_26  and  O_27
REMARK                            x       y       z     vdW  Elec       q    Type
REMARK                         _______ _______ _______ _____ _____    ______ ____
ROOT
ATOM      1  O   UNL     1      33.698 -14.547 -21.012  0.00  0.00    -0.252 OA
ATOM      2  N   UNL     1      33.204 -13.891 -23.206  0.00  0.00    -0.268 N 
ATOM      3  N   UNL     1      33.955 -16.036 -22.796  0.00  0.00    -0.268 N 
ATOM      4  C   UNL     1      33.628 -14.803 -22.210  0.00  0.00    +0.308 C 
ATOM      5  H   UNL     1      33.199 -14.238 -24.128  0.00  0.00    +0.156 HD
ATOM      6  H   UNL     1      33.849 -16.091 -23.774  0.00  0.00    +0.156 HD
ENDROOT
BRANCH   3   9
ATOM      7 CL   UNL     1      37.912 -19.033 -21.549  0.00  0.00    -0.082 Cl
ATOM      8 CL   UNL     1      32.854 -20.250 -20.108  0.00  0.00    -0.082 Cl
ATOM      9  C   UNL     1      34.420 -17.210 -22.157  0.00  0.00    +0.053 C 
ATOM     10  C   UNL     1      33.510 -18.044 -21.527  0.00  0.00    +0.026 C 
ATOM     11  C   UNL     1      35.774 -17.500 -22.172  0.00  0.00    +0.026 C 
ATOM     12  C   UNL     1      36.232 -18.656 -21.541  0.00  0.00    +0.060 C 
ATOM     13  C   UNL     1      33.968 -19.201 -20.896  0.00  0.00    +0.060 C 
ATOM     14  C   UNL     1      35.329 -19.506 -20.903  0.00  0.00    +0.023 C 
ENDBRANCH   3   9
BRANCH   2  18
ATOM     15  C   UNL     1      31.970  -9.926 -22.751  0.00  0.00    +0.139 C 
ATOM     16  C   UNL     1      33.006 -10.230 -23.629  0.00  0.00    +0.038 C 
ATOM     17  C   UNL     1      31.342 -10.932 -22.025  0.00  0.00    +0.038 C 
ATOM     18  C   UNL     1      32.792 -12.567 -23.055  0.00  0.00    +0.052 C 
ATOM     19  C   UNL     1      33.418 -11.554 -23.781  0.00  0.00    +0.018 C 
ATOM     20  C   UNL     1      31.754 -12.256 -22.178  0.00  0.00    +0.018 C 
BRANCH  15  21
ATOM     21  O   UNL     1      31.565  -8.628 -22.603  0.00  0.00    -0.472 OA
BRANCH  21  22
ATOM     22  C   UNL     1      32.381  -7.794 -21.779  0.00  0.00    +0.221 C 
ATOM     23  C   UNL     1      33.731  -7.625 -22.468  0.00  0.00    +0.055 C 
ATOM     24  C   UNL     1      32.506  -8.459 -20.412  0.00  0.00    +0.055 C 
BRANCH  22  26
ATOM     25  O   UNL     1      30.705  -6.139 -22.402  0.00  0.00    -0.246 OA
ATOM     26  C   UNL     1      31.642  -6.465 -21.681  0.00  0.00    +0.350 C 
BRANCH  26  27
ATOM     27  O   UNL     1      32.120  -5.654 -20.703  0.00  0.00    -0.478 OA
ATOM     28  H   UNL     1      32.091  -4.724 -20.810  0.00  0.00    +0.295 HD
ENDBRANCH  26  27
ENDBRANCH  22  26
ENDBRANCH  21  22
ENDBRANCH  15  21
ENDBRANCH   2  18
TORSDOF 6
ENDMDL
MODEL 5
REMARK VINA RESULT:      -9.7      4.604      9.757
REMARK  Name = 195347
REMARK  6 active torsions:
REMARK  status: ('A' for Active; 'I' for Inactive)
REMARK    1  A    between atoms: N_2  and  C_18
REMARK    2  A    between atoms: N_3  and  C_9
REMARK    3  A    between atoms: C_15  and  O_21
REMARK    4  A    between atoms: O_21  and  C_22
REMARK    5  A    between atoms: C_22  and  C_26
REMARK    6  A    between atoms: C_26  and  O_27
REMARK                            x       y       z     vdW  Elec       q    Type
REMARK                         _______ _______ _______ _____ _____    ______ ____
ROOT
ATOM      1  O   UNL     1      36.737 -20.123 -19.230  0.00  0.00    -0.252 OA
ATOM      2  N   UNL     1      35.229 -21.736 -18.447  0.00  0.00    -0.268 N 
ATOM      3  N   UNL     1      34.689 -20.472 -20.303  0.00  0.00    -0.268 N 
ATOM      4  C   UNL     1      35.664 -20.712 -19.322  0.00  0.00    +0.308 C 
ATOM      5  H   UNL     1      34.343 -22.118 -18.644  0.00  0.00    +0.156 HD
ATOM      6  H   UNL     1      33.876 -21.025 -20.248  0.00  0.00    +0.156 HD
ENDROOT
BRANCH   3   9
ATOM      7 CL   UNL     1      34.832 -19.606 -25.345  0.00  0.00    -0.082 Cl
ATOM      8 CL   UNL     1      34.792 -15.568 -21.764  0.00  0.00    -0.082 Cl
ATOM      9  C   UNL     1      34.729 -19.533 -21.361  0.00  0.00    +0.053 C 
ATOM     10  C   UNL     1      34.739 -18.180 -21.066  0.00  0.00    +0.026 C 
ATOM     11  C   UNL     1      34.757 -19.987 -22.670  0.00  0.00    +0.026 C 
ATOM     12  C   UNL     1      34.797 -19.062 -23.712  0.00  0.00    +0.060 C 
ATOM     13  C   UNL     1      34.779 -17.254 -22.109  0.00  0.00    +0.060 C 
ATOM     14  C   UNL     1      34.807 -17.696 -23.432  0.00  0.00    +0.023 C 
ENDBRANCH   3   9
BRANCH   2  18
ATOM     15  C   UNL     1      37.206 -23.354 -15.141  0.00  0.00    +0.139 C 
ATOM     16  C   UNL     1      35.826 -23.489 -15.254  0.00  0.00    +0.038 C 
ATOM     17  C   UNL     1      37.932 -22.685 -16.121  0.00  0.00    +0.038 C 
ATOM     18  C   UNL     1      35.889 -22.277 -17.343  0.00  0.00    +0.052 C 
ATOM     19  C   UNL     1      35.165 -22.949 -16.358  0.00  0.00    +0.018 C 
ATOM     20  C   UNL     1      37.272 -22.146 -17.225  0.00  0.00    +0.018 C 
BRANCH  15  21
ATOM     21  O   UNL     1      37.853 -23.884 -14.060  0.00  0.00    -0.472 OA
BRANCH  21  22
ATOM     22  C   UNL     1      38.241 -25.255 -14.155  0.00  0.00    +0.221 C 
ATOM     23  C   UNL     1      37.301 -25.945 -15.139  0.00  0.00    +0.055 C 
ATOM     24  C   UNL     1      38.169 -25.864 -12.758  0.00  0.00    +0.055 C 
BRANCH  22  26
ATOM     25  O   UNL     1      40.622 -24.745 -14.082  0.00  0.00    -0.246 OA
ATOM     26  C   UNL     1      39.672 -25.242 -14.677  0.00  0.00    +0.350 C 
BRANCH  26  27
ATOM     27  O   UNL     1      39.809 -25.841 -15.887  0.00  0.00    -0.478 OA
ATOM     28  H   UNL     1      40.433 -25.513 -16.505  0.00  0.00    +0.295 HD
ENDBRANCH  26  27
ENDBRANCH  22  26
ENDBRANCH  21  22
ENDBRANCH  15  21
ENDBRANCH   2  18
TORSDOF 6
ENDMDL
MODEL 6
REMARK VINA RESULT:      -9.6      4.603      9.659
REMARK  Name = 195347
REMARK  6 active torsions:
REMARK  status: ('A' for Active; 'I' for Inactive)
REMARK    1  A    between atoms: N_2  and  C_18
REMARK    2  A    between atoms: N_3  and  C_9
REMARK    3  A    between atoms: C_15  and  O_21
REMARK    4  A    between atoms: O_21  and  C_22
REMARK    5  A    between atoms: C_22  and  C_26
REMARK    6  A    between atoms: C_26  and  O_27
REMARK                            x       y       z     vdW  Elec       q    Type
REMARK                         _______ _______ _______ _____ _____    ______ ____
ROOT
ATOM      1  O   UNL     1      36.736 -20.121 -19.229  0.00  0.00    -0.252 OA
ATOM      2  N   UNL     1      35.230 -21.737 -18.448  0.00  0.00    -0.268 N 
ATOM      3  N   UNL     1      34.690 -20.472 -20.304  0.00  0.00    -0.268 N 
ATOM      4  C   UNL     1      35.664 -20.711 -19.322  0.00  0.00    +0.308 C 
ATOM      5  H   UNL     1      34.345 -22.120 -18.646  0.00  0.00    +0.156 HD
ATOM      6  H   UNL     1      33.877 -21.027 -20.249  0.00  0.00    +0.156 HD
ENDROOT
BRANCH   3   9
ATOM      7 CL   UNL     1      34.795 -15.568 -21.762  0.00  0.00    -0.082 Cl
ATOM      8 CL   UNL     1      34.831 -19.604 -25.345  0.00  0.00    -0.082 Cl
ATOM      9  C   UNL     1      34.729 -19.533 -21.361  0.00  0.00    +0.053 C 
ATOM     10  C   UNL     1      34.757 -19.987 -22.670  0.00  0.00    +0.026 C 
ATOM     11  C   UNL     1      34.741 -18.180 -21.066  0.00  0.00    +0.026 C 
ATOM     12  C   UNL     1      34.780 -17.254 -22.109  0.00  0.00    +0.060 C 
ATOM     13  C   UNL     1      34.796 -19.061 -23.713  0.00  0.00    +0.060 C 
ATOM     14  C   UNL     1      34.808 -17.695 -23.432  0.00  0.00    +0.023 C 
ENDBRANCH   3   9
BRANCH   2  18
ATOM     15  C   UNL     1      37.209 -23.355 -15.143  0.00  0.00    +0.139 C 
ATOM     16  C   UNL     1      35.828 -23.486 -15.254  0.00  0.00    +0.038 C 
ATOM     17  C   UNL     1      37.935 -22.689 -16.124  0.00  0.00    +0.038 C 
ATOM     18  C   UNL     1      35.891 -22.278 -17.345  0.00  0.00    +0.052 C 
ATOM     19  C   UNL     1      35.167 -22.946 -16.357  0.00  0.00    +0.018 C 
ATOM     20  C   UNL     1      37.274 -22.150 -17.228  0.00  0.00    +0.018 C 
BRANCH  15  21
ATOM     21  O   UNL     1      37.856 -23.884 -14.061  0.00  0.00    -0.472 OA
BRANCH  21  22
ATOM     22  C   UNL     1      38.244 -25.256 -14.156  0.00  0.00    +0.221 C 
ATOM     23  C   UNL     1      37.302 -25.946 -15.139  0.00  0.00    +0.055 C 
ATOM     24  C   UNL     1      38.174 -25.864 -12.759  0.00  0.00    +0.055 C 
BRANCH  22  26
ATOM     25  O   UNL     1      40.628 -24.763 -14.078  0.00  0.00    -0.246 OA
ATOM     26  C   UNL     1      39.675 -25.242 -14.681  0.00  0.00    +0.350 C 
BRANCH  26  27
ATOM     27  O   UNL     1      39.806 -25.820 -15.902  0.00  0.00    -0.478 OA
ATOM     28  H   UNL     1      39.942 -26.745 -15.970  0.00  0.00    +0.295 HD
ENDBRANCH  26  27
ENDBRANCH  22  26
ENDBRANCH  21  22
ENDBRANCH  15  21
ENDBRANCH   2  18
TORSDOF 6
ENDMDL
MODEL 7
REMARK VINA RESULT:      -9.6      5.478     10.321
REMARK  Name = 195347
REMARK  6 active torsions:
REMARK  status: ('A' for Active; 'I' for Inactive)
REMARK    1  A    between atoms: N_2  and  C_18
REMARK    2  A    between atoms: N_3  and  C_9
REMARK    3  A    between atoms: C_15  and  O_21
REMARK    4  A    between atoms: O_21  and  C_22
REMARK    5  A    between atoms: C_22  and  C_26
REMARK    6  A    between atoms: C_26  and  O_27
REMARK                            x       y       z     vdW  Elec       q    Type
REMARK                         _______ _______ _______ _____ _____    ______ ____
ROOT
ATOM      1  O   UNL     1      33.012 -18.265 -20.692  0.00  0.00    -0.252 OA
ATOM      2  N   UNL     1      35.005 -19.469 -20.949  0.00  0.00    -0.268 N 
ATOM      3  N   UNL     1      34.655 -17.559 -22.199  0.00  0.00    -0.268 N 
ATOM      4  C   UNL     1      34.108 -18.410 -21.227  0.00  0.00    +0.308 C 
ATOM      5  H   UNL     1      35.850 -19.456 -21.456  0.00  0.00    +0.156 HD
ATOM      6  H   UNL     1      35.547 -17.806 -22.536  0.00  0.00    +0.156 HD
ENDROOT
BRANCH   3   9
ATOM      7 CL   UNL     1      33.521 -14.840 -26.384  0.00  0.00    -0.082 Cl
ATOM      8 CL   UNL     1      32.278 -13.092 -21.431  0.00  0.00    -0.082 Cl
ATOM      9  C   UNL     1      34.084 -16.389 -22.755  0.00  0.00    +0.053 C 
ATOM     10  C   UNL     1      33.532 -15.439 -21.912  0.00  0.00    +0.026 C 
ATOM     11  C   UNL     1      34.088 -16.220 -24.130  0.00  0.00    +0.026 C 
ATOM     12  C   UNL     1      33.526 -15.068 -24.677  0.00  0.00    +0.060 C 
ATOM     13  C   UNL     1      32.969 -14.286 -22.460  0.00  0.00    +0.060 C 
ATOM     14  C   UNL     1      32.966 -14.101 -23.843  0.00  0.00    +0.023 C 
ENDBRANCH   3   9
BRANCH   2  18
ATOM     15  C   UNL     1      34.549 -22.639 -18.266  0.00  0.00    +0.139 C 
ATOM     16  C   UNL     1      35.817 -22.125 -18.519  0.00  0.00    +0.038 C 
ATOM     17  C   UNL     1      33.432 -22.105 -18.899  0.00  0.00    +0.038 C 
ATOM     18  C   UNL     1      34.853 -20.527 -20.052  0.00  0.00    +0.052 C 
ATOM     19  C   UNL     1      35.970 -21.067 -19.415  0.00  0.00    +0.018 C 
ATOM     20  C   UNL     1      33.585 -21.046 -19.794  0.00  0.00    +0.018 C 
BRANCH  15  21
ATOM     21  O   UNL     1      34.400 -23.676 -17.387  0.00  0.00    -0.472 OA
BRANCH  21  22
ATOM     22  C   UNL     1      34.516 -23.360 -15.999  0.00  0.00    +0.221 C 
ATOM     23  C   UNL     1      33.139 -22.935 -15.496  0.00  0.00    +0.055 C 
ATOM     24  C   UNL     1      35.555 -22.254 -15.851  0.00  0.00    +0.055 C 
BRANCH  22  26
ATOM     25  O   UNL     1      35.965 -25.289 -15.660  0.00  0.00    -0.246 OA
ATOM     26  C   UNL     1      34.977 -24.645 -15.323  0.00  0.00    +0.350 C 
BRANCH  26  27
ATOM     27  O   UNL     1      34.182 -25.026 -14.291  0.00  0.00    -0.478 OA
ATOM     28  H   UNL     1      34.401 -24.778 -13.414  0.00  0.00    +0.295 HD
ENDBRANCH  26  27
ENDBRANCH  22  26
ENDBRANCH  21  22
ENDBRANCH  15  21
ENDBRANCH   2  18
TORSDOF 6
ENDMDL
MODEL 8
REMARK VINA RESULT:      -9.6      5.484     10.243
REMARK  Name = 195347
REMARK  6 active torsions:
REMARK  status: ('A' for Active; 'I' for Inactive)
REMARK    1  A    between atoms: N_2  and  C_18
REMARK    2  A    between atoms: N_3  and  C_9
REMARK    3  A    between atoms: C_15  and  O_21
REMARK    4  A    between atoms: O_21  and  C_22
REMARK    5  A    between atoms: C_22  and  C_26
REMARK    6  A    between atoms: C_26  and  O_27
REMARK                            x       y       z     vdW  Elec       q    Type
REMARK                         _______ _______ _______ _____ _____    ______ ____
ROOT
ATOM      1  O   UNL     1      32.996 -18.284 -20.724  0.00  0.00    -0.252 OA
ATOM      2  N   UNL     1      35.020 -19.447 -20.924  0.00  0.00    -0.268 N 
ATOM      3  N   UNL     1      34.670 -17.537 -22.176  0.00  0.00    -0.268 N 
ATOM      4  C   UNL     1      34.110 -18.405 -21.225  0.00  0.00    +0.308 C 
ATOM      5  H   UNL     1      35.879 -19.414 -21.405  0.00  0.00    +0.156 HD
ATOM      6  H   UNL     1      35.576 -17.765 -22.487  0.00  0.00    +0.156 HD
ENDROOT
BRANCH   3   9
ATOM      7 CL   UNL     1      32.295 -13.062 -21.454  0.00  0.00    -0.082 Cl
ATOM      8 CL   UNL     1      33.499 -14.881 -26.391  0.00  0.00    -0.082 Cl
ATOM      9  C   UNL     1      34.093 -16.377 -22.744  0.00  0.00    +0.053 C 
ATOM     10  C   UNL     1      34.086 -16.229 -24.122  0.00  0.00    +0.026 C 
ATOM     11  C   UNL     1      33.547 -15.414 -21.912  0.00  0.00    +0.026 C 
ATOM     12  C   UNL     1      32.978 -14.270 -22.472  0.00  0.00    +0.060 C 
ATOM     13  C   UNL     1      33.518 -15.085 -24.682  0.00  0.00    +0.060 C 
ATOM     14  C   UNL     1      32.964 -14.106 -23.857  0.00  0.00    +0.023 C 
ENDBRANCH   3   9
BRANCH   2  18
ATOM     15  C   UNL     1      34.549 -22.636 -18.267  0.00  0.00    +0.139 C 
ATOM     16  C   UNL     1      33.434 -22.093 -18.899  0.00  0.00    +0.038 C 
ATOM     17  C   UNL     1      35.818 -22.124 -18.513  0.00  0.00    +0.038 C 
ATOM     18  C   UNL     1      34.862 -20.512 -20.038  0.00  0.00    +0.052 C 
ATOM     19  C   UNL     1      33.591 -21.029 -19.787  0.00  0.00    +0.018 C 
ATOM     20  C   UNL     1      35.976 -21.060 -19.401  0.00  0.00    +0.018 C 
BRANCH  15  21
ATOM     21  O   UNL     1      34.394 -23.680 -17.397  0.00  0.00    -0.472 OA
BRANCH  21  22
ATOM     22  C   UNL     1      34.489 -23.373 -16.005  0.00  0.00    +0.221 C 
ATOM     23  C   UNL     1      33.108 -22.936 -15.524  0.00  0.00    +0.055 C 
ATOM     24  C   UNL     1      35.537 -22.278 -15.834  0.00  0.00    +0.055 C 
BRANCH  22  26
ATOM     25  O   UNL     1      35.888 -25.340 -15.679  0.00  0.00    -0.246 OA
ATOM     26  C   UNL     1      34.925 -24.666 -15.329  0.00  0.00    +0.350 C 
BRANCH  26  27
ATOM     27  O   UNL     1      34.139 -25.016 -14.279  0.00  0.00    -0.478 OA
ATOM     28  H   UNL     1      34.000 -24.413 -13.576  0.00  0.00    +0.295 HD
ENDBRANCH  26  27
ENDBRANCH  22  26
ENDBRANCH  21  22
ENDBRANCH  15  21
ENDBRANCH   2  18
TORSDOF 6
ENDMDL
MODEL 9
REMARK VINA RESULT:      -9.6      8.540     12.141
REMARK  Name = 195347
REMARK  6 active torsions:
REMARK  status: ('A' for Active; 'I' for Inactive)
REMARK    1  A    between atoms: N_2  and  C_18
REMARK    2  A    between atoms: N_3  and  C_9
REMARK    3  A    between atoms: C_15  and  O_21
REMARK    4  A    between atoms: O_21  and  C_22
REMARK    5  A    between atoms: C_22  and  C_26
REMARK    6  A    between atoms: C_26  and  O_27
REMARK                            x       y       z     vdW  Elec       q    Type
REMARK                         _______ _______ _______ _____ _____    ______ ____
ROOT
ATOM      1  O   UNL     1      34.283 -13.888 -22.267  0.00  0.00    -0.252 OA
ATOM      2  N   UNL     1      33.688 -12.785 -24.247  0.00  0.00    -0.268 N 
ATOM      3  N   UNL     1      34.143 -15.050 -24.292  0.00  0.00    -0.268 N 
ATOM      4  C   UNL     1      34.062 -13.911 -23.474  0.00  0.00    +0.308 C 
ATOM      5  H   UNL     1      33.544 -12.956 -25.206  0.00  0.00    +0.156 HD
ATOM      6  H   UNL     1      33.937 -14.912 -25.245  0.00  0.00    +0.156 HD
ENDROOT
BRANCH   3   9
ATOM      7 CL   UNL     1      34.495 -19.987 -25.591  0.00  0.00    -0.082 Cl
ATOM      8 CL   UNL     1      35.889 -18.229 -20.682  0.00  0.00    -0.082 Cl
ATOM      9  C   UNL     1      34.484 -16.370 -23.916  0.00  0.00    +0.053 C 
ATOM     10  C   UNL     1      34.960 -16.609 -22.637  0.00  0.00    +0.026 C 
ATOM     11  C   UNL     1      34.336 -17.397 -24.834  0.00  0.00    +0.026 C 
ATOM     12  C   UNL     1      34.672 -18.698 -24.463  0.00  0.00    +0.060 C 
ATOM     13  C   UNL     1      35.296 -17.911 -22.265  0.00  0.00    +0.060 C 
ATOM     14  C   UNL     1      35.153 -18.956 -23.180  0.00  0.00    +0.023 C 
ENDBRANCH   3   9
BRANCH   2  18
ATOM     15  C   UNL     1      33.112  -8.839 -23.001  0.00  0.00    +0.139 C 
ATOM     16  C   UNL     1      32.275  -9.843 -22.525  0.00  0.00    +0.038 C 
ATOM     17  C   UNL     1      34.140  -9.140 -23.889  0.00  0.00    +0.038 C 
ATOM     18  C   UNL     1      33.496 -11.468 -23.830  0.00  0.00    +0.052 C 
ATOM     19  C   UNL     1      32.467 -11.161 -22.941  0.00  0.00    +0.018 C 
ATOM     20  C   UNL     1      34.333 -10.458 -24.303  0.00  0.00    +0.018 C 
BRANCH  15  21
ATOM     21  O   UNL     1      32.924  -7.548 -22.593  0.00  0.00    -0.472 OA
BRANCH  21  22
ATOM     22  C   UNL     1      32.047  -6.748 -23.386  0.00  0.00    +0.221 C 
ATOM     23  C   UNL     1      30.945  -7.652 -23.930  0.00  0.00    +0.055 C 
ATOM     24  C   UNL     1      32.871  -6.104 -24.497  0.00  0.00    +0.055 C 
BRANCH  22  26
ATOM     25  O   UNL     1      30.574  -4.924 -22.725  0.00  0.00    -0.246 OA
ATOM     26  C   UNL     1      31.481  -5.697 -22.439  0.00  0.00    +0.350 C 
BRANCH  26  27
ATOM     27  O   UNL     1      32.082  -5.690 -21.222  0.00  0.00    -0.478 OA
ATOM     28  H   UNL     1      31.782  -6.268 -20.548  0.00  0.00    +0.295 HD
ENDBRANCH  26  27
ENDBRANCH  22  26
ENDBRANCH  21  22
ENDBRANCH  15  21
ENDBRANCH   2  18
TORSDOF 6
ENDMDL
