MODEL 1
REMARK VINA RESULT:      -7.0      0.000      0.000
REMARK  Name = 13949633
REMARK  5 active torsions:
REMARK  status: ('A' for Active; 'I' for Inactive)
REMARK    1  A    between atoms: C_1  and  N_2
REMARK    2  A    between atoms: C_1  and  C_6
REMARK    3  A    between atoms: C_1  and  C_10
REMARK    4  A    between atoms: C_6  and  O_8
REMARK    5  A    between atoms: C_10  and  C_11
REMARK                            x       y       z     vdW  Elec       q    Type
REMARK                         _______ _______ _______ _____ _____    ______ ____
ROOT
ATOM      1  C   UNL     1      34.877 -17.700 -21.841  0.00  0.00    -0.034 C 
ENDROOT
BRANCH   1   2
ATOM      2  N   UNL     1      34.966 -16.564 -20.915  0.00  0.00    +0.384 N 
ATOM      3  H   UNL     1      35.487 -15.805 -21.355  0.00  0.00    -0.089 HD
ATOM      4  H   UNL     1      35.446 -16.856 -20.063  0.00  0.00    -0.089 HD
ATOM      5  H   UNL     1      34.026 -16.241 -20.681  0.00  0.00    -0.089 HD
ENDBRANCH   1   2
BRANCH   1   6
ATOM      6  C   UNL     1      34.750 -17.199 -23.298  0.00  0.00    +0.091 C 
ATOM      7  C   UNL     1      34.835 -18.281 -24.369  0.00  0.00    +0.030 C 
BRANCH   6   8
ATOM      8  O   UNL     1      35.786 -16.248 -23.559  0.00  0.00    -0.387 OA
ATOM      9  H   UNL     1      35.846 -16.090 -24.514  0.00  0.00    +0.210 HD
ENDBRANCH   6   8
ENDBRANCH   1   6
BRANCH   1  10
ATOM     10  C   UNL     1      33.719 -18.608 -21.385  0.00  0.00    +0.007 C 
BRANCH  10  11
ATOM     11  C   UNL     1      34.168 -19.841 -20.640  0.00  0.00    -0.024 C 
ATOM     12  C   UNL     1      33.224 -20.638 -20.011  0.00  0.00    -0.004 C 
ATOM     13  C   UNL     1      35.517 -20.155 -20.599  0.00  0.00    -0.004 C 
ATOM     14  C   UNL     1      33.639 -21.776 -19.323  0.00  0.00    -0.000 C 
ATOM     15  C   UNL     1      35.933 -21.296 -19.911  0.00  0.00    -0.000 C 
ATOM     16  C   UNL     1      34.995 -22.106 -19.273  0.00  0.00    -0.000 C 
ENDBRANCH  10  11
ENDBRANCH   1  10
TORSDOF 5
ENDMDL
MODEL 2
REMARK VINA RESULT:      -7.0      1.435      2.002
REMARK  Name = 13949633
REMARK  5 active torsions:
REMARK  status: ('A' for Active; 'I' for Inactive)
REMARK    1  A    between atoms: C_1  and  N_2
REMARK    2  A    between atoms: C_1  and  C_6
REMARK    3  A    between atoms: C_1  and  C_10
REMARK    4  A    between atoms: C_6  and  O_8
REMARK    5  A    between atoms: C_10  and  C_11
REMARK                            x       y       z     vdW  Elec       q    Type
REMARK                         _______ _______ _______ _____ _____    ______ ____
ROOT
ATOM      1  C   UNL     1      34.928 -17.620 -22.590  0.00  0.00    -0.034 C 
ENDROOT
BRANCH   1   2
ATOM      2  N   UNL     1      35.401 -17.597 -23.980  0.00  0.00    +0.384 N 
ATOM      3  H   UNL     1      34.644 -17.882 -24.602  0.00  0.00    -0.089 HD
ATOM      4  H   UNL     1      36.186 -18.239 -24.084  0.00  0.00    -0.089 HD
ATOM      5  H   UNL     1      35.701 -16.652 -24.222  0.00  0.00    -0.089 HD
ENDBRANCH   1   2
BRANCH   1   6
ATOM      6  C   UNL     1      34.904 -16.190 -22.004  0.00  0.00    +0.091 C 
ATOM      7  C   UNL     1      33.666 -15.843 -21.184  0.00  0.00    +0.030 C 
BRANCH   6   8
ATOM      8  O   UNL     1      34.995 -15.243 -23.073  0.00  0.00    -0.387 OA
ATOM      9  H   UNL     1      34.695 -15.657 -23.898  0.00  0.00    +0.210 HD
ENDBRANCH   6   8
ENDBRANCH   1   6
BRANCH   1  10
ATOM     10  C   UNL     1      35.803 -18.609 -21.797  0.00  0.00    +0.007 C 
BRANCH  10  11
ATOM     11  C   UNL     1      35.013 -19.613 -20.992  0.00  0.00    -0.024 C 
ATOM     12  C   UNL     1      33.629 -19.540 -20.986  0.00  0.00    -0.004 C 
ATOM     13  C   UNL     1      35.686 -20.588 -20.274  0.00  0.00    -0.004 C 
ATOM     14  C   UNL     1      32.899 -20.466 -20.243  0.00  0.00    -0.000 C 
ATOM     15  C   UNL     1      34.955 -21.516 -19.530  0.00  0.00    -0.000 C 
ATOM     16  C   UNL     1      33.562 -21.455 -19.514  0.00  0.00    -0.000 C 
ENDBRANCH  10  11
ENDBRANCH   1  10
TORSDOF 5
ENDMDL
MODEL 3
REMARK VINA RESULT:      -7.0      1.444      2.294
REMARK  Name = 13949633
REMARK  5 active torsions:
REMARK  status: ('A' for Active; 'I' for Inactive)
REMARK    1  A    between atoms: C_1  and  N_2
REMARK    2  A    between atoms: C_1  and  C_6
REMARK    3  A    between atoms: C_1  and  C_10
REMARK    4  A    between atoms: C_6  and  O_8
REMARK    5  A    between atoms: C_10  and  C_11
REMARK                            x       y       z     vdW  Elec       q    Type
REMARK                         _______ _______ _______ _____ _____    ______ ____
ROOT
ATOM      1  C   UNL     1      34.958 -17.618 -22.623  0.00  0.00    -0.034 C 
ENDROOT
BRANCH   1   2
ATOM      2  N   UNL     1      35.448 -17.627 -24.007  0.00  0.00    +0.384 N 
ATOM      3  H   UNL     1      36.407 -17.279 -24.031  0.00  0.00    -0.089 HD
ATOM      4  H   UNL     1      34.855 -17.028 -24.582  0.00  0.00    -0.089 HD
ATOM      5  H   UNL     1      35.423 -18.580 -24.371  0.00  0.00    -0.089 HD
ENDBRANCH   1   2
BRANCH   1   6
ATOM      6  C   UNL     1      34.924 -16.175 -22.072  0.00  0.00    +0.091 C 
ATOM      7  C   UNL     1      33.680 -15.815 -21.266  0.00  0.00    +0.030 C 
BRANCH   6   8
ATOM      8  O   UNL     1      35.014 -15.254 -23.163  0.00  0.00    -0.387 OA
ATOM      9  H   UNL     1      34.320 -15.451 -23.810  0.00  0.00    +0.210 HD
ENDBRANCH   6   8
ENDBRANCH   1   6
BRANCH   1  10
ATOM     10  C   UNL     1      35.826 -18.587 -21.796  0.00  0.00    +0.007 C 
BRANCH  10  11
ATOM     11  C   UNL     1      35.028 -19.590 -20.998  0.00  0.00    -0.024 C 
ATOM     12  C   UNL     1      35.694 -20.571 -20.279  0.00  0.00    -0.004 C 
ATOM     13  C   UNL     1      33.645 -19.512 -20.998  0.00  0.00    -0.004 C 
ATOM     14  C   UNL     1      34.958 -21.497 -19.543  0.00  0.00    -0.000 C 
ATOM     15  C   UNL     1      32.908 -20.438 -20.260  0.00  0.00    -0.000 C 
ATOM     16  C   UNL     1      33.563 -21.431 -19.532  0.00  0.00    -0.000 C 
ENDBRANCH  10  11
ENDBRANCH   1  10
TORSDOF 5
ENDMDL
MODEL 4
REMARK VINA RESULT:      -6.8      1.341      2.028
REMARK  Name = 13949633
REMARK  5 active torsions:
REMARK  status: ('A' for Active; 'I' for Inactive)
REMARK    1  A    between atoms: C_1  and  N_2
REMARK    2  A    between atoms: C_1  and  C_6
REMARK    3  A    between atoms: C_1  and  C_10
REMARK    4  A    between atoms: C_6  and  O_8
REMARK    5  A    between atoms: C_10  and  C_11
REMARK                            x       y       z     vdW  Elec       q    Type
REMARK                         _______ _______ _______ _____ _____    ______ ____
ROOT
ATOM      1  C   UNL     1      35.196 -18.134 -23.170  0.00  0.00    -0.034 C 
ENDROOT
BRANCH   1   2
ATOM      2  N   UNL     1      35.738 -16.791 -23.420  0.00  0.00    +0.384 N 
ATOM      3  H   UNL     1      36.671 -16.871 -23.824  0.00  0.00    -0.089 HD
ATOM      4  H   UNL     1      35.791 -16.277 -22.541  0.00  0.00    -0.089 HD
ATOM      5  H   UNL     1      35.127 -16.293 -24.068  0.00  0.00    -0.089 HD
ENDBRANCH   1   2
BRANCH   1   6
ATOM      6  C   UNL     1      34.431 -18.646 -24.410  0.00  0.00    +0.091 C 
ATOM      7  C   UNL     1      34.858 -20.018 -24.919  0.00  0.00    +0.030 C 
BRANCH   6   8
ATOM      8  O   UNL     1      34.599 -17.714 -25.484  0.00  0.00    -0.387 OA
ATOM      9  H   UNL     1      33.859 -17.801 -26.105  0.00  0.00    +0.210 HD
ENDBRANCH   6   8
ENDBRANCH   1   6
BRANCH   1  10
ATOM     10  C   UNL     1      34.349 -18.082 -21.884  0.00  0.00    +0.007 C 
BRANCH  10  11
ATOM     11  C   UNL     1      34.431 -19.338 -21.050  0.00  0.00    -0.024 C 
ATOM     12  C   UNL     1      35.673 -19.879 -20.755  0.00  0.00    -0.004 C 
ATOM     13  C   UNL     1      33.263 -19.927 -20.594  0.00  0.00    -0.004 C 
ATOM     14  C   UNL     1      35.748 -21.038 -19.985  0.00  0.00    -0.000 C 
ATOM     15  C   UNL     1      33.338 -21.087 -19.822  0.00  0.00    -0.000 C 
ATOM     16  C   UNL     1      34.580 -21.643 -19.518  0.00  0.00    -0.000 C 
ENDBRANCH  10  11
ENDBRANCH   1  10
TORSDOF 5
ENDMDL
MODEL 5
REMARK VINA RESULT:      -6.7      1.679      2.027
REMARK  Name = 13949633
REMARK  5 active torsions:
REMARK  status: ('A' for Active; 'I' for Inactive)
REMARK    1  A    between atoms: C_1  and  N_2
REMARK    2  A    between atoms: C_1  and  C_6
REMARK    3  A    between atoms: C_1  and  C_10
REMARK    4  A    between atoms: C_6  and  O_8
REMARK    5  A    between atoms: C_10  and  C_11
REMARK                            x       y       z     vdW  Elec       q    Type
REMARK                         _______ _______ _______ _____ _____    ______ ____
ROOT
ATOM      1  C   UNL     1      34.611 -18.178 -23.468  0.00  0.00    -0.034 C 
ENDROOT
BRANCH   1   2
ATOM      2  N   UNL     1      34.930 -19.399 -24.218  0.00  0.00    +0.384 N 
ATOM      3  H   UNL     1      35.814 -19.274 -24.712  0.00  0.00    -0.089 HD
ATOM      4  H   UNL     1      34.189 -19.588 -24.893  0.00  0.00    -0.089 HD
ATOM      5  H   UNL     1      35.009 -20.185 -23.572  0.00  0.00    -0.089 HD
ENDBRANCH   1   2
BRANCH   1   6
ATOM      6  C   UNL     1      34.979 -16.925 -24.294  0.00  0.00    +0.091 C 
ATOM      7  C   UNL     1      34.351 -15.621 -23.815  0.00  0.00    +0.030 C 
BRANCH   6   8
ATOM      8  O   UNL     1      34.579 -17.125 -25.653  0.00  0.00    -0.387 OA
ATOM      9  H   UNL     1      33.720 -16.701 -25.803  0.00  0.00    +0.210 HD
ENDBRANCH   6   8
ENDBRANCH   1   6
BRANCH   1  10
ATOM     10  C   UNL     1      35.309 -18.255 -22.097  0.00  0.00    +0.007 C 
BRANCH  10  11
ATOM     11  C   UNL     1      34.780 -19.352 -21.204  0.00  0.00    -0.024 C 
ATOM     12  C   UNL     1      33.414 -19.456 -20.992  0.00  0.00    -0.004 C 
ATOM     13  C   UNL     1      35.670 -20.235 -20.613  0.00  0.00    -0.004 C 
ATOM     14  C   UNL     1      32.926 -20.469 -20.168  0.00  0.00    -0.000 C 
ATOM     15  C   UNL     1      35.181 -21.249 -19.788  0.00  0.00    -0.000 C 
ATOM     16  C   UNL     1      33.809 -21.366 -19.566  0.00  0.00    -0.000 C 
ENDBRANCH  10  11
ENDBRANCH   1  10
TORSDOF 5
ENDMDL
MODEL 6
REMARK VINA RESULT:      -6.5      2.590      5.138
REMARK  Name = 13949633
REMARK  5 active torsions:
REMARK  status: ('A' for Active; 'I' for Inactive)
REMARK    1  A    between atoms: C_1  and  N_2
REMARK    2  A    between atoms: C_1  and  C_6
REMARK    3  A    between atoms: C_1  and  C_10
REMARK    4  A    between atoms: C_6  and  O_8
REMARK    5  A    between atoms: C_10  and  C_11
REMARK                            x       y       z     vdW  Elec       q    Type
REMARK                         _______ _______ _______ _____ _____    ______ ____
ROOT
ATOM      1  C   UNL     1      33.802 -20.251 -20.790  0.00  0.00    -0.034 C 
ENDROOT
BRANCH   1   2
ATOM      2  N   UNL     1      32.602 -19.430 -20.583  0.00  0.00    +0.384 N 
ATOM      3  H   UNL     1      31.781 -20.034 -20.530  0.00  0.00    -0.089 HD
ATOM      4  H   UNL     1      32.495 -18.781 -21.362  0.00  0.00    -0.089 HD
ATOM      5  H   UNL     1      32.694 -18.905 -19.713  0.00  0.00    -0.089 HD
ENDBRANCH   1   2
BRANCH   1   6
ATOM      6  C   UNL     1      33.997 -21.227 -19.608  0.00  0.00    +0.091 C 
ATOM      7  C   UNL     1      35.388 -21.843 -19.495  0.00  0.00    +0.030 C 
BRANCH   6   8
ATOM      8  O   UNL     1      33.057 -22.300 -19.724  0.00  0.00    -0.387 OA
ATOM      9  H   UNL     1      33.484 -23.059 -20.151  0.00  0.00    +0.210 HD
ENDBRANCH   6   8
ENDBRANCH   1   6
BRANCH   1  10
ATOM     10  C   UNL     1      34.997 -19.309 -21.032  0.00  0.00    +0.007 C 
BRANCH  10  11
ATOM     11  C   UNL     1      34.918 -18.547 -22.333  0.00  0.00    -0.024 C 
ATOM     12  C   UNL     1      34.723 -19.241 -23.517  0.00  0.00    -0.004 C 
ATOM     13  C   UNL     1      35.042 -17.167 -22.320  0.00  0.00    -0.004 C 
ATOM     14  C   UNL     1      34.650 -18.538 -24.718  0.00  0.00    -0.000 C 
ATOM     15  C   UNL     1      34.968 -16.463 -23.522  0.00  0.00    -0.000 C 
ATOM     16  C   UNL     1      34.772 -17.147 -24.721  0.00  0.00    -0.000 C 
ENDBRANCH  10  11
ENDBRANCH   1  10
TORSDOF 5
ENDMDL
MODEL 7
REMARK VINA RESULT:      -6.4      2.177      5.005
REMARK  Name = 13949633
REMARK  5 active torsions:
REMARK  status: ('A' for Active; 'I' for Inactive)
REMARK    1  A    between atoms: C_1  and  N_2
REMARK    2  A    between atoms: C_1  and  C_6
REMARK    3  A    between atoms: C_1  and  C_10
REMARK    4  A    between atoms: C_6  and  O_8
REMARK    5  A    between atoms: C_10  and  C_11
REMARK                            x       y       z     vdW  Elec       q    Type
REMARK                         _______ _______ _______ _____ _____    ______ ____
ROOT
ATOM      1  C   UNL     1      34.653 -20.103 -20.915  0.00  0.00    -0.034 C 
ENDROOT
BRANCH   1   2
ATOM      2  N   UNL     1      33.433 -20.385 -20.147  0.00  0.00    +0.384 N 
ATOM      3  H   UNL     1      33.628 -20.288 -19.150  0.00  0.00    -0.089 HD
ATOM      4  H   UNL     1      33.121 -21.336 -20.341  0.00  0.00    -0.089 HD
ATOM      5  H   UNL     1      32.702 -19.726 -20.416  0.00  0.00    -0.089 HD
ENDBRANCH   1   2
BRANCH   1   6
ATOM      6  C   UNL     1      35.872 -20.795 -20.264  0.00  0.00    +0.091 C 
ATOM      7  C   UNL     1      35.547 -21.726 -19.101  0.00  0.00    +0.030 C 
BRANCH   6   8
ATOM      8  O   UNL     1      36.776 -19.797 -19.782  0.00  0.00    -0.387 OA
ATOM      9  H   UNL     1      37.121 -20.066 -18.916  0.00  0.00    +0.210 HD
ENDBRANCH   6   8
ENDBRANCH   1   6
BRANCH   1  10
ATOM     10  C   UNL     1      34.796 -18.575 -21.052  0.00  0.00    +0.007 C 
BRANCH  10  11
ATOM     11  C   UNL     1      34.760 -18.085 -22.479  0.00  0.00    -0.024 C 
ATOM     12  C   UNL     1      34.606 -19.001 -23.509  0.00  0.00    -0.004 C 
ATOM     13  C   UNL     1      34.880 -16.728 -22.735  0.00  0.00    -0.004 C 
ATOM     14  C   UNL     1      34.572 -18.548 -24.827  0.00  0.00    -0.000 C 
ATOM     15  C   UNL     1      34.845 -16.275 -24.055  0.00  0.00    -0.000 C 
ATOM     16  C   UNL     1      34.691 -17.185 -25.100  0.00  0.00    -0.000 C 
ENDBRANCH  10  11
ENDBRANCH   1  10
TORSDOF 5
ENDMDL
MODEL 8
REMARK VINA RESULT:      -6.3      2.632      5.225
REMARK  Name = 13949633
REMARK  5 active torsions:
REMARK  status: ('A' for Active; 'I' for Inactive)
REMARK    1  A    between atoms: C_1  and  N_2
REMARK    2  A    between atoms: C_1  and  C_6
REMARK    3  A    between atoms: C_1  and  C_10
REMARK    4  A    between atoms: C_6  and  O_8
REMARK    5  A    between atoms: C_10  and  C_11
REMARK                            x       y       z     vdW  Elec       q    Type
REMARK                         _______ _______ _______ _____ _____    ______ ____
ROOT
ATOM      1  C   UNL     1      35.386 -19.214 -20.734  0.00  0.00    -0.034 C 
ENDROOT
BRANCH   1   2
ATOM      2  N   UNL     1      36.704 -19.721 -20.330  0.00  0.00    +0.384 N 
ATOM      3  H   UNL     1      37.385 -18.961 -20.360  0.00  0.00    -0.089 HD
ATOM      4  H   UNL     1      36.995 -20.461 -20.969  0.00  0.00    -0.089 HD
ATOM      5  H   UNL     1      36.650 -20.093 -19.382  0.00  0.00    -0.089 HD
ENDBRANCH   1   2
BRANCH   1   6
ATOM      6  C   UNL     1      34.335 -20.345 -20.685  0.00  0.00    +0.091 C 
ATOM      7  C   UNL     1      32.884 -19.883 -20.609  0.00  0.00    +0.030 C 
BRANCH   6   8
ATOM      8  O   UNL     1      34.587 -21.172 -19.545  0.00  0.00    -0.387 OA
ATOM      9  H   UNL     1      33.747 -21.515 -19.203  0.00  0.00    +0.210 HD
ENDBRANCH   6   8
ENDBRANCH   1   6
BRANCH   1  10
ATOM     10  C   UNL     1      35.527 -18.544 -22.114  0.00  0.00    +0.007 C 
BRANCH  10  11
ATOM     11  C   UNL     1      35.089 -17.100 -22.139  0.00  0.00    -0.024 C 
ATOM     12  C   UNL     1      34.953 -16.451 -23.356  0.00  0.00    -0.004 C 
ATOM     13  C   UNL     1      34.831 -16.448 -20.943  0.00  0.00    -0.004 C 
ATOM     14  C   UNL     1      34.548 -15.117 -23.378  0.00  0.00    -0.000 C 
ATOM     15  C   UNL     1      34.425 -15.113 -20.966  0.00  0.00    -0.000 C 
ATOM     16  C   UNL     1      34.284 -14.447 -22.183  0.00  0.00    -0.000 C 
ENDBRANCH  10  11
ENDBRANCH   1  10
TORSDOF 5
ENDMDL
MODEL 9
REMARK VINA RESULT:      -6.2      3.033      4.938
REMARK  Name = 13949633
REMARK  5 active torsions:
REMARK  status: ('A' for Active; 'I' for Inactive)
REMARK    1  A    between atoms: C_1  and  N_2
REMARK    2  A    between atoms: C_1  and  C_6
REMARK    3  A    between atoms: C_1  and  C_10
REMARK    4  A    between atoms: C_6  and  O_8
REMARK    5  A    between atoms: C_10  and  C_11
REMARK                            x       y       z     vdW  Elec       q    Type
REMARK                         _______ _______ _______ _____ _____    ______ ____
ROOT
ATOM      1  C   UNL     1      33.975 -21.232 -20.236  0.00  0.00    -0.034 C 
ENDROOT
BRANCH   1   2
ATOM      2  N   UNL     1      32.936 -22.148 -19.748  0.00  0.00    +0.384 N 
ATOM      3  H   UNL     1      33.340 -23.074 -19.603  0.00  0.00    -0.089 HD
ATOM      4  H   UNL     1      32.186 -22.209 -20.436  0.00  0.00    -0.089 HD
ATOM      5  H   UNL     1      32.561 -21.799 -18.866  0.00  0.00    -0.089 HD
ENDBRANCH   1   2
BRANCH   1   6
ATOM      6  C   UNL     1      35.199 -21.253 -19.293  0.00  0.00    +0.091 C 
ATOM      7  C   UNL     1      36.556 -21.168 -19.984  0.00  0.00    +0.030 C 
BRANCH   6   8
ATOM      8  O   UNL     1      35.178 -22.459 -18.523  0.00  0.00    -0.387 OA
ATOM      9  H   UNL     1      35.550 -23.184 -19.050  0.00  0.00    +0.210 HD
ENDBRANCH   6   8
ENDBRANCH   1   6
BRANCH   1  10
ATOM     10  C   UNL     1      33.345 -19.838 -20.418  0.00  0.00    +0.007 C 
BRANCH  10  11
ATOM     11  C   UNL     1      34.084 -18.958 -21.397  0.00  0.00    -0.024 C 
ATOM     12  C   UNL     1      34.277 -17.619 -21.096  0.00  0.00    -0.004 C 
ATOM     13  C   UNL     1      34.557 -19.506 -22.579  0.00  0.00    -0.004 C 
ATOM     14  C   UNL     1      34.960 -16.807 -22.000  0.00  0.00    -0.000 C 
ATOM     15  C   UNL     1      35.241 -18.693 -23.484  0.00  0.00    -0.000 C 
ATOM     16  C   UNL     1      35.442 -17.343 -23.195  0.00  0.00    -0.000 C 
ENDBRANCH  10  11
ENDBRANCH   1  10
TORSDOF 5
ENDMDL
