MODEL 1
REMARK VINA RESULT:     -12.7      0.000      0.000
REMARK  Name = 5073
REMARK  4 active torsions:
REMARK  status: ('A' for Active; 'I' for Inactive)
REMARK    1  A    between atoms: N_1  and  C_18
REMARK    2  A    between atoms: C_2  and  C_11
REMARK    3  A    between atoms: C_18  and  C_19
REMARK    4  A    between atoms: C_19  and  C_23
REMARK                            x       y       z     vdW  Elec       q    Type
REMARK                         _______ _______ _______ _____ _____    ______ ____
ROOT
ATOM      1  N   UNL     1      35.881 -19.675 -20.259  0.00  0.00    +0.387 N 
ATOM      2  C   UNL     1      35.222 -18.752 -22.966  0.00  0.00    +0.039 C 
ATOM      3  C   UNL     1      34.150 -19.232 -21.973  0.00  0.00    -0.017 C 
ATOM      4  C   UNL     1      36.455 -18.247 -22.198  0.00  0.00    -0.017 C 
ATOM      5  C   UNL     1      34.728 -20.239 -20.976  0.00  0.00    -0.077 C 
ATOM      6  C   UNL     1      36.948 -19.290 -21.193  0.00  0.00    -0.077 C 
ATOM      7  H   UNL     1      35.568 -18.834 -19.774  0.00  0.00    -0.080 HD
ENDROOT
BRANCH   2  11
ATOM      8  F   UNL     1      33.272 -12.459 -24.313  0.00  0.00    -0.204 F 
ATOM      9  O   UNL     1      33.970 -16.968 -25.834  0.00  0.00    -0.354 OA
ATOM     10  N   UNL     1      34.435 -18.114 -25.203  0.00  0.00    -0.081 NA
ATOM     11  C   UNL     1      34.691 -17.736 -23.952  0.00  0.00    +0.100 A 
ATOM     12  C   UNL     1      34.416 -16.381 -23.720  0.00  0.00    +0.054 A 
ATOM     13  C   UNL     1      33.960 -15.935 -24.949  0.00  0.00    +0.179 A 
ATOM     14  C   UNL     1      34.490 -15.475 -22.651  0.00  0.00    +0.007 C 
ATOM     15  C   UNL     1      33.561 -14.627 -25.210  0.00  0.00    +0.070 C 
ATOM     16  C   UNL     1      34.095 -14.149 -22.878  0.00  0.00    +0.030 C 
ATOM     17  C   UNL     1      33.640 -13.735 -24.135  0.00  0.00    +0.143 C 
ENDBRANCH   2  11
BRANCH   1  18
ATOM     18  C   UNL     1      36.384 -20.628 -19.271  0.00  0.00    -0.076 C 
BRANCH  18  19
ATOM     19  C   UNL     1      35.641 -21.950 -19.402  0.00  0.00    -0.007 C 
BRANCH  19  23
ATOM     20  O   UNL     1      32.928 -22.483 -19.089  0.00  0.00    -0.274 OA
ATOM     21  N   UNL     1      33.071 -23.017 -16.826  0.00  0.00    -0.237 N 
ATOM     22  N   UNL     1      35.162 -22.868 -15.729  0.00  0.00    -0.399 NA
ATOM     23  C   UNL     1      35.067 -22.373 -18.081  0.00  0.00    +0.123 C 
ATOM     24  C   UNL     1      31.617 -23.193 -16.746  0.00  0.00    +0.100 C 
ATOM     25  C   UNL     1      31.136 -23.952 -15.524  0.00  0.00    +0.022 C 
ATOM     26  C   UNL     1      33.887 -23.098 -15.713  0.00  0.00    +0.165 C 
ATOM     27  C   UNL     1      31.790 -23.369 -14.288  0.00  0.00    +0.011 C 
ATOM     28  C   UNL     1      33.290 -23.551 -14.393  0.00  0.00    +0.075 C 
ATOM     29  C   UNL     1      33.592 -22.629 -18.063  0.00  0.00    +0.237 C 
ATOM     30  C   UNL     1      35.741 -22.510 -16.923  0.00  0.00    +0.096 C 
ATOM     31  C   UNL     1      37.230 -22.310 -16.815  0.00  0.00    +0.062 C 
ENDBRANCH  19  23
ENDBRANCH  18  19
ENDBRANCH   1  18
TORSDOF 4
ENDMDL
MODEL 2
REMARK VINA RESULT:     -12.7      3.407     10.109
REMARK  Name = 5073
REMARK  4 active torsions:
REMARK  status: ('A' for Active; 'I' for Inactive)
REMARK    1  A    between atoms: N_1  and  C_18
REMARK    2  A    between atoms: C_2  and  C_11
REMARK    3  A    between atoms: C_18  and  C_19
REMARK    4  A    between atoms: C_19  and  C_23
REMARK                            x       y       z     vdW  Elec       q    Type
REMARK                         _______ _______ _______ _____ _____    ______ ____
ROOT
ATOM      1  N   UNL     1      34.485 -20.022 -20.656  0.00  0.00    +0.387 N 
ATOM      2  C   UNL     1      34.370 -22.267 -18.769  0.00  0.00    +0.039 C 
ATOM      3  C   UNL     1      35.668 -21.493 -19.054  0.00  0.00    -0.017 C 
ATOM      4  C   UNL     1      33.154 -21.372 -19.064  0.00  0.00    -0.017 C 
ATOM      5  C   UNL     1      35.657 -20.888 -20.460  0.00  0.00    -0.077 C 
ATOM      6  C   UNL     1      33.235 -20.771 -20.469  0.00  0.00    -0.077 C 
ATOM      7  H   UNL     1      34.519 -19.285 -19.952  0.00  0.00    -0.080 HD
ENDROOT
BRANCH   2  11
ATOM      8  F   UNL     1      30.826 -24.525 -13.520  0.00  0.00    -0.204 F 
ATOM      9  O   UNL     1      35.108 -23.644 -15.523  0.00  0.00    -0.354 OA
ATOM     10  N   UNL     1      35.483 -23.119 -16.753  0.00  0.00    -0.081 NA
ATOM     11  C   UNL     1      34.336 -22.859 -17.378  0.00  0.00    +0.100 A 
ATOM     12  C   UNL     1      33.207 -23.190 -16.616  0.00  0.00    +0.054 A 
ATOM     13  C   UNL     1      33.750 -23.686 -15.443  0.00  0.00    +0.179 A 
ATOM     14  C   UNL     1      31.812 -23.141 -16.753  0.00  0.00    +0.007 C 
ATOM     15  C   UNL     1      33.000 -24.150 -14.367  0.00  0.00    +0.070 C 
ATOM     16  C   UNL     1      31.025 -23.599 -15.687  0.00  0.00    +0.030 C 
ATOM     17  C   UNL     1      31.610 -24.095 -14.517  0.00  0.00    +0.143 C 
ENDBRANCH   2  11
BRANCH   1  18
ATOM     18  C   UNL     1      34.521 -19.407 -21.982  0.00  0.00    -0.076 C 
BRANCH  18  19
ATOM     19  C   UNL     1      35.507 -18.248 -21.989  0.00  0.00    -0.007 C 
BRANCH  19  23
ATOM     20  O   UNL     1      34.903 -17.930 -24.687  0.00  0.00    -0.274 OA
ATOM     21  N   UNL     1      33.993 -15.798 -24.456  0.00  0.00    -0.237 N 
ATOM     22  N   UNL     1      33.974 -14.770 -22.325  0.00  0.00    -0.399 NA
ATOM     23  C   UNL     1      34.860 -16.999 -22.512  0.00  0.00    +0.123 C 
ATOM     24  C   UNL     1      33.792 -15.695 -25.905  0.00  0.00    +0.100 C 
ATOM     25  C   UNL     1      32.832 -14.603 -26.337  0.00  0.00    +0.022 C 
ATOM     26  C   UNL     1      33.732 -14.746 -23.597  0.00  0.00    +0.165 C 
ATOM     27  C   UNL     1      33.203 -13.312 -25.638  0.00  0.00    +0.011 C 
ATOM     28  C   UNL     1      33.056 -13.501 -24.142  0.00  0.00    +0.075 C 
ATOM     29  C   UNL     1      34.591 -16.969 -23.984  0.00  0.00    +0.237 C 
ATOM     30  C   UNL     1      34.536 -15.906 -21.793  0.00  0.00    +0.096 C 
ATOM     31  C   UNL     1      34.729 -15.821 -20.302  0.00  0.00    +0.062 C 
ENDBRANCH  19  23
ENDBRANCH  18  19
ENDBRANCH   1  18
TORSDOF 4
ENDMDL
MODEL 3
REMARK VINA RESULT:     -12.7      4.680     10.756
REMARK  Name = 5073
REMARK  4 active torsions:
REMARK  status: ('A' for Active; 'I' for Inactive)
REMARK    1  A    between atoms: N_1  and  C_18
REMARK    2  A    between atoms: C_2  and  C_11
REMARK    3  A    between atoms: C_18  and  C_19
REMARK    4  A    between atoms: C_19  and  C_23
REMARK                            x       y       z     vdW  Elec       q    Type
REMARK                         _______ _______ _______ _____ _____    ______ ____
ROOT
ATOM      1  N   UNL     1      34.442 -14.931 -23.537  0.00  0.00    +0.387 N 
ATOM      2  C   UNL     1      34.448 -17.498 -22.116  0.00  0.00    +0.039 C 
ATOM      3  C   UNL     1      34.955 -17.352 -23.560  0.00  0.00    -0.017 C 
ATOM      4  C   UNL     1      34.559 -16.150 -21.385  0.00  0.00    -0.017 C 
ATOM      5  C   UNL     1      34.266 -16.189 -24.276  0.00  0.00    -0.077 C 
ATOM      6  C   UNL     1      33.883 -15.030 -22.181  0.00  0.00    -0.077 C 
ATOM      7  H   UNL     1      35.442 -14.753 -23.453  0.00  0.00    -0.080 HD
ENDROOT
BRANCH   2  11
ATOM      8  F   UNL     1      33.996 -23.156 -18.511  0.00  0.00    -0.204 F 
ATOM      9  O   UNL     1      36.752 -19.792 -20.565  0.00  0.00    -0.354 OA
ATOM     10  N   UNL     1      36.456 -18.655 -21.305  0.00  0.00    -0.081 NA
ATOM     11  C   UNL     1      35.126 -18.625 -21.370  0.00  0.00    +0.100 A 
ATOM     12  C   UNL     1      34.519 -19.698 -20.704  0.00  0.00    +0.054 A 
ATOM     13  C   UNL     1      35.595 -20.414 -20.208  0.00  0.00    +0.179 A 
ATOM     14  C   UNL     1      33.219 -20.162 -20.453  0.00  0.00    +0.007 C 
ATOM     15  C   UNL     1      35.482 -21.585 -19.464  0.00  0.00    +0.070 C 
ATOM     16  C   UNL     1      33.068 -21.339 -19.706  0.00  0.00    +0.030 C 
ATOM     17  C   UNL     1      34.180 -22.035 -19.222  0.00  0.00    +0.143 C 
ENDBRANCH   2  11
BRANCH   1  18
ATOM     18  C   UNL     1      33.826 -13.820 -24.263  0.00  0.00    -0.076 C 
BRANCH  18  19
ATOM     19  C   UNL     1      32.674 -13.246 -23.452  0.00  0.00    -0.007 C 
BRANCH  19  23
ATOM     20  O   UNL     1      31.661 -11.956 -21.203  0.00  0.00    -0.274 OA
ATOM     21  N   UNL     1      32.424  -9.839 -21.806  0.00  0.00    -0.237 N 
ATOM     22  N   UNL     1      33.564  -9.559 -23.860  0.00  0.00    -0.399 NA
ATOM     23  C   UNL     1      32.851 -11.771 -23.241  0.00  0.00    +0.123 C 
ATOM     24  C   UNL     1      31.781  -9.241 -20.631  0.00  0.00    +0.100 C 
ATOM     25  C   UNL     1      32.278  -7.853 -20.274  0.00  0.00    +0.022 C 
ATOM     26  C   UNL     1      33.059  -9.076 -22.769  0.00  0.00    +0.165 C 
ATOM     27  C   UNL     1      32.285  -6.993 -21.520  0.00  0.00    +0.011 C 
ATOM     28  C   UNL     1      33.247  -7.590 -22.525  0.00  0.00    +0.075 C 
ATOM     29  C   UNL     1      32.256 -11.215 -21.985  0.00  0.00    +0.237 C 
ATOM     30  C   UNL     1      33.457 -10.911 -24.082  0.00  0.00    +0.096 C 
ATOM     31  C   UNL     1      34.119 -11.348 -25.362  0.00  0.00    +0.062 C 
ENDBRANCH  19  23
ENDBRANCH  18  19
ENDBRANCH   1  18
TORSDOF 4
ENDMDL
MODEL 4
REMARK VINA RESULT:     -12.4      5.065     11.036
REMARK  Name = 5073
REMARK  4 active torsions:
REMARK  status: ('A' for Active; 'I' for Inactive)
REMARK    1  A    between atoms: N_1  and  C_18
REMARK    2  A    between atoms: C_2  and  C_11
REMARK    3  A    between atoms: C_18  and  C_19
REMARK    4  A    between atoms: C_19  and  C_23
REMARK                            x       y       z     vdW  Elec       q    Type
REMARK                         _______ _______ _______ _____ _____    ______ ____
ROOT
ATOM      1  N   UNL     1      34.411 -14.145 -22.711  0.00  0.00    +0.387 N 
ATOM      2  C   UNL     1      34.384 -16.989 -21.991  0.00  0.00    +0.039 C 
ATOM      3  C   UNL     1      35.190 -16.446 -23.183  0.00  0.00    -0.017 C 
ATOM      4  C   UNL     1      34.170 -15.873 -20.955  0.00  0.00    -0.017 C 
ATOM      5  C   UNL     1      34.554 -15.175 -23.750  0.00  0.00    -0.077 C 
ATOM      6  C   UNL     1      33.572 -14.622 -21.604  0.00  0.00    -0.077 C 
ATOM      7  H   UNL     1      35.339 -13.943 -22.339  0.00  0.00    -0.080 HD
ENDROOT
BRANCH   2  11
ATOM      8  F   UNL     1      33.616 -22.930 -18.936  0.00  0.00    -0.204 F 
ATOM      9  O   UNL     1      36.553 -19.597 -20.778  0.00  0.00    -0.354 OA
ATOM     10  N   UNL     1      36.322 -18.372 -21.389  0.00  0.00    -0.081 NA
ATOM     11  C   UNL     1      34.998 -18.233 -21.390  0.00  0.00    +0.100 A 
ATOM     12  C   UNL     1      34.331 -19.319 -20.804  0.00  0.00    +0.054 A 
ATOM     13  C   UNL     1      35.365 -20.161 -20.430  0.00  0.00    +0.179 A 
ATOM     14  C   UNL     1      33.009 -19.705 -20.540  0.00  0.00    +0.007 C 
ATOM     15  C   UNL     1      35.187 -21.389 -19.799  0.00  0.00    +0.070 C 
ATOM     16  C   UNL     1      32.792 -20.936 -19.904  0.00  0.00    +0.030 C 
ATOM     17  C   UNL     1      33.862 -21.760 -19.542  0.00  0.00    +0.143 C 
ENDBRANCH   2  11
BRANCH   1  18
ATOM     18  C   UNL     1      33.856 -12.917 -23.282  0.00  0.00    -0.076 C 
BRANCH  18  19
ATOM     19  C   UNL     1      32.439 -12.703 -22.769  0.00  0.00    -0.007 C 
BRANCH  19  23
ATOM     20  O   UNL     1      32.901 -10.507 -24.414  0.00  0.00    -0.274 OA
ATOM     21  N   UNL     1      32.366  -8.912 -22.802  0.00  0.00    -0.237 N 
ATOM     22  N   UNL     1      31.774  -9.619 -20.623  0.00  0.00    -0.399 NA
ATOM     23  C   UNL     1      32.255 -11.297 -22.278  0.00  0.00    +0.123 C 
ATOM     24  C   UNL     1      32.715  -7.824 -23.721  0.00  0.00    +0.100 C 
ATOM     25  C   UNL     1      32.183  -6.460 -23.321  0.00  0.00    +0.022 C 
ATOM     26  C   UNL     1      32.008  -8.682 -21.485  0.00  0.00    +0.165 C 
ATOM     27  C   UNL     1      32.506  -6.210 -21.863  0.00  0.00    +0.011 C 
ATOM     28  C   UNL     1      31.805  -7.253 -21.017  0.00  0.00    +0.075 C 
ATOM     29  C   UNL     1      32.536 -10.216 -23.275  0.00  0.00    +0.237 C 
ATOM     30  C   UNL     1      31.897 -10.925 -21.034  0.00  0.00    +0.096 C 
ATOM     31  C   UNL     1      31.559 -11.914 -19.950  0.00  0.00    +0.062 C 
ENDBRANCH  19  23
ENDBRANCH  18  19
ENDBRANCH   1  18
TORSDOF 4
ENDMDL
MODEL 5
REMARK VINA RESULT:     -12.3      2.101      3.591
REMARK  Name = 5073
REMARK  4 active torsions:
REMARK  status: ('A' for Active; 'I' for Inactive)
REMARK    1  A    between atoms: N_1  and  C_18
REMARK    2  A    between atoms: C_2  and  C_11
REMARK    3  A    between atoms: C_18  and  C_19
REMARK    4  A    between atoms: C_19  and  C_23
REMARK                            x       y       z     vdW  Elec       q    Type
REMARK                         _______ _______ _______ _____ _____    ______ ____
ROOT
ATOM      1  N   UNL     1      33.967 -22.459 -19.466  0.00  0.00    +0.387 N 
ATOM      2  C   UNL     1      34.492 -19.811 -20.616  0.00  0.00    +0.039 C 
ATOM      3  C   UNL     1      35.533 -20.943 -20.639  0.00  0.00    -0.017 C 
ATOM      4  C   UNL     1      33.077 -20.406 -20.525  0.00  0.00    -0.017 C 
ATOM      5  C   UNL     1      35.330 -21.908 -19.469  0.00  0.00    -0.077 C 
ATOM      6  C   UNL     1      32.963 -21.391 -19.359  0.00  0.00    -0.077 C 
ATOM      7  H   UNL     1      33.821 -22.940 -20.353  0.00  0.00    -0.080 HD
ENDROOT
BRANCH   2  11
ATOM      8  F   UNL     1      34.475 -13.505 -22.951  0.00  0.00    -0.204 F 
ATOM      9  O   UNL     1      35.005 -18.209 -23.801  0.00  0.00    -0.354 OA
ATOM     10  N   UNL     1      34.928 -19.329 -22.984  0.00  0.00    -0.081 NA
ATOM     11  C   UNL     1      34.649 -18.850 -21.773  0.00  0.00    +0.100 A 
ATOM     12  C   UNL     1      34.536 -17.453 -21.746  0.00  0.00    +0.054 A 
ATOM     13  C   UNL     1      34.771 -17.091 -23.062  0.00  0.00    +0.179 A 
ATOM     14  C   UNL     1      34.270 -16.451 -20.801  0.00  0.00    +0.007 C 
ATOM     15  C   UNL     1      34.764 -15.779 -23.527  0.00  0.00    +0.070 C 
ATOM     16  C   UNL     1      34.254 -15.118 -21.236  0.00  0.00    +0.030 C 
ATOM     17  C   UNL     1      34.498 -14.791 -22.574  0.00  0.00    +0.143 C 
ENDBRANCH   2  11
BRANCH   1  18
ATOM     18  C   UNL     1      33.807 -23.423 -18.377  0.00  0.00    -0.076 C 
BRANCH  18  19
ATOM     19  C   UNL     1      33.028 -22.787 -17.234  0.00  0.00    -0.007 C 
BRANCH  19  23
ATOM     20  O   UNL     1      35.740 -22.694 -16.615  0.00  0.00    -0.274 OA
ATOM     21  N   UNL     1      35.504 -23.582 -14.475  0.00  0.00    -0.237 N 
ATOM     22  N   UNL     1      33.357 -24.227 -13.716  0.00  0.00    -0.399 NA
ATOM     23  C   UNL     1      33.551 -23.252 -15.907  0.00  0.00    +0.123 C 
ATOM     24  C   UNL     1      36.957 -23.570 -14.278  0.00  0.00    +0.100 C 
ATOM     25  C   UNL     1      37.403 -23.701 -12.834  0.00  0.00    +0.022 C 
ATOM     26  C   UNL     1      34.637 -24.123 -13.542  0.00  0.00    +0.165 C 
ATOM     27  C   UNL     1      36.670 -24.859 -12.191  0.00  0.00    +0.011 C 
ATOM     28  C   UNL     1      35.184 -24.565 -12.197  0.00  0.00    +0.075 C 
ATOM     29  C   UNL     1      35.031 -23.140 -15.713  0.00  0.00    +0.237 C 
ATOM     30  C   UNL     1      32.826 -23.783 -14.903  0.00  0.00    +0.096 C 
ATOM     31  C   UNL     1      31.327 -23.923 -14.963  0.00  0.00    +0.062 C 
ENDBRANCH  19  23
ENDBRANCH  18  19
ENDBRANCH   1  18
TORSDOF 4
ENDMDL
MODEL 6
REMARK VINA RESULT:     -12.3      1.628      2.214
REMARK  Name = 5073
REMARK  4 active torsions:
REMARK  status: ('A' for Active; 'I' for Inactive)
REMARK    1  A    between atoms: N_1  and  C_18
REMARK    2  A    between atoms: C_2  and  C_11
REMARK    3  A    between atoms: C_18  and  C_19
REMARK    4  A    between atoms: C_19  and  C_23
REMARK                            x       y       z     vdW  Elec       q    Type
REMARK                         _______ _______ _______ _____ _____    ______ ____
ROOT
ATOM      1  N   UNL     1      34.385 -21.503 -20.178  0.00  0.00    +0.387 N 
ATOM      2  C   UNL     1      34.649 -18.647 -20.798  0.00  0.00    +0.039 C 
ATOM      3  C   UNL     1      35.835 -19.622 -20.877  0.00  0.00    -0.017 C 
ATOM      4  C   UNL     1      33.329 -19.414 -20.985  0.00  0.00    -0.017 C 
ATOM      5  C   UNL     1      35.650 -20.800 -19.918  0.00  0.00    -0.077 C 
ATOM      6  C   UNL     1      33.236 -20.600 -20.021  0.00  0.00    -0.077 C 
ATOM      7  H   UNL     1      34.400 -21.830 -21.143  0.00  0.00    -0.080 HD
ENDROOT
BRANCH   2  11
ATOM      8  F   UNL     1      32.676 -12.539 -22.802  0.00  0.00    -0.204 F 
ATOM      9  O   UNL     1      35.568 -16.334 -23.402  0.00  0.00    -0.354 OA
ATOM     10  N   UNL     1      35.698 -17.537 -22.720  0.00  0.00    -0.081 NA
ATOM     11  C   UNL     1      34.787 -17.481 -21.751  0.00  0.00    +0.100 A 
ATOM     12  C   UNL     1      34.051 -16.288 -21.756  0.00  0.00    +0.054 A 
ATOM     13  C   UNL     1      34.586 -15.590 -22.825  0.00  0.00    +0.179 A 
ATOM     14  C   UNL     1      33.016 -15.704 -21.011  0.00  0.00    +0.007 C 
ATOM     15  C   UNL     1      34.165 -14.325 -23.226  0.00  0.00    +0.070 C 
ATOM     16  C   UNL     1      32.566 -14.430 -21.387  0.00  0.00    +0.030 C 
ATOM     17  C   UNL     1      33.132 -13.755 -22.473  0.00  0.00    +0.143 C 
ENDBRANCH   2  11
BRANCH   1  18
ATOM     18  C   UNL     1      34.251 -22.659 -19.292  0.00  0.00    -0.076 C 
BRANCH  18  19
ATOM     19  C   UNL     1      34.882 -22.351 -17.941  0.00  0.00    -0.007 C 
BRANCH  19  23
ATOM     20  O   UNL     1      32.104 -22.521 -17.913  0.00  0.00    -0.274 OA
ATOM     21  N   UNL     1      31.980 -23.713 -15.916  0.00  0.00    -0.237 N 
ATOM     22  N   UNL     1      33.971 -24.222 -14.743  0.00  0.00    -0.399 NA
ATOM     23  C   UNL     1      34.144 -23.049 -16.835  0.00  0.00    +0.123 C 
ATOM     24  C   UNL     1      30.514 -23.675 -15.950  0.00  0.00    +0.100 C 
ATOM     25  C   UNL     1      29.831 -24.675 -15.036  0.00  0.00    +0.022 C 
ATOM     26  C   UNL     1      32.680 -24.245 -14.848  0.00  0.00    +0.165 C 
ATOM     27  C   UNL     1      30.451 -24.591 -13.657  0.00  0.00    +0.011 C 
ATOM     28  C   UNL     1      31.916 -24.966 -13.752  0.00  0.00    +0.075 C 
ATOM     29  C   UNL     1      32.652 -23.065 -16.954  0.00  0.00    +0.237 C 
ATOM     30  C   UNL     1      34.693 -23.624 -15.747  0.00  0.00    +0.096 C 
ATOM     31  C   UNL     1      36.180 -23.700 -15.525  0.00  0.00    +0.062 C 
ENDBRANCH  19  23
ENDBRANCH  18  19
ENDBRANCH   1  18
TORSDOF 4
ENDMDL
MODEL 7
REMARK VINA RESULT:     -12.1      3.333     10.075
REMARK  Name = 5073
REMARK  4 active torsions:
REMARK  status: ('A' for Active; 'I' for Inactive)
REMARK    1  A    between atoms: N_1  and  C_18
REMARK    2  A    between atoms: C_2  and  C_11
REMARK    3  A    between atoms: C_18  and  C_19
REMARK    4  A    between atoms: C_19  and  C_23
REMARK                            x       y       z     vdW  Elec       q    Type
REMARK                         _______ _______ _______ _____ _____    ______ ____
ROOT
ATOM      1  N   UNL     1      35.488 -19.258 -20.808  0.00  0.00    +0.387 N 
ATOM      2  C   UNL     1      34.616 -21.702 -19.438  0.00  0.00    +0.039 C 
ATOM      3  C   UNL     1      36.012 -21.091 -19.230  0.00  0.00    -0.017 C 
ATOM      4  C   UNL     1      33.631 -20.609 -19.885  0.00  0.00    -0.017 C 
ATOM      5  C   UNL     1      36.463 -20.303 -20.461  0.00  0.00    -0.077 C 
ATOM      6  C   UNL     1      34.168 -19.837 -21.093  0.00  0.00    -0.077 C 
ATOM      7  H   UNL     1      35.393 -18.638 -20.004  0.00  0.00    -0.080 HD
ENDROOT
BRANCH   2  11
ATOM      8  F   UNL     1      35.788 -24.209 -13.310  0.00  0.00    -0.204 F 
ATOM      9  O   UNL     1      32.758 -23.585 -16.992  0.00  0.00    -0.354 OA
ATOM     10  N   UNL     1      32.885 -22.945 -18.218  0.00  0.00    -0.081 NA
ATOM     11  C   UNL     1      34.128 -22.469 -18.230  0.00  0.00    +0.100 A 
ATOM     12  C   UNL     1      34.841 -22.764 -17.059  0.00  0.00    +0.054 A 
ATOM     13  C   UNL     1      33.926 -23.475 -16.301  0.00  0.00    +0.179 A 
ATOM     14  C   UNL     1      36.122 -22.530 -16.537  0.00  0.00    +0.007 C 
ATOM     15  C   UNL     1      34.186 -23.987 -15.033  0.00  0.00    +0.070 C 
ATOM     16  C   UNL     1      36.419 -23.032 -15.262  0.00  0.00    +0.030 C 
ATOM     17  C   UNL     1      35.468 -23.746 -14.526  0.00  0.00    +0.143 C 
ENDBRANCH   2  11
BRANCH   1  18
ATOM     18  C   UNL     1      35.961 -18.477 -21.951  0.00  0.00    -0.076 C 
BRANCH  18  19
ATOM     19  C   UNL     1      34.866 -18.383 -23.003  0.00  0.00    -0.007 C 
BRANCH  19  23
ATOM     20  O   UNL     1      34.209 -17.505 -25.560  0.00  0.00    -0.274 OA
ATOM     21  N   UNL     1      33.853 -15.287 -24.944  0.00  0.00    -0.237 N 
ATOM     22  N   UNL     1      34.198 -14.639 -22.694  0.00  0.00    -0.399 NA
ATOM     23  C   UNL     1      34.511 -16.951 -23.279  0.00  0.00    +0.123 C 
ATOM     24  C   UNL     1      33.604 -14.909 -26.339  0.00  0.00    +0.100 C 
ATOM     25  C   UNL     1      32.912 -13.570 -26.519  0.00  0.00    +0.022 C 
ATOM     26  C   UNL     1      33.900 -14.355 -23.922  0.00  0.00    +0.165 C 
ATOM     27  C   UNL     1      33.621 -12.529 -25.679  0.00  0.00    +0.011 C 
ATOM     28  C   UNL     1      33.514 -12.918 -24.219  0.00  0.00    +0.075 C 
ATOM     29  C   UNL     1      34.176 -16.624 -24.701  0.00  0.00    +0.237 C 
ATOM     30  C   UNL     1      34.498 -15.944 -22.384  0.00  0.00    +0.096 C 
ATOM     31  C   UNL     1      34.787 -16.147 -20.920  0.00  0.00    +0.062 C 
ENDBRANCH  19  23
ENDBRANCH  18  19
ENDBRANCH   1  18
TORSDOF 4
ENDMDL
MODEL 8
REMARK VINA RESULT:     -12.0      2.436      3.590
REMARK  Name = 5073
REMARK  4 active torsions:
REMARK  status: ('A' for Active; 'I' for Inactive)
REMARK    1  A    between atoms: N_1  and  C_18
REMARK    2  A    between atoms: C_2  and  C_11
REMARK    3  A    between atoms: C_18  and  C_19
REMARK    4  A    between atoms: C_19  and  C_23
REMARK                            x       y       z     vdW  Elec       q    Type
REMARK                         _______ _______ _______ _____ _____    ______ ____
ROOT
ATOM      1  N   UNL     1      34.246 -22.317 -19.348  0.00  0.00    +0.387 N 
ATOM      2  C   UNL     1      34.567 -19.710 -20.656  0.00  0.00    +0.039 C 
ATOM      3  C   UNL     1      35.677 -20.775 -20.653  0.00  0.00    -0.017 C 
ATOM      4  C   UNL     1      33.196 -20.385 -20.486  0.00  0.00    -0.017 C 
ATOM      5  C   UNL     1      35.570 -21.684 -19.426  0.00  0.00    -0.077 C 
ATOM      6  C   UNL     1      33.180 -21.309 -19.265  0.00  0.00    -0.077 C 
ATOM      7  H   UNL     1      34.105 -22.856 -20.203  0.00  0.00    -0.080 HD
ENDROOT
BRANCH   2  11
ATOM      8  F   UNL     1      34.419 -13.523 -23.284  0.00  0.00    -0.204 F 
ATOM      9  O   UNL     1      34.801 -18.270 -23.950  0.00  0.00    -0.354 OA
ATOM     10  N   UNL     1      34.786 -19.348 -23.075  0.00  0.00    -0.081 NA
ATOM     11  C   UNL     1      34.628 -18.808 -21.868  0.00  0.00    +0.100 A 
ATOM     12  C   UNL     1      34.537 -17.410 -21.899  0.00  0.00    +0.054 A 
ATOM     13  C   UNL     1      34.653 -17.114 -23.247  0.00  0.00    +0.179 A 
ATOM     14  C   UNL     1      34.376 -16.359 -20.983  0.00  0.00    +0.007 C 
ATOM     15  C   UNL     1      34.621 -15.826 -23.773  0.00  0.00    +0.070 C 
ATOM     16  C   UNL     1      34.338 -15.048 -21.479  0.00  0.00    +0.030 C 
ATOM     17  C   UNL     1      34.459 -14.789 -22.848  0.00  0.00    +0.143 C 
ENDBRANCH   2  11
BRANCH   1  18
ATOM     18  C   UNL     1      34.180 -23.226 -18.204  0.00  0.00    -0.076 C 
BRANCH  18  19
ATOM     19  C   UNL     1      34.400 -22.449 -16.913  0.00  0.00    -0.007 C 
BRANCH  19  23
ATOM     20  O   UNL     1      34.117 -24.610 -15.182  0.00  0.00    -0.274 OA
ATOM     21  N   UNL     1      36.357 -24.672 -14.545  0.00  0.00    -0.237 N 
ATOM     22  N   UNL     1      37.855 -23.059 -15.414  0.00  0.00    -0.399 NA
ATOM     23  C   UNL     1      35.564 -23.004 -16.146  0.00  0.00    +0.123 C 
ATOM     24  C   UNL     1      36.087 -25.757 -13.596  0.00  0.00    +0.100 C 
ATOM     25  C   UNL     1      37.318 -26.510 -13.126  0.00  0.00    +0.022 C 
ATOM     26  C   UNL     1      37.600 -24.073 -14.649  0.00  0.00    +0.165 C 
ATOM     27  C   UNL     1      38.373 -25.513 -12.692  0.00  0.00    +0.011 C 
ATOM     28  C   UNL     1      38.768 -24.665 -13.883  0.00  0.00    +0.075 C 
ATOM     29  C   UNL     1      35.264 -24.170 -15.256  0.00  0.00    +0.237 C 
ATOM     30  C   UNL     1      36.828 -22.536 -16.162  0.00  0.00    +0.096 C 
ATOM     31  C   UNL     1      37.264 -21.389 -17.035  0.00  0.00    +0.062 C 
ENDBRANCH  19  23
ENDBRANCH  18  19
ENDBRANCH   1  18
TORSDOF 4
ENDMDL
MODEL 9
REMARK VINA RESULT:     -11.9      2.096      3.087
REMARK  Name = 5073
REMARK  4 active torsions:
REMARK  status: ('A' for Active; 'I' for Inactive)
REMARK    1  A    between atoms: N_1  and  C_18
REMARK    2  A    between atoms: C_2  and  C_11
REMARK    3  A    between atoms: C_18  and  C_19
REMARK    4  A    between atoms: C_19  and  C_23
REMARK                            x       y       z     vdW  Elec       q    Type
REMARK                         _______ _______ _______ _____ _____    ______ ____
ROOT
ATOM      1  N   UNL     1      35.014 -21.270 -20.141  0.00  0.00    +0.387 N 
ATOM      2  C   UNL     1      34.800 -18.468 -20.986  0.00  0.00    +0.039 C 
ATOM      3  C   UNL     1      36.126 -19.247 -21.035  0.00  0.00    -0.017 C 
ATOM      4  C   UNL     1      33.617 -19.447 -21.065  0.00  0.00    -0.017 C 
ATOM      5  C   UNL     1      36.156 -20.358 -19.983  0.00  0.00    -0.077 C 
ATOM      6  C   UNL     1      33.739 -20.551 -20.012  0.00  0.00    -0.077 C 
ATOM      7  H   UNL     1      35.058 -21.668 -21.079  0.00  0.00    -0.080 HD
ENDROOT
BRANCH   2  11
ATOM      8  F   UNL     1      32.279 -12.584 -23.043  0.00  0.00    -0.204 F 
ATOM      9  O   UNL     1      35.164 -16.342 -23.871  0.00  0.00    -0.354 OA
ATOM     10  N   UNL     1      35.456 -17.484 -23.138  0.00  0.00    -0.081 NA
ATOM     11  C   UNL     1      34.726 -17.377 -22.030  0.00  0.00    +0.100 A 
ATOM     12  C   UNL     1      33.956 -16.206 -21.990  0.00  0.00    +0.054 A 
ATOM     13  C   UNL     1      34.269 -15.580 -23.185  0.00  0.00    +0.179 A 
ATOM     14  C   UNL     1      33.045 -15.592 -21.118  0.00  0.00    +0.007 C 
ATOM     15  C   UNL     1      33.738 -14.360 -23.594  0.00  0.00    +0.070 C 
ATOM     16  C   UNL     1      32.489 -14.362 -21.499  0.00  0.00    +0.030 C 
ATOM     17  C   UNL     1      32.831 -13.760 -22.714  0.00  0.00    +0.143 C 
ENDBRANCH   2  11
BRANCH   1  18
ATOM     18  C   UNL     1      35.090 -22.357 -19.165  0.00  0.00    -0.076 C 
BRANCH  18  19
ATOM     19  C   UNL     1      36.045 -21.979 -18.042  0.00  0.00    -0.007 C 
BRANCH  19  23
ATOM     20  O   UNL     1      37.743 -22.131 -15.843  0.00  0.00    -0.274 OA
ATOM     21  N   UNL     1      36.186 -23.140 -14.435  0.00  0.00    -0.237 N 
ATOM     22  N   UNL     1      34.037 -23.671 -15.273  0.00  0.00    -0.399 NA
ATOM     23  C   UNL     1      35.596 -22.570 -16.737  0.00  0.00    +0.123 C 
ATOM     24  C   UNL     1      37.182 -23.250 -13.364  0.00  0.00    +0.100 C 
ATOM     25  C   UNL     1      36.605 -23.511 -11.985  0.00  0.00    +0.022 C 
ATOM     26  C   UNL     1      34.915 -23.675 -14.321  0.00  0.00    +0.165 C 
ATOM     27  C   UNL     1      35.612 -24.651 -12.070  0.00  0.00    +0.011 C 
ATOM     28  C   UNL     1      34.475 -24.247 -12.985  0.00  0.00    +0.075 C 
ATOM     29  C   UNL     1      36.616 -22.582 -15.641  0.00  0.00    +0.237 C 
ATOM     30  C   UNL     1      34.390 -23.111 -16.478  0.00  0.00    +0.096 C 
ATOM     31  C   UNL     1      33.270 -23.134 -17.484  0.00  0.00    +0.062 C 
ENDBRANCH  19  23
ENDBRANCH  18  19
ENDBRANCH   1  18
TORSDOF 4
ENDMDL
