MODEL 1
REMARK VINA RESULT:     -10.8      0.000      0.000
REMARK  Name = 1202104
REMARK  5 active torsions:
REMARK  status: ('A' for Active; 'I' for Inactive)
REMARK    1  A    between atoms: C_1  and  N_9
REMARK    2  A    between atoms: C_4  and  S_21
REMARK    3  A    between atoms: C_16  and  N_18
REMARK    4  A    between atoms: S_21  and  C_22
REMARK    5  A    between atoms: C_25  and  N_28
REMARK                            x       y       z     vdW  Elec       q    Type
REMARK                         _______ _______ _______ _____ _____    ______ ____
ROOT
ATOM      1  C   UNL     1      33.640 -13.349 -24.003  0.00  0.00    +0.061 C 
ATOM      2  C   UNL     1      34.264 -14.191 -23.080  0.00  0.00    +0.016 C 
ATOM      3  C   UNL     1      33.220 -13.861 -25.233  0.00  0.00    +0.016 C 
ATOM      4  C   UNL     1      34.046 -16.045 -24.614  0.00  0.00    +0.030 C 
ATOM      5  C   UNL     1      34.467 -15.537 -23.384  0.00  0.00    +0.008 C 
ATOM      6  C   UNL     1      33.422 -15.207 -25.538  0.00  0.00    +0.008 C 
ENDROOT
BRANCH   1   9
ATOM      7  O   UNL     1      31.706 -12.060 -22.049  0.00  0.00    -0.269 OA
ATOM      8  O   UNL     1      35.017 -10.881 -25.111  0.00  0.00    -0.269 OA
ATOM      9  N   UNL     1      33.434 -11.965 -23.692  0.00  0.00    -0.201 N 
ATOM     10  C   UNL     1      32.644 -10.039 -22.754  0.00  0.00    +0.060 C 
ATOM     11  C   UNL     1      33.603  -9.689 -23.684  0.00  0.00    +0.059 C 
ATOM     12  C   UNL     1      32.521 -11.495 -22.755  0.00  0.00    +0.259 C 
ATOM     13  C   UNL     1      34.122 -10.913 -24.286  0.00  0.00    +0.259 C 
ATOM     14  C   UNL     1      31.967  -9.092 -22.010  0.00  0.00    +0.019 C 
ATOM     15  C   UNL     1      33.944  -8.371 -23.918  0.00  0.00    +0.006 C 
ATOM     16  C   UNL     1      32.295  -7.752 -22.230  0.00  0.00    +0.042 C 
ATOM     17  C   UNL     1      33.275  -7.394 -23.176  0.00  0.00    +0.014 C 
BRANCH  16  18
ATOM     18  N   UNL     1      31.635  -6.742 -21.495  0.00  0.00    -0.357 N 
ATOM     19  H   UNL     1      30.763  -6.401 -21.801  0.00  0.00    +0.142 HD
ATOM     20  H   UNL     1      32.047  -6.378 -20.678  0.00  0.00    +0.142 HD
ENDBRANCH  16  18
ENDBRANCH   1   9
BRANCH   4  21
ATOM     21  S   UNL     1      34.308 -17.764 -25.006  0.00  0.00    -0.087 S 
BRANCH  21  22
ATOM     22  C   UNL     1      34.942 -18.383 -23.454  0.00  0.00    +0.030 C 
ATOM     23  C   UNL     1      36.268 -18.148 -23.105  0.00  0.00    +0.008 C 
ATOM     24  C   UNL     1      34.107 -19.100 -22.601  0.00  0.00    +0.008 C 
ATOM     25  C   UNL     1      35.930 -19.351 -21.037  0.00  0.00    +0.042 C 
ATOM     26  C   UNL     1      36.764 -18.632 -21.894  0.00  0.00    +0.015 C 
ATOM     27  C   UNL     1      34.601 -19.584 -21.391  0.00  0.00    +0.015 C 
BRANCH  25  28
ATOM     28  N   UNL     1      36.430 -19.842 -19.813  0.00  0.00    -0.357 N 
ATOM     29  H   UNL     1      36.052 -19.520 -18.963  0.00  0.00    +0.142 HD
ATOM     30  H   UNL     1      37.158 -20.505 -19.809  0.00  0.00    +0.142 HD
ENDBRANCH  25  28
ENDBRANCH  21  22
ENDBRANCH   4  21
TORSDOF 5
ENDMDL
MODEL 2
REMARK VINA RESULT:     -10.7      0.620      1.833
REMARK  Name = 1202104
REMARK  5 active torsions:
REMARK  status: ('A' for Active; 'I' for Inactive)
REMARK    1  A    between atoms: C_1  and  N_9
REMARK    2  A    between atoms: C_4  and  S_21
REMARK    3  A    between atoms: C_16  and  N_18
REMARK    4  A    between atoms: S_21  and  C_22
REMARK    5  A    between atoms: C_25  and  N_28
REMARK                            x       y       z     vdW  Elec       q    Type
REMARK                         _______ _______ _______ _____ _____    ______ ____
ROOT
ATOM      1  C   UNL     1      33.579 -13.666 -23.849  0.00  0.00    +0.061 C 
ATOM      2  C   UNL     1      34.314 -14.446 -22.953  0.00  0.00    +0.016 C 
ATOM      3  C   UNL     1      33.166 -14.214 -25.065  0.00  0.00    +0.016 C 
ATOM      4  C   UNL     1      34.220 -16.309 -24.487  0.00  0.00    +0.030 C 
ATOM      5  C   UNL     1      34.634 -15.765 -23.271  0.00  0.00    +0.008 C 
ATOM      6  C   UNL     1      33.485 -15.534 -25.384  0.00  0.00    +0.008 C 
ENDROOT
BRANCH   1   9
ATOM      7  O   UNL     1      34.620 -11.075 -25.041  0.00  0.00    -0.269 OA
ATOM      8  O   UNL     1      31.650 -12.572 -21.775  0.00  0.00    -0.269 OA
ATOM      9  N   UNL     1      33.252 -12.309 -23.524  0.00  0.00    -0.201 N 
ATOM     10  C   UNL     1      33.184 -10.026 -23.524  0.00  0.00    +0.060 C 
ATOM     11  C   UNL     1      32.327 -10.470 -22.537  0.00  0.00    +0.059 C 
ATOM     12  C   UNL     1      33.788 -11.195 -24.160  0.00  0.00    +0.259 C 
ATOM     13  C   UNL     1      32.357 -11.930 -22.530  0.00  0.00    +0.259 C 
ATOM     14  C   UNL     1      33.370  -8.682 -23.780  0.00  0.00    +0.019 C 
ATOM     15  C   UNL     1      31.605  -9.594 -21.751  0.00  0.00    +0.006 C 
ATOM     16  C   UNL     1      32.651  -7.776 -22.997  0.00  0.00    +0.042 C 
ATOM     17  C   UNL     1      31.775  -8.228 -21.991  0.00  0.00    +0.014 C 
BRANCH  16  18
ATOM     18  N   UNL     1      32.802  -6.389 -23.216  0.00  0.00    -0.357 N 
ATOM     19  H   UNL     1      33.626  -6.043 -23.630  0.00  0.00    +0.142 HD
ATOM     20  H   UNL     1      32.085  -5.768 -22.953  0.00  0.00    +0.142 HD
ENDBRANCH  16  18
ENDBRANCH   1   9
BRANCH   4  21
ATOM     21  S   UNL     1      34.632 -17.994 -24.897  0.00  0.00    -0.087 S 
BRANCH  21  22
ATOM     22  C   UNL     1      35.163 -18.620 -23.309  0.00  0.00    +0.030 C 
ATOM     23  C   UNL     1      36.459 -18.375 -22.867  0.00  0.00    +0.008 C 
ATOM     24  C   UNL     1      34.278 -19.352 -22.522  0.00  0.00    +0.008 C 
ATOM     25  C   UNL     1      35.991 -19.598 -20.837  0.00  0.00    +0.042 C 
ATOM     26  C   UNL     1      36.875 -18.864 -21.629  0.00  0.00    +0.015 C 
ATOM     27  C   UNL     1      34.692 -19.841 -21.284  0.00  0.00    +0.015 C 
BRANCH  25  28
ATOM     28  N   UNL     1      36.410 -20.093 -19.584  0.00  0.00    -0.357 N 
ATOM     29  H   UNL     1      36.822 -19.486 -18.928  0.00  0.00    +0.142 HD
ATOM     30  H   UNL     1      36.291 -21.046 -19.368  0.00  0.00    +0.142 HD
ENDBRANCH  25  28
ENDBRANCH  21  22
ENDBRANCH   4  21
TORSDOF 5
ENDMDL
MODEL 3
REMARK VINA RESULT:     -10.3      2.154      3.411
REMARK  Name = 1202104
REMARK  5 active torsions:
REMARK  status: ('A' for Active; 'I' for Inactive)
REMARK    1  A    between atoms: C_1  and  N_9
REMARK    2  A    between atoms: C_4  and  S_21
REMARK    3  A    between atoms: C_16  and  N_18
REMARK    4  A    between atoms: S_21  and  C_22
REMARK    5  A    between atoms: C_25  and  N_28
REMARK                            x       y       z     vdW  Elec       q    Type
REMARK                         _______ _______ _______ _____ _____    ______ ____
ROOT
ATOM      1  C   UNL     1      34.017 -15.006 -22.224  0.00  0.00    +0.061 C 
ATOM      2  C   UNL     1      34.501 -15.529 -21.022  0.00  0.00    +0.016 C 
ATOM      3  C   UNL     1      34.186 -15.727 -23.409  0.00  0.00    +0.016 C 
ATOM      4  C   UNL     1      35.316 -17.480 -22.191  0.00  0.00    +0.030 C 
ATOM      5  C   UNL     1      35.150 -16.763 -21.005  0.00  0.00    +0.008 C 
ATOM      6  C   UNL     1      34.834 -16.962 -23.393  0.00  0.00    +0.008 C 
ENDROOT
BRANCH   1   9
ATOM      7  O   UNL     1      34.173 -12.759 -24.260  0.00  0.00    -0.269 OA
ATOM      8  O   UNL     1      32.059 -13.806 -20.239  0.00  0.00    -0.269 OA
ATOM      9  N   UNL     1      33.354 -13.736 -22.242  0.00  0.00    -0.201 N 
ATOM     10  C   UNL     1      32.646 -11.659 -22.874  0.00  0.00    +0.060 C 
ATOM     11  C   UNL     1      32.044 -11.957 -21.668  0.00  0.00    +0.059 C 
ATOM     12  C   UNL     1      33.493 -12.788 -23.249  0.00  0.00    +0.259 C 
ATOM     13  C   UNL     1      32.484 -13.287 -21.256  0.00  0.00    +0.259 C 
ATOM     14  C   UNL     1      32.423 -10.462 -23.526  0.00  0.00    +0.019 C 
ATOM     15  C   UNL     1      31.180 -11.076 -21.047  0.00  0.00    +0.006 C 
ATOM     16  C   UNL     1      31.553  -9.555 -22.917  0.00  0.00    +0.042 C 
ATOM     17  C   UNL     1      30.937  -9.859 -21.688  0.00  0.00    +0.014 C 
BRANCH  16  18
ATOM     18  N   UNL     1      31.287  -8.315 -23.541  0.00  0.00    -0.357 N 
ATOM     19  H   UNL     1      30.914  -8.293 -24.452  0.00  0.00    +0.142 HD
ATOM     20  H   UNL     1      31.476  -7.474 -23.064  0.00  0.00    +0.142 HD
ENDBRANCH  16  18
ENDBRANCH   1   9
BRANCH   4  21
ATOM     21  S   UNL     1      36.149 -19.056 -22.171  0.00  0.00    -0.087 S 
BRANCH  21  22
ATOM     22  C   UNL     1      35.091 -19.996 -21.080  0.00  0.00    +0.030 C 
ATOM     23  C   UNL     1      33.717 -19.775 -21.088  0.00  0.00    +0.008 C 
ATOM     24  C   UNL     1      35.646 -20.945 -20.225  0.00  0.00    +0.008 C 
ATOM     25  C   UNL     1      33.443 -21.460 -19.378  0.00  0.00    +0.042 C 
ATOM     26  C   UNL     1      32.891 -20.508 -20.236  0.00  0.00    +0.015 C 
ATOM     27  C   UNL     1      34.821 -21.679 -19.373  0.00  0.00    +0.015 C 
BRANCH  25  28
ATOM     28  N   UNL     1      32.608 -22.201 -18.515  0.00  0.00    -0.357 N 
ATOM     29  H   UNL     1      32.109 -22.976 -18.861  0.00  0.00    +0.142 HD
ATOM     30  H   UNL     1      32.525 -21.943 -17.569  0.00  0.00    +0.142 HD
ENDBRANCH  25  28
ENDBRANCH  21  22
ENDBRANCH   4  21
TORSDOF 5
ENDMDL
MODEL 4
REMARK VINA RESULT:     -10.1      3.009      9.242
REMARK  Name = 1202104
REMARK  5 active torsions:
REMARK  status: ('A' for Active; 'I' for Inactive)
REMARK    1  A    between atoms: C_1  and  N_9
REMARK    2  A    between atoms: C_4  and  S_21
REMARK    3  A    between atoms: C_16  and  N_18
REMARK    4  A    between atoms: S_21  and  C_22
REMARK    5  A    between atoms: C_25  and  N_28
REMARK                            x       y       z     vdW  Elec       q    Type
REMARK                         _______ _______ _______ _____ _____    ______ ____
ROOT
ATOM      1  C   UNL     1      33.083 -12.331 -23.284  0.00  0.00    +0.061 C 
ATOM      2  C   UNL     1      33.698 -11.268 -23.949  0.00  0.00    +0.016 C 
ATOM      3  C   UNL     1      32.088 -12.071 -22.338  0.00  0.00    +0.016 C 
ATOM      4  C   UNL     1      32.329  -9.699 -22.725  0.00  0.00    +0.030 C 
ATOM      5  C   UNL     1      33.323  -9.954 -23.670  0.00  0.00    +0.008 C 
ATOM      6  C   UNL     1      31.711 -10.757 -22.059  0.00  0.00    +0.008 C 
ENDROOT
BRANCH   1   9
ATOM      7  O   UNL     1      34.451 -14.376 -21.506  0.00  0.00    -0.269 OA
ATOM      8  O   UNL     1      32.766 -13.951 -25.831  0.00  0.00    -0.269 OA
ATOM      9  N   UNL     1      33.471 -13.681 -23.567  0.00  0.00    -0.201 N 
ATOM     10  C   UNL     1      34.295 -15.800 -23.353  0.00  0.00    +0.060 C 
ATOM     11  C   UNL     1      33.823 -15.663 -24.643  0.00  0.00    +0.059 C 
ATOM     12  C   UNL     1      34.081 -14.534 -22.655  0.00  0.00    +0.259 C 
ATOM     13  C   UNL     1      33.287 -14.313 -24.792  0.00  0.00    +0.259 C 
ATOM     14  C   UNL     1      34.863 -16.975 -22.903  0.00  0.00    +0.019 C 
ATOM     15  C   UNL     1      33.889 -16.697 -25.557  0.00  0.00    +0.006 C 
ATOM     16  C   UNL     1      34.941 -18.035 -23.809  0.00  0.00    +0.042 C 
ATOM     17  C   UNL     1      34.458 -17.898 -25.125  0.00  0.00    +0.014 C 
BRANCH  16  18
ATOM     18  N   UNL     1      35.511 -19.262 -23.402  0.00  0.00    -0.357 N 
ATOM     19  H   UNL     1      36.427 -19.283 -23.041  0.00  0.00    +0.142 HD
ATOM     20  H   UNL     1      34.993 -20.096 -23.480  0.00  0.00    +0.142 HD
ENDBRANCH  16  18
ENDBRANCH   1   9
BRANCH   4  21
ATOM     21  S   UNL     1      31.851  -8.020 -22.365  0.00  0.00    -0.087 S 
BRANCH  21  22
ATOM     22  C   UNL     1      32.679  -7.132 -23.676  0.00  0.00    +0.030 C 
ATOM     23  C   UNL     1      31.951  -6.283 -24.504  0.00  0.00    +0.008 C 
ATOM     24  C   UNL     1      34.049  -7.293 -23.864  0.00  0.00    +0.008 C 
ATOM     25  C   UNL     1      33.970  -5.749 -25.719  0.00  0.00    +0.042 C 
ATOM     26  C   UNL     1      32.597  -5.590 -25.528  0.00  0.00    +0.015 C 
ATOM     27  C   UNL     1      34.696  -6.601 -24.886  0.00  0.00    +0.015 C 
BRANCH  25  28
ATOM     28  N   UNL     1      34.624  -5.050 -26.755  0.00  0.00    -0.357 N 
ATOM     29  H   UNL     1      34.848  -5.512 -27.595  0.00  0.00    +0.142 HD
ATOM     30  H   UNL     1      34.856  -4.101 -26.637  0.00  0.00    +0.142 HD
ENDBRANCH  25  28
ENDBRANCH  21  22
ENDBRANCH   4  21
TORSDOF 5
ENDMDL
MODEL 5
REMARK VINA RESULT:     -10.1      3.157      9.381
REMARK  Name = 1202104
REMARK  5 active torsions:
REMARK  status: ('A' for Active; 'I' for Inactive)
REMARK    1  A    between atoms: C_1  and  N_9
REMARK    2  A    between atoms: C_4  and  S_21
REMARK    3  A    between atoms: C_16  and  N_18
REMARK    4  A    between atoms: S_21  and  C_22
REMARK    5  A    between atoms: C_25  and  N_28
REMARK                            x       y       z     vdW  Elec       q    Type
REMARK                         _______ _______ _______ _____ _____    ______ ____
ROOT
ATOM      1  C   UNL     1      34.486 -18.015 -22.411  0.00  0.00    +0.061 C 
ATOM      2  C   UNL     1      34.304 -16.692 -22.003  0.00  0.00    +0.016 C 
ATOM      3  C   UNL     1      34.526 -18.318 -23.774  0.00  0.00    +0.016 C 
ATOM      4  C   UNL     1      34.204 -15.985 -24.310  0.00  0.00    +0.030 C 
ATOM      5  C   UNL     1      34.163 -15.678 -22.950  0.00  0.00    +0.008 C 
ATOM      6  C   UNL     1      34.385 -17.305 -24.723  0.00  0.00    +0.008 C 
ENDROOT
BRANCH   1   9
ATOM      7  O   UNL     1      32.371 -19.757 -21.104  0.00  0.00    -0.269 OA
ATOM      8  O   UNL     1      36.986 -19.104 -21.078  0.00  0.00    -0.269 OA
ATOM      9  N   UNL     1      34.628 -19.057 -21.438  0.00  0.00    -0.201 N 
ATOM     10  C   UNL     1      34.162 -20.749 -19.976  0.00  0.00    +0.060 C 
ATOM     11  C   UNL     1      35.525 -20.534 -19.946  0.00  0.00    +0.059 C 
ATOM     12  C   UNL     1      33.574 -19.804 -20.924  0.00  0.00    +0.259 C 
ATOM     13  C   UNL     1      35.838 -19.458 -20.883  0.00  0.00    +0.259 C 
ATOM     14  C   UNL     1      33.557 -21.714 -19.196  0.00  0.00    +0.019 C 
ATOM     15  C   UNL     1      36.362 -21.276 -19.136  0.00  0.00    +0.006 C 
ATOM     16  C   UNL     1      34.383 -22.477 -18.367  0.00  0.00    +0.042 C 
ATOM     17  C   UNL     1      35.774 -22.260 -18.337  0.00  0.00    +0.014 C 
BRANCH  16  18
ATOM     18  N   UNL     1      33.818 -23.479 -17.548  0.00  0.00    -0.357 N 
ATOM     19  H   UNL     1      34.311 -23.807 -16.761  0.00  0.00    +0.142 HD
ATOM     20  H   UNL     1      32.931 -23.849 -17.763  0.00  0.00    +0.142 HD
ENDBRANCH  16  18
ENDBRANCH   1   9
BRANCH   4  21
ATOM     21  S   UNL     1      34.019 -14.691 -25.522  0.00  0.00    -0.087 S 
BRANCH  21  22
ATOM     22  C   UNL     1      33.455 -13.335 -24.503  0.00  0.00    +0.030 C 
ATOM     23  C   UNL     1      33.923 -12.047 -24.744  0.00  0.00    +0.008 C 
ATOM     24  C   UNL     1      32.551 -13.574 -23.471  0.00  0.00    +0.008 C 
ATOM     25  C   UNL     1      32.578 -11.224 -22.914  0.00  0.00    +0.042 C 
ATOM     26  C   UNL     1      33.484 -10.989 -23.949  0.00  0.00    +0.015 C 
ATOM     27  C   UNL     1      32.111 -12.517 -22.676  0.00  0.00    +0.015 C 
BRANCH  25  28
ATOM     28  N   UNL     1      32.134 -10.154 -22.108  0.00  0.00    -0.357 N 
ATOM     29  H   UNL     1      32.785  -9.515 -21.738  0.00  0.00    +0.142 HD
ATOM     30  H   UNL     1      31.174 -10.048 -21.916  0.00  0.00    +0.142 HD
ENDBRANCH  25  28
ENDBRANCH  21  22
ENDBRANCH   4  21
TORSDOF 5
ENDMDL
MODEL 6
REMARK VINA RESULT:      -9.8      5.354     11.437
REMARK  Name = 1202104
REMARK  5 active torsions:
REMARK  status: ('A' for Active; 'I' for Inactive)
REMARK    1  A    between atoms: C_1  and  N_9
REMARK    2  A    between atoms: C_4  and  S_21
REMARK    3  A    between atoms: C_16  and  N_18
REMARK    4  A    between atoms: S_21  and  C_22
REMARK    5  A    between atoms: C_25  and  N_28
REMARK                            x       y       z     vdW  Elec       q    Type
REMARK                         _______ _______ _______ _____ _____    ______ ____
ROOT
ATOM      1  C   UNL     1      35.064 -21.019 -19.472  0.00  0.00    +0.061 C 
ATOM      2  C   UNL     1      36.341 -20.599 -19.853  0.00  0.00    +0.016 C 
ATOM      3  C   UNL     1      33.953 -20.614 -20.216  0.00  0.00    +0.016 C 
ATOM      4  C   UNL     1      35.393 -19.379 -21.710  0.00  0.00    +0.030 C 
ATOM      5  C   UNL     1      36.506 -19.781 -20.970  0.00  0.00    +0.008 C 
ATOM      6  C   UNL     1      34.117 -19.795 -21.334  0.00  0.00    +0.008 C 
ENDROOT
BRANCH   1   9
ATOM      7  O   UNL     1      37.096 -21.925 -17.406  0.00  0.00    -0.269 OA
ATOM      8  O   UNL     1      32.569 -22.387 -18.416  0.00  0.00    -0.269 OA
ATOM      9  N   UNL     1      34.894 -21.857 -18.323  0.00  0.00    -0.201 N 
ATOM     10  C   UNL     1      35.301 -23.048 -16.418  0.00  0.00    +0.060 C 
ATOM     11  C   UNL     1      33.967 -23.210 -16.735  0.00  0.00    +0.059 C 
ATOM     12  C   UNL     1      35.908 -22.189 -17.432  0.00  0.00    +0.259 C 
ATOM     13  C   UNL     1      33.692 -22.446 -17.949  0.00  0.00    +0.259 C 
ATOM     14  C   UNL     1      35.867 -23.650 -15.311  0.00  0.00    +0.019 C 
ATOM     15  C   UNL     1      33.122 -23.979 -15.959  0.00  0.00    +0.006 C 
ATOM     16  C   UNL     1      35.032 -24.433 -14.511  0.00  0.00    +0.042 C 
ATOM     17  C   UNL     1      33.671 -24.597 -14.832  0.00  0.00    +0.014 C 
BRANCH  16  18
ATOM     18  N   UNL     1      35.558 -25.071 -13.366  0.00  0.00    -0.357 N 
ATOM     19  H   UNL     1      36.021 -25.936 -13.453  0.00  0.00    +0.142 HD
ATOM     20  H   UNL     1      35.461 -24.651 -12.480  0.00  0.00    +0.142 HD
ENDBRANCH  16  18
ENDBRANCH   1   9
BRANCH   4  21
ATOM     21  S   UNL     1      35.602 -18.329 -23.136  0.00  0.00    -0.087 S 
BRANCH  21  22
ATOM     22  C   UNL     1      34.731 -16.857 -22.617  0.00  0.00    +0.030 C 
ATOM     23  C   UNL     1      34.725 -16.494 -21.274  0.00  0.00    +0.008 C 
ATOM     24  C   UNL     1      34.059 -16.082 -23.559  0.00  0.00    +0.008 C 
ATOM     25  C   UNL     1      33.371 -14.566 -21.809  0.00  0.00    +0.042 C 
ATOM     26  C   UNL     1      34.045 -15.346 -20.868  0.00  0.00    +0.015 C 
ATOM     27  C   UNL     1      33.379 -14.934 -23.155  0.00  0.00    +0.015 C 
BRANCH  25  28
ATOM     28  N   UNL     1      32.681 -13.405 -21.400  0.00  0.00    -0.357 N 
ATOM     29  H   UNL     1      31.724 -13.456 -21.176  0.00  0.00    +0.142 HD
ATOM     30  H   UNL     1      33.157 -12.546 -21.338  0.00  0.00    +0.142 HD
ENDBRANCH  25  28
ENDBRANCH  21  22
ENDBRANCH   4  21
TORSDOF 5
ENDMDL
MODEL 7
REMARK VINA RESULT:      -9.8      5.351     11.303
REMARK  Name = 1202104
REMARK  5 active torsions:
REMARK  status: ('A' for Active; 'I' for Inactive)
REMARK    1  A    between atoms: C_1  and  N_9
REMARK    2  A    between atoms: C_4  and  S_21
REMARK    3  A    between atoms: C_16  and  N_18
REMARK    4  A    between atoms: S_21  and  C_22
REMARK    5  A    between atoms: C_25  and  N_28
REMARK                            x       y       z     vdW  Elec       q    Type
REMARK                         _______ _______ _______ _____ _____    ______ ____
ROOT
ATOM      1  C   UNL     1      35.066 -21.015 -19.512  0.00  0.00    +0.061 C 
ATOM      2  C   UNL     1      36.344 -20.615 -19.909  0.00  0.00    +0.016 C 
ATOM      3  C   UNL     1      33.954 -20.612 -20.255  0.00  0.00    +0.016 C 
ATOM      4  C   UNL     1      35.397 -19.417 -21.780  0.00  0.00    +0.030 C 
ATOM      5  C   UNL     1      36.510 -19.818 -21.040  0.00  0.00    +0.008 C 
ATOM      6  C   UNL     1      34.119 -19.814 -21.388  0.00  0.00    +0.008 C 
ENDROOT
BRANCH   1   9
ATOM      7  O   UNL     1      32.562 -22.334 -18.411  0.00  0.00    -0.269 OA
ATOM      8  O   UNL     1      37.104 -21.916 -17.451  0.00  0.00    -0.269 OA
ATOM      9  N   UNL     1      34.894 -21.832 -18.347  0.00  0.00    -0.201 N 
ATOM     10  C   UNL     1      33.965 -23.149 -16.729  0.00  0.00    +0.060 C 
ATOM     11  C   UNL     1      35.304 -22.999 -16.429  0.00  0.00    +0.059 C 
ATOM     12  C   UNL     1      33.689 -22.400 -17.953  0.00  0.00    +0.259 C 
ATOM     13  C   UNL     1      35.912 -22.163 -17.461  0.00  0.00    +0.259 C 
ATOM     14  C   UNL     1      33.117 -23.895 -15.935  0.00  0.00    +0.019 C 
ATOM     15  C   UNL     1      35.873 -23.591 -15.318  0.00  0.00    +0.006 C 
ATOM     16  C   UNL     1      33.669 -24.503 -14.805  0.00  0.00    +0.042 C 
ATOM     17  C   UNL     1      35.035 -24.353 -14.499  0.00  0.00    +0.014 C 
BRANCH  16  18
ATOM     18  N   UNL     1      32.848 -25.279 -13.958  0.00  0.00    -0.357 N 
ATOM     19  H   UNL     1      32.425 -24.867 -13.169  0.00  0.00    +0.142 HD
ATOM     20  H   UNL     1      32.698 -26.232 -14.154  0.00  0.00    +0.142 HD
ENDBRANCH  16  18
ENDBRANCH   1   9
BRANCH   4  21
ATOM     21  S   UNL     1      35.607 -18.394 -23.224  0.00  0.00    -0.087 S 
BRANCH  21  22
ATOM     22  C   UNL     1      34.735 -16.913 -22.734  0.00  0.00    +0.030 C 
ATOM     23  C   UNL     1      34.693 -16.547 -21.392  0.00  0.00    +0.008 C 
ATOM     24  C   UNL     1      34.100 -16.132 -23.696  0.00  0.00    +0.008 C 
ATOM     25  C   UNL     1      33.374 -14.607 -21.969  0.00  0.00    +0.042 C 
ATOM     26  C   UNL     1      34.012 -15.392 -21.008  0.00  0.00    +0.015 C 
ATOM     27  C   UNL     1      33.420 -14.977 -23.314  0.00  0.00    +0.015 C 
BRANCH  25  28
ATOM     28  N   UNL     1      32.684 -13.439 -21.582  0.00  0.00    -0.357 N 
ATOM     29  H   UNL     1      32.218 -13.408 -20.715  0.00  0.00    +0.142 HD
ATOM     30  H   UNL     1      32.669 -12.656 -22.178  0.00  0.00    +0.142 HD
ENDBRANCH  25  28
ENDBRANCH  21  22
ENDBRANCH   4  21
TORSDOF 5
ENDMDL
MODEL 8
REMARK VINA RESULT:      -9.7      3.121      9.542
REMARK  Name = 1202104
REMARK  5 active torsions:
REMARK  status: ('A' for Active; 'I' for Inactive)
REMARK    1  A    between atoms: C_1  and  N_9
REMARK    2  A    between atoms: C_4  and  S_21
REMARK    3  A    between atoms: C_16  and  N_18
REMARK    4  A    between atoms: S_21  and  C_22
REMARK    5  A    between atoms: C_25  and  N_28
REMARK                            x       y       z     vdW  Elec       q    Type
REMARK                         _______ _______ _______ _____ _____    ______ ____
ROOT
ATOM      1  C   UNL     1      34.591 -18.187 -22.470  0.00  0.00    +0.061 C 
ATOM      2  C   UNL     1      34.411 -16.841 -22.143  0.00  0.00    +0.016 C 
ATOM      3  C   UNL     1      34.537 -18.586 -23.807  0.00  0.00    +0.016 C 
ATOM      4  C   UNL     1      34.126 -16.303 -24.481  0.00  0.00    +0.030 C 
ATOM      5  C   UNL     1      34.179 -15.900 -23.146  0.00  0.00    +0.008 C 
ATOM      6  C   UNL     1      34.305 -17.646 -24.812  0.00  0.00    +0.008 C 
ENDROOT
BRANCH   1   9
ATOM      7  O   UNL     1      37.167 -18.921 -21.041  0.00  0.00    -0.269 OA
ATOM      8  O   UNL     1      32.652 -20.078 -21.099  0.00  0.00    -0.269 OA
ATOM      9  N   UNL     1      34.826 -19.154 -21.439  0.00  0.00    -0.201 N 
ATOM     10  C   UNL     1      35.848 -20.440 -19.853  0.00  0.00    +0.060 C 
ATOM     11  C   UNL     1      34.517 -20.804 -19.893  0.00  0.00    +0.059 C 
ATOM     12  C   UNL     1      36.060 -19.389 -20.845  0.00  0.00    +0.259 C 
ATOM     13  C   UNL     1      33.850 -19.983 -20.899  0.00  0.00    +0.259 C 
ATOM     14  C   UNL     1      36.744 -21.040 -18.991  0.00  0.00    +0.019 C 
ATOM     15  C   UNL     1      34.005 -21.786 -19.067  0.00  0.00    +0.006 C 
ATOM     16  C   UNL     1      36.250 -22.037 -18.146  0.00  0.00    +0.042 C 
ATOM     17  C   UNL     1      34.892 -22.407 -18.184  0.00  0.00    +0.014 C 
BRANCH  16  18
ATOM     18  N   UNL     1      37.122 -22.683 -17.242  0.00  0.00    -0.357 N 
ATOM     19  H   UNL     1      38.097 -22.616 -17.366  0.00  0.00    +0.142 HD
ATOM     20  H   UNL     1      36.755 -23.201 -16.489  0.00  0.00    +0.142 HD
ENDBRANCH  16  18
ENDBRANCH   1   9
BRANCH   4  21
ATOM     21  S   UNL     1      33.825 -15.103 -25.764  0.00  0.00    -0.087 S 
BRANCH  21  22
ATOM     22  C   UNL     1      33.420 -13.654 -24.799  0.00  0.00    +0.030 C 
ATOM     23  C   UNL     1      32.585 -13.772 -23.691  0.00  0.00    +0.008 C 
ATOM     24  C   UNL     1      33.939 -12.414 -25.160  0.00  0.00    +0.008 C 
ATOM     25  C   UNL     1      32.786 -11.397 -23.297  0.00  0.00    +0.042 C 
ATOM     26  C   UNL     1      32.268 -12.642 -22.938  0.00  0.00    +0.015 C 
ATOM     27  C   UNL     1      33.623 -11.283 -24.408  0.00  0.00    +0.015 C 
BRANCH  25  28
ATOM     28  N   UNL     1      32.465 -10.253 -22.536  0.00  0.00    -0.357 N 
ATOM     29  H   UNL     1      32.260  -9.403 -22.990  0.00  0.00    +0.142 HD
ATOM     30  H   UNL     1      32.445 -10.305 -21.554  0.00  0.00    +0.142 HD
ENDBRANCH  25  28
ENDBRANCH  21  22
ENDBRANCH   4  21
TORSDOF 5
ENDMDL
MODEL 9
REMARK VINA RESULT:      -9.7      4.101      6.757
REMARK  Name = 1202104
REMARK  5 active torsions:
REMARK  status: ('A' for Active; 'I' for Inactive)
REMARK    1  A    between atoms: C_1  and  N_9
REMARK    2  A    between atoms: C_4  and  S_21
REMARK    3  A    between atoms: C_16  and  N_18
REMARK    4  A    between atoms: S_21  and  C_22
REMARK    5  A    between atoms: C_25  and  N_28
REMARK                            x       y       z     vdW  Elec       q    Type
REMARK                         _______ _______ _______ _____ _____    ______ ____
ROOT
ATOM      1  C   UNL     1      35.187 -18.516 -21.528  0.00  0.00    +0.061 C 
ATOM      2  C   UNL     1      36.550 -18.656 -21.258  0.00  0.00    +0.016 C 
ATOM      3  C   UNL     1      34.276 -19.420 -20.977  0.00  0.00    +0.016 C 
ATOM      4  C   UNL     1      36.086 -20.594 -19.892  0.00  0.00    +0.030 C 
ATOM      5  C   UNL     1      37.000 -19.693 -20.441  0.00  0.00    +0.008 C 
ATOM      6  C   UNL     1      34.725 -20.458 -20.159  0.00  0.00    +0.008 C 
ENDROOT
BRANCH   1   9
ATOM      7  O   UNL     1      34.751 -18.461 -24.532  0.00  0.00    -0.269 OA
ATOM      8  O   UNL     1      34.365 -15.683 -20.809  0.00  0.00    -0.269 OA
ATOM      9  N   UNL     1      34.724 -17.452 -22.370  0.00  0.00    -0.201 N 
ATOM     10  C   UNL     1      34.064 -16.253 -24.197  0.00  0.00    +0.060 C 
ATOM     11  C   UNL     1      33.979 -15.422 -23.098  0.00  0.00    +0.059 C 
ATOM     12  C   UNL     1      34.547 -17.555 -23.745  0.00  0.00    +0.259 C 
ATOM     13  C   UNL     1      34.393 -16.179 -21.921  0.00  0.00    +0.259 C 
ATOM     14  C   UNL     1      33.732 -15.822 -25.467  0.00  0.00    +0.019 C 
ATOM     15  C   UNL     1      33.552 -14.112 -23.206  0.00  0.00    +0.006 C 
ATOM     16  C   UNL     1      33.298 -14.501 -25.601  0.00  0.00    +0.042 C 
ATOM     17  C   UNL     1      33.209 -13.653 -24.481  0.00  0.00    +0.014 C 
BRANCH  16  18
ATOM     18  N   UNL     1      32.945 -14.008 -26.876  0.00  0.00    -0.357 N 
ATOM     19  H   UNL     1      33.165 -13.080 -27.124  0.00  0.00    +0.142 HD
ATOM     20  H   UNL     1      32.478 -14.591 -27.518  0.00  0.00    +0.142 HD
ENDBRANCH  16  18
ENDBRANCH   1   9
BRANCH   4  21
ATOM     21  S   UNL     1      36.661 -21.923 -18.851  0.00  0.00    -0.087 S 
BRANCH  21  22
ATOM     22  C   UNL     1      35.150 -22.393 -18.019  0.00  0.00    +0.030 C 
ATOM     23  C   UNL     1      35.186 -22.764 -16.679  0.00  0.00    +0.008 C 
ATOM     24  C   UNL     1      33.945 -22.387 -18.716  0.00  0.00    +0.008 C 
ATOM     25  C   UNL     1      32.798 -23.127 -16.723  0.00  0.00    +0.042 C 
ATOM     26  C   UNL     1      34.008 -23.132 -16.029  0.00  0.00    +0.015 C 
ATOM     27  C   UNL     1      32.766 -22.754 -18.067  0.00  0.00    +0.015 C 
BRANCH  25  28
ATOM     28  N   UNL     1      31.606 -23.500 -16.067  0.00  0.00    -0.357 N 
ATOM     29  H   UNL     1      31.339 -23.043 -15.236  0.00  0.00    +0.142 HD
ATOM     30  H   UNL     1      31.042 -24.216 -16.439  0.00  0.00    +0.142 HD
ENDBRANCH  25  28
ENDBRANCH  21  22
ENDBRANCH   4  21
TORSDOF 5
ENDMDL
