MODEL 1
REMARK VINA RESULT:      -9.5      0.000      0.000
REMARK  Name = 100094
REMARK  11 active torsions:
REMARK  status: ('A' for Active; 'I' for Inactive)
REMARK    1  A    between atoms: CA_1  and  N_3
REMARK    2  A    between atoms: CA_1  and  C_18
REMARK    3  A    between atoms: CA_1  and  CB_21
REMARK    4  A    between atoms: C_4  and  CA_6
REMARK    5  A    between atoms: CA_6  and  N_7
REMARK    6  A    between atoms: CA_6  and  CB_11
REMARK    7  A    between atoms: CB_11  and  CG_12
REMARK    8  A    between atoms: CG_12  and  CD_14
REMARK    9  A    between atoms: CD_14  and  OE1_15
REMARK   10  A    between atoms: C_18  and  O_19
REMARK   11  A    between atoms: CB_21  and  CG_23
REMARK                            x       y       z     vdW  Elec       q    Type
REMARK                         _______ _______ _______ _____ _____    ______ ____
ROOT
ATOM      1  CA  TRP A   2      33.979 -23.174 -16.240  0.00  0.00    +0.176 C 
ENDROOT
BRANCH   1   3
ATOM      2  O   GLU A   1      36.060 -22.942 -14.244  0.00  0.00    -0.277 OA
ATOM      3  N   TRP A   2      34.843 -24.225 -15.749  0.00  0.00    -0.298 N 
ATOM      4  C   GLU A   1      35.817 -24.018 -14.785  0.00  0.00    +0.202 C 
ATOM      5  H   TRP A   2      34.732 -25.131 -16.119  0.00  0.00    +0.150 HD
BRANCH   4   6
ATOM      6  CA  GLU A   1      36.606 -25.288 -14.474  0.00  0.00    +0.013 C 
BRANCH   6   7
ATOM      7  N   GLU A   1      35.907 -26.384 -15.148  0.00  0.00    +0.387 N 
ATOM      8  H1  GLU A   1      36.581 -26.946 -15.668  0.00  0.00    -0.089 HD
ATOM      9  H2  GLU A   1      35.215 -26.000 -15.792  0.00  0.00    -0.089 HD
ATOM     10  H3  GLU A   1      35.439 -26.967 -14.455  0.00  0.00    -0.089 HD
ENDBRANCH   6   7
BRANCH   6  11
ATOM     11  CB  GLU A   1      38.052 -25.216 -14.986  0.00  0.00    -0.001 C 
BRANCH  11  12
ATOM     12  CG  GLU A   1      39.084 -25.715 -13.975  0.00  0.00    +0.108 C 
BRANCH  12  14
ATOM     13  OE2 GLU A   1      41.313 -26.640 -14.047  0.00  0.00    -0.250 OA
ATOM     14  CD  GLU A   1      40.370 -26.135 -14.643  0.00  0.00    +0.314 C 
BRANCH  14  15
ATOM     15  OE1 GLU A   1      40.385 -25.872 -15.972  0.00  0.00    -0.480 OA
ATOM     16  HE1 GLU A   1      41.198 -25.715 -16.410  0.00  0.00    +0.295 HD
ENDBRANCH  14  15
ENDBRANCH  12  14
ENDBRANCH  11  12
ENDBRANCH   6  11
ENDBRANCH   4   6
ENDBRANCH   1   3
BRANCH   1  18
ATOM     17  OXT TRP A   2      31.602 -23.614 -16.156  0.00  0.00    -0.248 OA
ATOM     18  C   TRP A   2      32.612 -23.236 -15.573  0.00  0.00    +0.332 C 
BRANCH  18  19
ATOM     19  O   TRP A   2      32.591 -22.833 -14.280  0.00  0.00    -0.479 OA
ATOM     20  H   TRP A   2      31.897 -22.285 -13.971  0.00  0.00    +0.295 HD
ENDBRANCH  18  19
ENDBRANCH   1  18
BRANCH   1  21
ATOM     21  CB  TRP A   2      33.824 -23.242 -17.765  0.00  0.00    +0.059 C 
BRANCH  21  23
ATOM     22  NE1 TRP A   2      36.412 -21.069 -19.153  0.00  0.00    -0.312 N 
ATOM     23  CG  TRP A   2      34.673 -22.237 -18.494  0.00  0.00    -0.004 C 
ATOM     24  CD2 TRP A   2      34.217 -21.325 -19.464  0.00  0.00    +0.011 C 
ATOM     25  CE2 TRP A   2      35.336 -20.593 -19.869  0.00  0.00    +0.048 C 
ATOM     26  CD1 TRP A   2      36.012 -22.073 -18.311  0.00  0.00    +0.058 C 
ATOM     27  CE3 TRP A   2      32.969 -21.034 -20.050  0.00  0.00    +0.001 C 
ATOM     28  CZ2 TRP A   2      35.269 -19.582 -20.834  0.00  0.00    +0.015 C 
ATOM     29  CZ3 TRP A   2      32.886 -20.026 -21.017  0.00  0.00    +0.000 C 
ATOM     30  CH2 TRP A   2      34.021 -19.312 -21.401  0.00  0.00    +0.001 C 
ATOM     31  HE1 TRP A   2      37.334 -20.736 -19.234  0.00  0.00    +0.152 HD
ENDBRANCH  21  23
ENDBRANCH   1  21
TORSDOF 11
ENDMDL
MODEL 2
REMARK VINA RESULT:      -9.3      3.500      5.480
REMARK  Name = 100094
REMARK  11 active torsions:
REMARK  status: ('A' for Active; 'I' for Inactive)
REMARK    1  A    between atoms: CA_1  and  N_3
REMARK    2  A    between atoms: CA_1  and  C_18
REMARK    3  A    between atoms: CA_1  and  CB_21
REMARK    4  A    between atoms: C_4  and  CA_6
REMARK    5  A    between atoms: CA_6  and  N_7
REMARK    6  A    between atoms: CA_6  and  CB_11
REMARK    7  A    between atoms: CB_11  and  CG_12
REMARK    8  A    between atoms: CG_12  and  CD_14
REMARK    9  A    between atoms: CD_14  and  OE1_15
REMARK   10  A    between atoms: C_18  and  O_19
REMARK   11  A    between atoms: CB_21  and  CG_23
REMARK                            x       y       z     vdW  Elec       q    Type
REMARK                         _______ _______ _______ _____ _____    ______ ____
ROOT
ATOM      1  CA  TRP A   2      34.406 -24.189 -15.528  0.00  0.00    +0.176 C 
ENDROOT
BRANCH   1   3
ATOM      2  O   GLU A   1      35.977 -26.607 -15.752  0.00  0.00    -0.277 OA
ATOM      3  N   TRP A   2      35.661 -24.482 -14.872  0.00  0.00    -0.298 N 
ATOM      4  C   GLU A   1      36.346 -25.676 -15.041  0.00  0.00    +0.202 C 
ATOM      5  H   TRP A   2      36.047 -23.800 -14.275  0.00  0.00    +0.150 HD
BRANCH   4   6
ATOM      6  CA  GLU A   1      37.623 -25.736 -14.208  0.00  0.00    +0.013 C 
BRANCH   6   7
ATOM      7  N   GLU A   1      38.283 -24.439 -14.368  0.00  0.00    +0.387 N 
ATOM      8  H1  GLU A   1      38.020 -24.033 -15.266  0.00  0.00    -0.089 HD
ATOM      9  H2  GLU A   1      39.295 -24.566 -14.335  0.00  0.00    -0.089 HD
ATOM     10  H3  GLU A   1      37.995 -23.815 -13.615  0.00  0.00    -0.089 HD
ENDBRANCH   6   7
BRANCH   6  11
ATOM     11  CB  GLU A   1      37.338 -25.980 -12.719  0.00  0.00    -0.001 C 
BRANCH  11  12
ATOM     12  CG  GLU A   1      37.293 -24.700 -11.887  0.00  0.00    +0.108 C 
BRANCH  12  14
ATOM     13  OE2 GLU A   1      35.965 -24.222  -9.928  0.00  0.00    -0.250 OA
ATOM     14  CD  GLU A   1      36.013 -24.585 -11.096  0.00  0.00    +0.314 C 
BRANCH  14  15
ATOM     15  OE1 GLU A   1      34.919 -24.952 -11.807  0.00  0.00    -0.480 OA
ATOM     16  HE1 GLU A   1      34.699 -25.858 -11.894  0.00  0.00    +0.295 HD
ENDBRANCH  14  15
ENDBRANCH  12  14
ENDBRANCH  11  12
ENDBRANCH   6  11
ENDBRANCH   4   6
ENDBRANCH   1   3
BRANCH   1  18
ATOM     17  OXT TRP A   2      33.846 -23.436 -17.758  0.00  0.00    -0.248 OA
ATOM     18  C   TRP A   2      34.634 -23.415 -16.818  0.00  0.00    +0.332 C 
BRANCH  18  19
ATOM     19  O   TRP A   2      35.784 -22.700 -16.857  0.00  0.00    -0.479 OA
ATOM     20  H   TRP A   2      36.036 -22.260 -17.646  0.00  0.00    +0.295 HD
ENDBRANCH  18  19
ENDBRANCH   1  18
BRANCH   1  21
ATOM     21  CB  TRP A   2      33.460 -23.408 -14.606  0.00  0.00    +0.059 C 
BRANCH  21  23
ATOM     22  NE1 TRP A   2      30.480 -25.344 -13.765  0.00  0.00    -0.312 N 
ATOM     23  CG  TRP A   2      32.106 -24.046 -14.466  0.00  0.00    -0.004 C 
ATOM     24  CD2 TRP A   2      30.962 -23.719 -15.217  0.00  0.00    +0.011 C 
ATOM     25  CE2 TRP A   2      29.941 -24.554 -14.756  0.00  0.00    +0.048 C 
ATOM     26  CD1 TRP A   2      31.802 -25.037 -13.584  0.00  0.00    +0.058 C 
ATOM     27  CE3 TRP A   2      30.673 -22.800 -16.245  0.00  0.00    +0.001 C 
ATOM     28  CZ2 TRP A   2      28.641 -24.515 -15.275  0.00  0.00    +0.015 C 
ATOM     29  CZ3 TRP A   2      29.378 -22.750 -16.773  0.00  0.00    +0.000 C 
ATOM     30  CH2 TRP A   2      28.379 -23.596 -16.294  0.00  0.00    +0.001 C 
ATOM     31  HE1 TRP A   2      29.986 -26.029 -13.260  0.00  0.00    +0.152 HD
ENDBRANCH  21  23
ENDBRANCH   1  21
TORSDOF 11
ENDMDL
MODEL 3
REMARK VINA RESULT:      -9.2      6.957     11.301
REMARK  Name = 100094
REMARK  11 active torsions:
REMARK  status: ('A' for Active; 'I' for Inactive)
REMARK    1  A    between atoms: CA_1  and  N_3
REMARK    2  A    between atoms: CA_1  and  C_18
REMARK    3  A    between atoms: CA_1  and  CB_21
REMARK    4  A    between atoms: C_4  and  CA_6
REMARK    5  A    between atoms: CA_6  and  N_7
REMARK    6  A    between atoms: CA_6  and  CB_11
REMARK    7  A    between atoms: CB_11  and  CG_12
REMARK    8  A    between atoms: CG_12  and  CD_14
REMARK    9  A    between atoms: CD_14  and  OE1_15
REMARK   10  A    between atoms: C_18  and  O_19
REMARK   11  A    between atoms: CB_21  and  CG_23
REMARK                            x       y       z     vdW  Elec       q    Type
REMARK                         _______ _______ _______ _____ _____    ______ ____
ROOT
ATOM      1  CA  TRP A   2      34.744 -17.226 -23.251  0.00  0.00    +0.176 C 
ENDROOT
BRANCH   1   3
ATOM      2  O   GLU A   1      34.709 -14.848 -21.605  0.00  0.00    -0.277 OA
ATOM      3  N   TRP A   2      34.101 -15.965 -23.548  0.00  0.00    -0.298 N 
ATOM      4  C   GLU A   1      34.139 -14.874 -22.693  0.00  0.00    +0.202 C 
ATOM      5  H   TRP A   2      33.613 -15.879 -24.398  0.00  0.00    +0.150 HD
BRANCH   4   6
ATOM      6  CA  GLU A   1      33.353 -13.684 -23.236  0.00  0.00    +0.013 C 
BRANCH   6   7
ATOM      7  N   GLU A   1      34.329 -12.623 -23.489  0.00  0.00    +0.387 N 
ATOM      8  H1  GLU A   1      34.001 -12.035 -24.255  0.00  0.00    -0.089 HD
ATOM      9  H2  GLU A   1      35.226 -13.040 -23.740  0.00  0.00    -0.089 HD
ATOM     10  H3  GLU A   1      34.442 -12.057 -22.649  0.00  0.00    -0.089 HD
ENDBRANCH   6   7
BRANCH   6  11
ATOM     11  CB  GLU A   1      32.616 -14.018 -24.541  0.00  0.00    -0.001 C 
BRANCH  11  12
ATOM     12  CG  GLU A   1      33.104 -13.210 -25.743  0.00  0.00    +0.108 C 
BRANCH  12  14
ATOM     13  OE2 GLU A   1      33.996 -13.681 -27.937  0.00  0.00    -0.250 OA
ATOM     14  CD  GLU A   1      33.523 -14.099 -26.887  0.00  0.00    +0.314 C 
BRANCH  14  15
ATOM     15  OE1 GLU A   1      33.299 -15.414 -26.644  0.00  0.00    -0.480 OA
ATOM     16  HE1 GLU A   1      33.998 -16.032 -26.724  0.00  0.00    +0.295 HD
ENDBRANCH  14  15
ENDBRANCH  12  14
ENDBRANCH  11  12
ENDBRANCH   6  11
ENDBRANCH   4   6
ENDBRANCH   1   3
BRANCH   1  18
ATOM     17  OXT TRP A   2      34.743 -19.360 -24.390  0.00  0.00    -0.248 OA
ATOM     18  C   TRP A   2      34.747 -18.137 -24.470  0.00  0.00    +0.332 C 
BRANCH  18  19
ATOM     19  O   TRP A   2      34.759 -17.492 -25.662  0.00  0.00    -0.479 OA
ATOM     20  H   TRP A   2      35.476 -17.614 -26.253  0.00  0.00    +0.295 HD
ENDBRANCH  18  19
ENDBRANCH   1  18
BRANCH   1  21
ATOM     21  CB  TRP A   2      34.071 -17.934 -22.067  0.00  0.00    +0.059 C 
BRANCH  21  23
ATOM     22  NE1 TRP A   2      36.837 -19.698 -20.463  0.00  0.00    -0.312 N 
ATOM     23  CG  TRP A   2      35.002 -18.835 -21.306  0.00  0.00    -0.004 C 
ATOM     24  CD2 TRP A   2      34.622 -19.958 -20.547  0.00  0.00    +0.011 C 
ATOM     25  CE2 TRP A   2      35.801 -20.491 -20.020  0.00  0.00    +0.048 C 
ATOM     26  CD1 TRP A   2      36.354 -18.686 -21.248  0.00  0.00    +0.058 C 
ATOM     27  CE3 TRP A   2      33.399 -20.588 -20.244  0.00  0.00    +0.001 C 
ATOM     28  CZ2 TRP A   2      35.818 -21.627 -19.203  0.00  0.00    +0.015 C 
ATOM     29  CZ3 TRP A   2      33.400 -21.725 -19.427  0.00  0.00    +0.000 C 
ATOM     30  CH2 TRP A   2      34.593 -22.234 -18.916  0.00  0.00    +0.001 C 
ATOM     31  HE1 TRP A   2      37.786 -19.839 -20.245  0.00  0.00    +0.152 HD
ENDBRANCH  21  23
ENDBRANCH   1  21
TORSDOF 11
ENDMDL
MODEL 4
REMARK VINA RESULT:      -9.2      1.815      2.130
REMARK  Name = 100094
REMARK  11 active torsions:
REMARK  status: ('A' for Active; 'I' for Inactive)
REMARK    1  A    between atoms: CA_1  and  N_3
REMARK    2  A    between atoms: CA_1  and  C_18
REMARK    3  A    between atoms: CA_1  and  CB_21
REMARK    4  A    between atoms: C_4  and  CA_6
REMARK    5  A    between atoms: CA_6  and  N_7
REMARK    6  A    between atoms: CA_6  and  CB_11
REMARK    7  A    between atoms: CB_11  and  CG_12
REMARK    8  A    between atoms: CG_12  and  CD_14
REMARK    9  A    between atoms: CD_14  and  OE1_15
REMARK   10  A    between atoms: C_18  and  O_19
REMARK   11  A    between atoms: CB_21  and  CG_23
REMARK                            x       y       z     vdW  Elec       q    Type
REMARK                         _______ _______ _______ _____ _____    ______ ____
ROOT
ATOM      1  CA  TRP A   2      34.097 -23.152 -16.213  0.00  0.00    +0.176 C 
ENDROOT
BRANCH   1   3
ATOM      2  O   GLU A   1      36.626 -22.827 -14.847  0.00  0.00    -0.277 OA
ATOM      3  N   TRP A   2      34.994 -24.197 -15.770  0.00  0.00    -0.298 N 
ATOM      4  C   GLU A   1      36.192 -23.944 -15.119  0.00  0.00    +0.202 C 
ATOM      5  H   TRP A   2      34.740 -25.133 -15.940  0.00  0.00    +0.150 HD
BRANCH   4   6
ATOM      6  CA  GLU A   1      36.957 -25.223 -14.792  0.00  0.00    +0.013 C 
BRANCH   6   7
ATOM      7  N   GLU A   1      38.343 -24.992 -15.202  0.00  0.00    +0.387 N 
ATOM      8  H1  GLU A   1      38.373 -24.796 -16.203  0.00  0.00    -0.089 HD
ATOM      9  H2  GLU A   1      38.899 -25.824 -15.002  0.00  0.00    -0.089 HD
ATOM     10  H3  GLU A   1      38.723 -24.198 -14.687  0.00  0.00    -0.089 HD
ENDBRANCH   6   7
BRANCH   6  11
ATOM     11  CB  GLU A   1      36.919 -25.559 -13.294  0.00  0.00    -0.001 C 
BRANCH  11  12
ATOM     12  CG  GLU A   1      38.076 -24.951 -12.502  0.00  0.00    +0.108 C 
BRANCH  12  14
ATOM     13  OE2 GLU A   1      36.905 -23.946 -10.645  0.00  0.00    -0.250 OA
ATOM     14  CD  GLU A   1      37.623 -23.809 -11.627  0.00  0.00    +0.314 C 
BRANCH  14  15
ATOM     15  OE1 GLU A   1      38.071 -22.604 -12.057  0.00  0.00    -0.480 OA
ATOM     16  HE1 GLU A   1      38.661 -22.555 -12.784  0.00  0.00    +0.295 HD
ENDBRANCH  14  15
ENDBRANCH  12  14
ENDBRANCH  11  12
ENDBRANCH   6  11
ENDBRANCH   4   6
ENDBRANCH   1   3
BRANCH   1  18
ATOM     17  OXT TRP A   2      31.736 -23.647 -16.029  0.00  0.00    -0.248 OA
ATOM     18  C   TRP A   2      32.760 -23.239 -15.491  0.00  0.00    +0.332 C 
BRANCH  18  19
ATOM     19  O   TRP A   2      32.782 -22.824 -14.202  0.00  0.00    -0.479 OA
ATOM     20  H   TRP A   2      31.996 -22.840 -13.691  0.00  0.00    +0.295 HD
ENDBRANCH  18  19
ENDBRANCH   1  18
BRANCH   1  21
ATOM     21  CB  TRP A   2      33.880 -23.206 -17.731  0.00  0.00    +0.059 C 
BRANCH  21  23
ATOM     22  NE1 TRP A   2      36.431 -21.039 -19.191  0.00  0.00    -0.312 N 
ATOM     23  CG  TRP A   2      34.710 -22.206 -18.486  0.00  0.00    -0.004 C 
ATOM     24  CD2 TRP A   2      34.231 -21.303 -19.454  0.00  0.00    +0.011 C 
ATOM     25  CE2 TRP A   2      35.339 -20.572 -19.888  0.00  0.00    +0.048 C 
ATOM     26  CD1 TRP A   2      36.052 -22.036 -18.333  0.00  0.00    +0.058 C 
ATOM     27  CE3 TRP A   2      32.970 -21.020 -20.015  0.00  0.00    +0.001 C 
ATOM     28  CZ2 TRP A   2      35.249 -19.569 -20.860  0.00  0.00    +0.015 C 
ATOM     29  CZ3 TRP A   2      32.864 -20.020 -20.988  0.00  0.00    +0.000 C 
ATOM     30  CH2 TRP A   2      33.988 -19.306 -21.403  0.00  0.00    +0.001 C 
ATOM     31  HE1 TRP A   2      37.351 -20.703 -19.295  0.00  0.00    +0.152 HD
ENDBRANCH  21  23
ENDBRANCH   1  21
TORSDOF 11
ENDMDL
MODEL 5
REMARK VINA RESULT:      -9.2      6.646     10.990
REMARK  Name = 100094
REMARK  11 active torsions:
REMARK  status: ('A' for Active; 'I' for Inactive)
REMARK    1  A    between atoms: CA_1  and  N_3
REMARK    2  A    between atoms: CA_1  and  C_18
REMARK    3  A    between atoms: CA_1  and  CB_21
REMARK    4  A    between atoms: C_4  and  CA_6
REMARK    5  A    between atoms: CA_6  and  N_7
REMARK    6  A    between atoms: CA_6  and  CB_11
REMARK    7  A    between atoms: CB_11  and  CG_12
REMARK    8  A    between atoms: CG_12  and  CD_14
REMARK    9  A    between atoms: CD_14  and  OE1_15
REMARK   10  A    between atoms: C_18  and  O_19
REMARK   11  A    between atoms: CB_21  and  CG_23
REMARK                            x       y       z     vdW  Elec       q    Type
REMARK                         _______ _______ _______ _____ _____    ______ ____
ROOT
ATOM      1  CA  TRP A   2      34.927 -17.435 -23.227  0.00  0.00    +0.176 C 
ENDROOT
BRANCH   1   3
ATOM      2  O   GLU A   1      35.056 -15.860 -20.804  0.00  0.00    -0.277 OA
ATOM      3  N   TRP A   2      34.469 -16.076 -23.040  0.00  0.00    -0.298 N 
ATOM      4  C   GLU A   1      34.573 -15.398 -21.835  0.00  0.00    +0.202 C 
ATOM      5  H   TRP A   2      34.063 -15.610 -23.807  0.00  0.00    +0.150 HD
BRANCH   4   6
ATOM      6  CA  GLU A   1      33.984 -13.992 -21.906  0.00  0.00    +0.013 C 
BRANCH   6   7
ATOM      7  N   GLU A   1      34.193 -13.524 -23.277  0.00  0.00    +0.387 N 
ATOM      8  H1  GLU A   1      33.414 -12.928 -23.554  0.00  0.00    -0.089 HD
ATOM      9  H2  GLU A   1      34.248 -14.327 -23.905  0.00  0.00    -0.089 HD
ATOM     10  H3  GLU A   1      35.063 -12.995 -23.327  0.00  0.00    -0.089 HD
ENDBRANCH   6   7
BRANCH   6  11
ATOM     11  CB  GLU A   1      32.482 -13.973 -21.586  0.00  0.00    -0.001 C 
BRANCH  11  12
ATOM     12  CG  GLU A   1      32.042 -12.746 -20.788  0.00  0.00    +0.108 C 
BRANCH  12  14
ATOM     13  OE2 GLU A   1      32.143 -11.084 -22.537  0.00  0.00    -0.250 OA
ATOM     14  CD  GLU A   1      31.488 -11.662 -21.679  0.00  0.00    +0.314 C 
BRANCH  14  15
ATOM     15  OE1 GLU A   1      30.190 -11.374 -21.415  0.00  0.00    -0.480 OA
ATOM     16  HE1 GLU A   1      29.520 -11.640 -22.012  0.00  0.00    +0.295 HD
ENDBRANCH  14  15
ENDBRANCH  12  14
ENDBRANCH  11  12
ENDBRANCH   6  11
ENDBRANCH   4   6
ENDBRANCH   1   3
BRANCH   1  18
ATOM     17  OXT TRP A   2      34.911 -17.074 -25.619  0.00  0.00    -0.248 OA
ATOM     18  C   TRP A   2      34.796 -17.858 -24.683  0.00  0.00    +0.332 C 
BRANCH  18  19
ATOM     19  O   TRP A   2      34.535 -19.174 -24.871  0.00  0.00    -0.479 OA
ATOM     20  H   TRP A   2      33.830 -19.437 -25.431  0.00  0.00    +0.295 HD
ENDBRANCH  18  19
ENDBRANCH   1  18
BRANCH   1  21
ATOM     21  CB  TRP A   2      34.163 -18.413 -22.323  0.00  0.00    +0.059 C 
BRANCH  21  23
ATOM     22  NE1 TRP A   2      36.844 -19.868 -20.316  0.00  0.00    -0.312 N 
ATOM     23  CG  TRP A   2      35.057 -19.180 -21.390  0.00  0.00    -0.004 C 
ATOM     24  CD2 TRP A   2      34.648 -20.210 -20.521  0.00  0.00    +0.011 C 
ATOM     25  CE2 TRP A   2      35.798 -20.633 -19.849  0.00  0.00    +0.048 C 
ATOM     26  CD1 TRP A   2      36.397 -18.980 -21.257  0.00  0.00    +0.058 C 
ATOM     27  CE3 TRP A   2      33.422 -20.837 -20.227  0.00  0.00    +0.001 C 
ATOM     28  CZ2 TRP A   2      35.781 -21.655 -18.894  0.00  0.00    +0.015 C 
ATOM     29  CZ3 TRP A   2      33.390 -21.861 -19.273  0.00  0.00    +0.000 C 
ATOM     30  CH2 TRP A   2      34.553 -22.262 -18.618  0.00  0.00    +0.001 C 
ATOM     31  HE1 TRP A   2      37.778 -19.950 -20.016  0.00  0.00    +0.152 HD
ENDBRANCH  21  23
ENDBRANCH   1  21
TORSDOF 11
ENDMDL
MODEL 6
REMARK VINA RESULT:      -9.1      9.052     12.499
REMARK  Name = 100094
REMARK  11 active torsions:
REMARK  status: ('A' for Active; 'I' for Inactive)
REMARK    1  A    between atoms: CA_1  and  N_3
REMARK    2  A    between atoms: CA_1  and  C_18
REMARK    3  A    between atoms: CA_1  and  CB_21
REMARK    4  A    between atoms: C_4  and  CA_6
REMARK    5  A    between atoms: CA_6  and  N_7
REMARK    6  A    between atoms: CA_6  and  CB_11
REMARK    7  A    between atoms: CB_11  and  CG_12
REMARK    8  A    between atoms: CG_12  and  CD_14
REMARK    9  A    between atoms: CD_14  and  OE1_15
REMARK   10  A    between atoms: C_18  and  O_19
REMARK   11  A    between atoms: CB_21  and  CG_23
REMARK                            x       y       z     vdW  Elec       q    Type
REMARK                         _______ _______ _______ _____ _____    ______ ____
ROOT
ATOM      1  CA  TRP A   2      33.227 -13.899 -24.494  0.00  0.00    +0.176 C 
ENDROOT
BRANCH   1   3
ATOM      2  O   GLU A   1      32.426 -15.058 -21.968  0.00  0.00    -0.277 OA
ATOM      3  N   TRP A   2      34.044 -14.676 -23.589  0.00  0.00    -0.298 N 
ATOM      4  C   GLU A   1      33.571 -15.194 -22.393  0.00  0.00    +0.202 C 
ATOM      5  H   TRP A   2      34.983 -14.844 -23.834  0.00  0.00    +0.150 HD
BRANCH   4   6
ATOM      6  CA  GLU A   1      34.649 -15.944 -21.617  0.00  0.00    +0.013 C 
BRANCH   6   7
ATOM      7  N   GLU A   1      34.535 -15.510 -20.224  0.00  0.00    +0.387 N 
ATOM      8  H1  GLU A   1      35.324 -14.906 -19.992  0.00  0.00    -0.089 HD
ATOM      9  H2  GLU A   1      34.540 -16.326 -19.612  0.00  0.00    -0.089 HD
ATOM     10  H3  GLU A   1      33.664 -14.996 -20.098  0.00  0.00    -0.089 HD
ENDBRANCH   6   7
BRANCH   6  11
ATOM     11  CB  GLU A   1      34.467 -17.468 -21.690  0.00  0.00    -0.001 C 
BRANCH  11  12
ATOM     12  CG  GLU A   1      35.497 -18.165 -22.579  0.00  0.00    +0.108 C 
BRANCH  12  14
ATOM     13  OE2 GLU A   1      34.472 -19.156 -24.527  0.00  0.00    -0.250 OA
ATOM     14  CD  GLU A   1      35.060 -18.208 -24.022  0.00  0.00    +0.314 C 
BRANCH  14  15
ATOM     15  OE1 GLU A   1      35.410 -17.096 -24.713  0.00  0.00    -0.480 OA
ATOM     16  HE1 GLU A   1      35.489 -17.129 -25.646  0.00  0.00    +0.295 HD
ENDBRANCH  14  15
ENDBRANCH  12  14
ENDBRANCH  11  12
ENDBRANCH   6  11
ENDBRANCH   4   6
ENDBRANCH   1   3
BRANCH   1  18
ATOM     17  OXT TRP A   2      33.834 -15.487 -26.215  0.00  0.00    -0.248 OA
ATOM     18  C   TRP A   2      33.068 -14.609 -25.831  0.00  0.00    +0.332 C 
BRANCH  18  19
ATOM     19  O   TRP A   2      32.015 -14.194 -26.574  0.00  0.00    -0.479 OA
ATOM     20  H   TRP A   2      31.163 -14.553 -26.421  0.00  0.00    +0.295 HD
ENDBRANCH  18  19
ENDBRANCH   1  18
BRANCH   1  21
ATOM     21  CB  TRP A   2      33.808 -12.495 -24.709  0.00  0.00    +0.059 C 
BRANCH  21  23
ATOM     22  NE1 TRP A   2      31.979 -10.510 -22.250  0.00  0.00    -0.312 N 
ATOM     23  CG  TRP A   2      33.232 -11.464 -23.779  0.00  0.00    -0.004 C 
ATOM     24  CD2 TRP A   2      33.661 -10.129 -23.665  0.00  0.00    +0.011 C 
ATOM     25  CE2 TRP A   2      32.853  -9.541 -22.690  0.00  0.00    +0.048 C 
ATOM     26  CD1 TRP A   2      32.206 -11.686 -22.913  0.00  0.00    +0.058 C 
ATOM     27  CE3 TRP A   2      34.653  -9.344 -24.286  0.00  0.00    +0.001 C 
ATOM     28  CZ2 TRP A   2      32.988  -8.203 -22.302  0.00  0.00    +0.015 C 
ATOM     29  CZ3 TRP A   2      34.800  -8.004 -23.908  0.00  0.00    +0.000 C 
ATOM     30  CH2 TRP A   2      33.979  -7.445 -22.931  0.00  0.00    +0.001 C 
ATOM     31  HE1 TRP A   2      31.290 -10.376 -21.559  0.00  0.00    +0.152 HD
ENDBRANCH  21  23
ENDBRANCH   1  21
TORSDOF 11
ENDMDL
MODEL 7
REMARK VINA RESULT:      -8.9      7.741     11.833
REMARK  Name = 100094
REMARK  11 active torsions:
REMARK  status: ('A' for Active; 'I' for Inactive)
REMARK    1  A    between atoms: CA_1  and  N_3
REMARK    2  A    between atoms: CA_1  and  C_18
REMARK    3  A    between atoms: CA_1  and  CB_21
REMARK    4  A    between atoms: C_4  and  CA_6
REMARK    5  A    between atoms: CA_6  and  N_7
REMARK    6  A    between atoms: CA_6  and  CB_11
REMARK    7  A    between atoms: CB_11  and  CG_12
REMARK    8  A    between atoms: CG_12  and  CD_14
REMARK    9  A    between atoms: CD_14  and  OE1_15
REMARK   10  A    between atoms: C_18  and  O_19
REMARK   11  A    between atoms: CB_21  and  CG_23
REMARK                            x       y       z     vdW  Elec       q    Type
REMARK                         _______ _______ _______ _____ _____    ______ ____
ROOT
ATOM      1  CA  TRP A   2      34.581 -16.827 -23.456  0.00  0.00    +0.176 C 
ENDROOT
BRANCH   1   3
ATOM      2  O   GLU A   1      34.716 -14.283 -22.087  0.00  0.00    -0.277 OA
ATOM      3  N   TRP A   2      33.868 -15.615 -23.790  0.00  0.00    -0.298 N 
ATOM      4  C   GLU A   1      33.997 -14.436 -23.071  0.00  0.00    +0.202 C 
ATOM      5  H   TRP A   2      33.261 -15.628 -24.565  0.00  0.00    +0.150 HD
BRANCH   4   6
ATOM      6  CA  GLU A   1      33.108 -13.322 -23.618  0.00  0.00    +0.013 C 
BRANCH   6   7
ATOM      7  N   GLU A   1      32.501 -12.670 -22.456  0.00  0.00    +0.387 N 
ATOM      8  H1  GLU A   1      31.485 -12.684 -22.552  0.00  0.00    -0.089 HD
ATOM      9  H2  GLU A   1      32.824 -11.704 -22.402  0.00  0.00    -0.089 HD
ATOM     10  H3  GLU A   1      32.770 -13.166 -21.607  0.00  0.00    -0.089 HD
ENDBRANCH   6   7
BRANCH   6  11
ATOM     11  CB  GLU A   1      33.903 -12.285 -24.425  0.00  0.00    -0.001 C 
BRANCH  11  12
ATOM     12  CG  GLU A   1      33.632 -10.842 -24.001  0.00  0.00    +0.108 C 
BRANCH  12  14
ATOM     13  OE2 GLU A   1      34.984  -8.855 -23.769  0.00  0.00    -0.250 OA
ATOM     14  CD  GLU A   1      34.794  -9.933 -24.317  0.00  0.00    +0.314 C 
BRANCH  14  15
ATOM     15  OE1 GLU A   1      35.597 -10.423 -25.293  0.00  0.00    -0.480 OA
ATOM     16  HE1 GLU A   1      35.267 -11.058 -25.897  0.00  0.00    +0.295 HD
ENDBRANCH  14  15
ENDBRANCH  12  14
ENDBRANCH  11  12
ENDBRANCH   6  11
ENDBRANCH   4   6
ENDBRANCH   1   3
BRANCH   1  18
ATOM     17  OXT TRP A   2      34.607 -18.980 -24.560  0.00  0.00    -0.248 OA
ATOM     18  C   TRP A   2      34.663 -17.759 -24.657  0.00  0.00    +0.332 C 
BRANCH  18  19
ATOM     19  O   TRP A   2      34.810 -17.136 -25.851  0.00  0.00    -0.479 OA
ATOM     20  H   TRP A   2      35.010 -16.221 -25.881  0.00  0.00    +0.295 HD
ENDBRANCH  18  19
ENDBRANCH   1  18
BRANCH   1  21
ATOM     21  CB  TRP A   2      33.930 -17.553 -22.271  0.00  0.00    +0.059 C 
BRANCH  21  23
ATOM     22  NE1 TRP A   2      36.727 -19.321 -20.726  0.00  0.00    -0.312 N 
ATOM     23  CG  TRP A   2      34.877 -18.461 -21.538  0.00  0.00    -0.004 C 
ATOM     24  CD2 TRP A   2      34.515 -19.607 -20.804  0.00  0.00    +0.011 C 
ATOM     25  CE2 TRP A   2      35.704 -20.138 -20.298  0.00  0.00    +0.048 C 
ATOM     26  CD1 TRP A   2      36.227 -18.296 -21.484  0.00  0.00    +0.058 C 
ATOM     27  CE3 TRP A   2      33.302 -20.260 -20.510  0.00  0.00    +0.001 C 
ATOM     28  CZ2 TRP A   2      35.740 -21.293 -19.509  0.00  0.00    +0.015 C 
ATOM     29  CZ3 TRP A   2      33.322 -21.417 -19.722  0.00  0.00    +0.000 C 
ATOM     30  CH2 TRP A   2      34.524 -21.923 -19.231  0.00  0.00    +0.001 C 
ATOM     31  HE1 TRP A   2      37.679 -19.455 -20.517  0.00  0.00    +0.152 HD
ENDBRANCH  21  23
ENDBRANCH   1  21
TORSDOF 11
ENDMDL
MODEL 8
REMARK VINA RESULT:      -8.8      5.023      7.584
REMARK  Name = 100094
REMARK  11 active torsions:
REMARK  status: ('A' for Active; 'I' for Inactive)
REMARK    1  A    between atoms: CA_1  and  N_3
REMARK    2  A    between atoms: CA_1  and  C_18
REMARK    3  A    between atoms: CA_1  and  CB_21
REMARK    4  A    between atoms: C_4  and  CA_6
REMARK    5  A    between atoms: CA_6  and  N_7
REMARK    6  A    between atoms: CA_6  and  CB_11
REMARK    7  A    between atoms: CB_11  and  CG_12
REMARK    8  A    between atoms: CG_12  and  CD_14
REMARK    9  A    between atoms: CD_14  and  OE1_15
REMARK   10  A    between atoms: C_18  and  O_19
REMARK   11  A    between atoms: CB_21  and  CG_23
REMARK                            x       y       z     vdW  Elec       q    Type
REMARK                         _______ _______ _______ _____ _____    ______ ____
ROOT
ATOM      1  CA  TRP A   2      34.415 -18.353 -21.890  0.00  0.00    +0.176 C 
ENDROOT
BRANCH   1   3
ATOM      2  O   GLU A   1      32.449 -20.280 -21.002  0.00  0.00    -0.277 OA
ATOM      3  N   TRP A   2      34.578 -19.363 -20.869  0.00  0.00    -0.298 N 
ATOM      4  C   GLU A   1      33.574 -20.248 -20.508  0.00  0.00    +0.202 C 
ATOM      5  H   TRP A   2      35.445 -19.423 -20.407  0.00  0.00    +0.150 HD
BRANCH   4   6
ATOM      6  CA  GLU A   1      34.002 -21.186 -19.383  0.00  0.00    +0.013 C 
BRANCH   6   7
ATOM      7  N   GLU A   1      32.893 -22.119 -19.177  0.00  0.00    +0.387 N 
ATOM      8  H1  GLU A   1      32.420 -22.285 -20.065  0.00  0.00    -0.089 HD
ATOM      9  H2  GLU A   1      32.232 -21.719 -18.510  0.00  0.00    -0.089 HD
ATOM     10  H3  GLU A   1      33.252 -23.000 -18.812  0.00  0.00    -0.089 HD
ENDBRANCH   6   7
BRANCH   6  11
ATOM     11  CB  GLU A   1      35.271 -21.976 -19.734  0.00  0.00    -0.001 C 
BRANCH  11  12
ATOM     12  CG  GLU A   1      36.542 -21.399 -19.112  0.00  0.00    +0.108 C 
BRANCH  12  14
ATOM     13  OE2 GLU A   1      36.109 -22.654 -17.095  0.00  0.00    -0.250 OA
ATOM     14  CD  GLU A   1      36.626 -21.683 -17.633  0.00  0.00    +0.314 C 
BRANCH  14  15
ATOM     15  OE1 GLU A   1      37.313 -20.734 -16.951  0.00  0.00    -0.480 OA
ATOM     16  HE1 GLU A   1      36.892 -20.249 -16.269  0.00  0.00    +0.295 HD
ENDBRANCH  14  15
ENDBRANCH  12  14
ENDBRANCH  11  12
ENDBRANCH   6  11
ENDBRANCH   4   6
ENDBRANCH   1   3
BRANCH   1  18
ATOM     17  OXT TRP A   2      34.619 -19.225 -24.137  0.00  0.00    -0.248 OA
ATOM     18  C   TRP A   2      35.167 -18.732 -23.157  0.00  0.00    +0.332 C 
BRANCH  18  19
ATOM     19  O   TRP A   2      36.500 -18.490 -23.122  0.00  0.00    -0.479 OA
ATOM     20  H   TRP A   2      36.815 -17.608 -23.081  0.00  0.00    +0.295 HD
ENDBRANCH  18  19
ENDBRANCH   1  18
BRANCH   1  21
ATOM     21  CB  TRP A   2      34.876 -16.975 -21.396  0.00  0.00    +0.059 C 
BRANCH  21  23
ATOM     22  NE1 TRP A   2      33.976 -14.520 -23.946  0.00  0.00    -0.312 N 
ATOM     23  CG  TRP A   2      34.356 -15.839 -22.232  0.00  0.00    -0.004 C 
ATOM     24  CD2 TRP A   2      33.518 -14.803 -21.780  0.00  0.00    +0.011 C 
ATOM     25  CE2 TRP A   2      33.289 -13.977 -22.883  0.00  0.00    +0.048 C 
ATOM     26  CD1 TRP A   2      34.629 -15.657 -23.553  0.00  0.00    +0.058 C 
ATOM     27  CE3 TRP A   2      32.922 -14.468 -20.548  0.00  0.00    +0.001 C 
ATOM     28  CZ2 TRP A   2      32.490 -12.830 -22.815  0.00  0.00    +0.015 C 
ATOM     29  CZ3 TRP A   2      32.120 -13.324 -20.465  0.00  0.00    +0.000 C 
ATOM     30  CH2 TRP A   2      31.909 -12.519 -21.583  0.00  0.00    +0.001 C 
ATOM     31  HE1 TRP A   2      33.994 -14.145 -24.855  0.00  0.00    +0.152 HD
ENDBRANCH  21  23
ENDBRANCH   1  21
TORSDOF 11
ENDMDL
MODEL 9
REMARK VINA RESULT:      -8.8      2.010      2.747
REMARK  Name = 100094
REMARK  11 active torsions:
REMARK  status: ('A' for Active; 'I' for Inactive)
REMARK    1  A    between atoms: CA_1  and  N_3
REMARK    2  A    between atoms: CA_1  and  C_18
REMARK    3  A    between atoms: CA_1  and  CB_21
REMARK    4  A    between atoms: C_4  and  CA_6
REMARK    5  A    between atoms: CA_6  and  N_7
REMARK    6  A    between atoms: CA_6  and  CB_11
REMARK    7  A    between atoms: CB_11  and  CG_12
REMARK    8  A    between atoms: CG_12  and  CD_14
REMARK    9  A    between atoms: CD_14  and  OE1_15
REMARK   10  A    between atoms: C_18  and  O_19
REMARK   11  A    between atoms: CB_21  and  CG_23
REMARK                            x       y       z     vdW  Elec       q    Type
REMARK                         _______ _______ _______ _____ _____    ______ ____
ROOT
ATOM      1  CA  TRP A   2      34.415 -23.178 -15.123  0.00  0.00    +0.176 C 
ENDROOT
BRANCH   1   3
ATOM      2  O   GLU A   1      37.233 -22.628 -15.477  0.00  0.00    -0.277 OA
ATOM      3  N   TRP A   2      35.503 -23.591 -14.263  0.00  0.00    -0.298 N 
ATOM      4  C   GLU A   1      36.830 -23.278 -14.515  0.00  0.00    +0.202 C 
ATOM      5  H   TRP A   2      35.289 -24.120 -13.461  0.00  0.00    +0.150 HD
BRANCH   4   6
ATOM      6  CA  GLU A   1      37.773 -23.864 -13.468  0.00  0.00    +0.013 C 
BRANCH   6   7
ATOM      7  N   GLU A   1      37.349 -23.320 -12.177  0.00  0.00    +0.387 N 
ATOM      8  H1  GLU A   1      37.580 -23.982 -11.437  0.00  0.00    -0.089 HD
ATOM      9  H2  GLU A   1      36.341 -23.163 -12.190  0.00  0.00    -0.089 HD
ATOM     10  H3  GLU A   1      37.828 -22.436 -12.006  0.00  0.00    -0.089 HD
ENDBRANCH   6   7
BRANCH   6  11
ATOM     11  CB  GLU A   1      37.709 -25.398 -13.419  0.00  0.00    -0.001 C 
BRANCH  11  12
ATOM     12  CG  GLU A   1      38.048 -26.068 -14.750  0.00  0.00    +0.108 C 
BRANCH  12  14
ATOM     13  OE2 GLU A   1      36.911 -27.488 -16.337  0.00  0.00    -0.250 OA
ATOM     14  CD  GLU A   1      36.852 -26.761 -15.354  0.00  0.00    +0.314 C 
BRANCH  14  15
ATOM     15  OE1 GLU A   1      35.694 -26.474 -14.709  0.00  0.00    -0.480 OA
ATOM     16  HE1 GLU A   1      35.588 -26.710 -13.810  0.00  0.00    +0.295 HD
ENDBRANCH  14  15
ENDBRANCH  12  14
ENDBRANCH  11  12
ENDBRANCH   6  11
ENDBRANCH   4   6
ENDBRANCH   1   3
BRANCH   1  18
ATOM     17  OXT TRP A   2      32.119 -22.819 -14.450  0.00  0.00    -0.248 OA
ATOM     18  C   TRP A   2      33.072 -23.587 -14.536  0.00  0.00    +0.332 C 
BRANCH  18  19
ATOM     19  O   TRP A   2      33.005 -24.869 -14.105  0.00  0.00    -0.479 OA
ATOM     20  H   TRP A   2      32.326 -25.434 -14.418  0.00  0.00    +0.295 HD
ENDBRANCH  18  19
ENDBRANCH   1  18
BRANCH   1  21
ATOM     21  CB  TRP A   2      34.569 -23.754 -16.537  0.00  0.00    +0.059 C 
BRANCH  21  23
ATOM     22  NE1 TRP A   2      32.592 -21.802 -18.907  0.00  0.00    -0.312 N 
ATOM     23  CG  TRP A   2      34.012 -22.857 -17.607  0.00  0.00    -0.004 C 
ATOM     24  CD2 TRP A   2      34.768 -22.062 -18.489  0.00  0.00    +0.011 C 
ATOM     25  CE2 TRP A   2      33.847 -21.401 -19.305  0.00  0.00    +0.048 C 
ATOM     26  CD1 TRP A   2      32.687 -22.692 -17.871  0.00  0.00    +0.058 C 
ATOM     27  CE3 TRP A   2      36.143 -21.827 -18.689  0.00  0.00    +0.001 C 
ATOM     28  CZ2 TRP A   2      34.235 -20.513 -20.315  0.00  0.00    +0.015 C 
ATOM     29  CZ3 TRP A   2      36.545 -20.941 -19.695  0.00  0.00    +0.000 C 
ATOM     30  CH2 TRP A   2      35.603 -20.295 -20.495  0.00  0.00    +0.001 C 
ATOM     31  HE1 TRP A   2      31.748 -21.494 -19.310  0.00  0.00    +0.152 HD
ENDBRANCH  21  23
ENDBRANCH   1  21
TORSDOF 11
ENDMDL
