MODEL 1
REMARK VINA RESULT:      -9.6      0.000      0.000
REMARK  Name = 3236
REMARK  5 active torsions:
REMARK  status: ('A' for Active; 'I' for Inactive)
REMARK    1  A    between atoms: C_1  and  C_4
REMARK    2  A    between atoms: C_1  and  C_13
REMARK    3  A    between atoms: C_4  and  C_5
REMARK    4  A    between atoms: C_8  and  C_11
REMARK    5  A    between atoms: C_13  and  N_14
REMARK                            x       y       z     vdW  Elec       q    Type
REMARK                         _______ _______ _______ _____ _____    ______ ____
ROOT
ATOM      1  C   UNL     1      34.733 -18.353 -22.646  0.00  0.00    +0.041 C 
ATOM      2  C   UNL     1      34.932 -19.059 -23.992  0.00  0.00    +0.006 C 
ENDROOT
BRANCH   1   4
ATOM      3  O   UNL     1      36.807 -18.679 -21.461  0.00  0.00    -0.291 OA
ATOM      4  C   UNL     1      35.628 -19.006 -21.592  0.00  0.00    +0.171 C 
BRANCH   4   5
ATOM      5  C   UNL     1      35.068 -20.054 -20.689  0.00  0.00    +0.035 C 
ATOM      6  C   UNL     1      35.937 -20.900 -20.042  0.00  0.00    +0.003 C 
ATOM      7  C   UNL     1      33.702 -20.132 -20.539  0.00  0.00    +0.003 C 
ATOM      8  C   UNL     1      34.033 -21.984 -19.023  0.00  0.00    -0.022 C 
ATOM      9  C   UNL     1      35.413 -21.879 -19.197  0.00  0.00    -0.004 C 
ATOM     10  C   UNL     1      33.177 -21.111 -19.694  0.00  0.00    -0.004 C 
BRANCH   8  11
ATOM     11  C   UNL     1      33.473 -23.031 -18.121  0.00  0.00    +0.026 C 
ATOM     12  C   UNL     1      34.225 -23.117 -16.795  0.00  0.00    +0.005 C 
ENDBRANCH   8  11
ENDBRANCH   4   5
ENDBRANCH   1   4
BRANCH   1  13
ATOM     13  C   UNL     1      35.062 -16.855 -22.726  0.00  0.00    -0.070 C 
BRANCH  13  14
ATOM     14  N   UNL     1      33.926 -16.028 -22.324  0.00  0.00    +0.387 N 
ATOM     15  C   UNL     1      33.958 -15.778 -20.877  0.00  0.00    -0.077 C 
ATOM     16  C   UNL     1      33.915 -14.767 -23.081  0.00  0.00    -0.077 C 
ATOM     17  C   UNL     1      32.748 -14.954 -20.432  0.00  0.00    -0.023 C 
ATOM     18  C   UNL     1      32.703 -13.911 -22.709  0.00  0.00    -0.023 C 
ATOM     19  C   UNL     1      32.653 -13.645 -21.207  0.00  0.00    -0.004 C 
ATOM     20  H   UNL     1      33.063 -16.530 -22.538  0.00  0.00    -0.080 HD
ENDBRANCH  13  14
ENDBRANCH   1  13
TORSDOF 5
ENDMDL
MODEL 2
REMARK VINA RESULT:      -9.3      1.221      1.771
REMARK  Name = 3236
REMARK  5 active torsions:
REMARK  status: ('A' for Active; 'I' for Inactive)
REMARK    1  A    between atoms: C_1  and  C_4
REMARK    2  A    between atoms: C_1  and  C_13
REMARK    3  A    between atoms: C_4  and  C_5
REMARK    4  A    between atoms: C_8  and  C_11
REMARK    5  A    between atoms: C_13  and  N_14
REMARK                            x       y       z     vdW  Elec       q    Type
REMARK                         _______ _______ _______ _____ _____    ______ ____
ROOT
ATOM      1  C   UNL     1      34.769 -18.454 -22.820  0.00  0.00    +0.041 C 
ATOM      2  C   UNL     1      34.865 -19.412 -24.012  0.00  0.00    +0.006 C 
ENDROOT
BRANCH   1   4
ATOM      3  O   UNL     1      36.751 -18.596 -21.455  0.00  0.00    -0.291 OA
ATOM      4  C   UNL     1      35.607 -18.999 -21.662  0.00  0.00    +0.171 C 
BRANCH   4   5
ATOM      5  C   UNL     1      35.030 -20.029 -20.749  0.00  0.00    +0.035 C 
ATOM      6  C   UNL     1      35.884 -20.907 -20.123  0.00  0.00    +0.003 C 
ATOM      7  C   UNL     1      33.666 -20.059 -20.567  0.00  0.00    +0.003 C 
ATOM      8  C   UNL     1      33.966 -21.926 -19.064  0.00  0.00    -0.022 C 
ATOM      9  C   UNL     1      35.345 -21.870 -19.269  0.00  0.00    -0.004 C 
ATOM     10  C   UNL     1      33.127 -21.021 -19.713  0.00  0.00    -0.004 C 
BRANCH   8  11
ATOM     11  C   UNL     1      33.390 -22.956 -18.152  0.00  0.00    +0.026 C 
ATOM     12  C   UNL     1      34.194 -23.103 -16.862  0.00  0.00    +0.005 C 
ENDBRANCH   8  11
ENDBRANCH   4   5
ENDBRANCH   1   4
BRANCH   1  13
ATOM     13  C   UNL     1      35.256 -17.042 -23.172  0.00  0.00    -0.070 C 
BRANCH  13  14
ATOM     14  N   UNL     1      34.199 -16.240 -23.785  0.00  0.00    +0.387 N 
ATOM     15  C   UNL     1      34.215 -14.872 -23.251  0.00  0.00    -0.077 C 
ATOM     16  C   UNL     1      34.338 -16.240 -25.249  0.00  0.00    -0.077 C 
ATOM     17  C   UNL     1      33.083 -14.033 -23.847  0.00  0.00    -0.023 C 
ATOM     18  C   UNL     1      33.209 -15.447 -25.911  0.00  0.00    -0.023 C 
ATOM     19  C   UNL     1      33.144 -14.022 -25.370  0.00  0.00    -0.004 C 
ATOM     20  H   UNL     1      33.296 -16.658 -23.556  0.00  0.00    -0.080 HD
ENDBRANCH  13  14
ENDBRANCH   1  13
TORSDOF 5
ENDMDL
MODEL 3
REMARK VINA RESULT:      -8.8      1.994      3.448
REMARK  Name = 3236
REMARK  5 active torsions:
REMARK  status: ('A' for Active; 'I' for Inactive)
REMARK    1  A    between atoms: C_1  and  C_4
REMARK    2  A    between atoms: C_1  and  C_13
REMARK    3  A    between atoms: C_4  and  C_5
REMARK    4  A    between atoms: C_8  and  C_11
REMARK    5  A    between atoms: C_13  and  N_14
REMARK                            x       y       z     vdW  Elec       q    Type
REMARK                         _______ _______ _______ _____ _____    ______ ____
ROOT
ATOM      1  C   UNL     1      34.672 -15.744 -22.294  0.00  0.00    +0.041 C 
ATOM      2  C   UNL     1      34.531 -15.820 -20.770  0.00  0.00    +0.006 C 
ENDROOT
BRANCH   1   4
ATOM      3  O   UNL     1      34.865 -17.362 -24.071  0.00  0.00    -0.291 OA
ATOM      4  C   UNL     1      34.860 -17.153 -22.858  0.00  0.00    +0.171 C 
BRANCH   4   5
ATOM      5  C   UNL     1      35.057 -18.304 -21.929  0.00  0.00    +0.035 C 
ATOM      6  C   UNL     1      33.955 -19.021 -21.525  0.00  0.00    +0.003 C 
ATOM      7  C   UNL     1      36.334 -18.603 -21.513  0.00  0.00    +0.003 C 
ATOM      8  C   UNL     1      35.423 -20.426 -20.216  0.00  0.00    -0.022 C 
ATOM      9  C   UNL     1      34.140 -20.097 -20.656  0.00  0.00    -0.004 C 
ATOM     10  C   UNL     1      36.519 -19.679 -20.644  0.00  0.00    -0.004 C 
BRANCH   8  11
ATOM     11  C   UNL     1      35.619 -21.577 -19.287  0.00  0.00    +0.026 C 
ATOM     12  C   UNL     1      34.317 -22.322 -19.002  0.00  0.00    +0.005 C 
ENDBRANCH   8  11
ENDBRANCH   4   5
ENDBRANCH   1   4
BRANCH   1  13
ATOM     13  C   UNL     1      33.447 -15.097 -22.956  0.00  0.00    -0.070 C 
BRANCH  13  14
ATOM     14  N   UNL     1      33.822 -14.276 -24.106  0.00  0.00    +0.387 N 
ATOM     15  C   UNL     1      33.063 -14.683 -25.297  0.00  0.00    -0.077 C 
ATOM     16  C   UNL     1      33.619 -12.851 -23.808  0.00  0.00    -0.077 C 
ATOM     17  C   UNL     1      33.479 -13.866 -26.522  0.00  0.00    -0.023 C 
ATOM     18  C   UNL     1      34.054 -11.974 -24.984  0.00  0.00    -0.023 C 
ATOM     19  C   UNL     1      33.331 -12.370 -26.268  0.00  0.00    -0.004 C 
ATOM     20  H   UNL     1      34.814 -14.418 -24.301  0.00  0.00    -0.080 HD
ENDBRANCH  13  14
ENDBRANCH   1  13
TORSDOF 5
ENDMDL
MODEL 4
REMARK VINA RESULT:      -8.8      3.345      7.853
REMARK  Name = 3236
REMARK  5 active torsions:
REMARK  status: ('A' for Active; 'I' for Inactive)
REMARK    1  A    between atoms: C_1  and  C_4
REMARK    2  A    between atoms: C_1  and  C_13
REMARK    3  A    between atoms: C_4  and  C_5
REMARK    4  A    between atoms: C_8  and  C_11
REMARK    5  A    between atoms: C_13  and  N_14
REMARK                            x       y       z     vdW  Elec       q    Type
REMARK                         _______ _______ _______ _____ _____    ______ ____
ROOT
ATOM      1  C   UNL     1      34.497 -22.463 -17.427  0.00  0.00    +0.041 C 
ATOM      2  C   UNL     1      35.990 -22.450 -17.082  0.00  0.00    +0.006 C 
ENDROOT
BRANCH   1   4
ATOM      3  O   UNL     1      34.115 -23.595 -19.521  0.00  0.00    -0.291 OA
ATOM      4  C   UNL     1      34.328 -22.529 -18.946  0.00  0.00    +0.171 C 
BRANCH   4   5
ATOM      5  C   UNL     1      34.405 -21.278 -19.756  0.00  0.00    +0.035 C 
ATOM      6  C   UNL     1      33.236 -20.628 -20.079  0.00  0.00    +0.003 C 
ATOM      7  C   UNL     1      35.643 -20.823 -20.150  0.00  0.00    +0.003 C 
ATOM      8  C   UNL     1      34.549 -18.972 -21.250  0.00  0.00    -0.022 C 
ATOM      9  C   UNL     1      33.309 -19.459 -20.836  0.00  0.00    -0.004 C 
ATOM     10  C   UNL     1      35.715 -19.654 -20.907  0.00  0.00    -0.004 C 
BRANCH   8  11
ATOM     11  C   UNL     1      34.625 -17.722 -22.061  0.00  0.00    +0.026 C 
ATOM     12  C   UNL     1      34.783 -16.476 -21.192  0.00  0.00    +0.005 C 
ENDBRANCH   8  11
ENDBRANCH   4   5
ENDBRANCH   1   4
BRANCH   1  13
ATOM     13  C   UNL     1      33.767 -23.652 -16.788  0.00  0.00    -0.070 C 
BRANCH  13  14
ATOM     14  N   UNL     1      32.789 -23.217 -15.793  0.00  0.00    +0.387 N 
ATOM     15  C   UNL     1      31.422 -23.381 -16.308  0.00  0.00    -0.077 C 
ATOM     16  C   UNL     1      32.973 -23.954 -14.534  0.00  0.00    -0.077 C 
ATOM     17  C   UNL     1      30.388 -22.884 -15.296  0.00  0.00    -0.023 C 
ATOM     18  C   UNL     1      31.990 -23.475 -13.464  0.00  0.00    -0.023 C 
ATOM     19  C   UNL     1      30.548 -23.582 -13.951  0.00  0.00    -0.004 C 
ATOM     20  H   UNL     1      32.936 -22.225 -15.600  0.00  0.00    -0.080 HD
ENDBRANCH  13  14
ENDBRANCH   1  13
TORSDOF 5
ENDMDL
MODEL 5
REMARK VINA RESULT:      -8.5      1.347      2.693
REMARK  Name = 3236
REMARK  5 active torsions:
REMARK  status: ('A' for Active; 'I' for Inactive)
REMARK    1  A    between atoms: C_1  and  C_4
REMARK    2  A    between atoms: C_1  and  C_13
REMARK    3  A    between atoms: C_4  and  C_5
REMARK    4  A    between atoms: C_8  and  C_11
REMARK    5  A    between atoms: C_13  and  N_14
REMARK                            x       y       z     vdW  Elec       q    Type
REMARK                         _______ _______ _______ _____ _____    ______ ____
ROOT
ATOM      1  C   UNL     1      34.990 -16.248 -22.301  0.00  0.00    +0.041 C 
ATOM      2  C   UNL     1      34.755 -16.216 -20.787  0.00  0.00    +0.006 C 
ENDROOT
BRANCH   1   4
ATOM      3  O   UNL     1      35.356 -17.978 -23.940  0.00  0.00    -0.291 OA
ATOM      4  C   UNL     1      35.177 -17.696 -22.756  0.00  0.00    +0.171 C 
BRANCH   4   5
ATOM      5  C   UNL     1      35.160 -18.798 -21.749  0.00  0.00    +0.035 C 
ATOM      6  C   UNL     1      33.955 -19.377 -21.427  0.00  0.00    +0.003 C 
ATOM      7  C   UNL     1      36.351 -19.192 -21.184  0.00  0.00    +0.003 C 
ATOM      8  C   UNL     1      35.130 -20.830 -19.894  0.00  0.00    -0.022 C 
ATOM      9  C   UNL     1      33.940 -20.408 -20.486  0.00  0.00    -0.004 C 
ATOM     10  C   UNL     1      36.336 -20.222 -20.243  0.00  0.00    -0.004 C 
BRANCH   8  11
ATOM     11  C   UNL     1      35.113 -21.931 -18.888  0.00  0.00    +0.026 C 
ATOM     12  C   UNL     1      33.714 -22.510 -18.685  0.00  0.00    +0.005 C 
ENDBRANCH   8  11
ENDBRANCH   4   5
ENDBRANCH   1   4
BRANCH   1  13
ATOM     13  C   UNL     1      33.822 -15.625 -23.079  0.00  0.00    -0.070 C 
BRANCH  13  14
ATOM     14  N   UNL     1      33.598 -14.232 -22.697  0.00  0.00    +0.387 N 
ATOM     15  C   UNL     1      33.579 -13.368 -23.885  0.00  0.00    -0.077 C 
ATOM     16  C   UNL     1      32.351 -14.104 -21.928  0.00  0.00    -0.077 C 
ATOM     17  C   UNL     1      33.394 -11.900 -23.498  0.00  0.00    -0.023 C 
ATOM     18  C   UNL     1      32.126 -12.660 -21.476  0.00  0.00    -0.023 C 
ATOM     19  C   UNL     1      32.135 -11.701 -22.663  0.00  0.00    -0.004 C 
ATOM     20  H   UNL     1      34.368 -13.928 -22.099  0.00  0.00    -0.080 HD
ENDBRANCH  13  14
ENDBRANCH   1  13
TORSDOF 5
ENDMDL
MODEL 6
REMARK VINA RESULT:      -8.5      2.438      4.200
REMARK  Name = 3236
REMARK  5 active torsions:
REMARK  status: ('A' for Active; 'I' for Inactive)
REMARK    1  A    between atoms: C_1  and  C_4
REMARK    2  A    between atoms: C_1  and  C_13
REMARK    3  A    between atoms: C_4  and  C_5
REMARK    4  A    between atoms: C_8  and  C_11
REMARK    5  A    between atoms: C_13  and  N_14
REMARK                            x       y       z     vdW  Elec       q    Type
REMARK                         _______ _______ _______ _____ _____    ______ ____
ROOT
ATOM      1  C   UNL     1      33.346 -15.005 -24.697  0.00  0.00    +0.041 C 
ATOM      2  C   UNL     1      32.795 -14.630 -26.077  0.00  0.00    +0.006 C 
ENDROOT
BRANCH   1   4
ATOM      3  O   UNL     1      35.015 -16.307 -25.850  0.00  0.00    -0.291 OA
ATOM      4  C   UNL     1      34.325 -16.171 -24.841  0.00  0.00    +0.171 C 
BRANCH   4   5
ATOM      5  C   UNL     1      34.465 -17.163 -23.735  0.00  0.00    +0.035 C 
ATOM      6  C   UNL     1      34.668 -18.485 -24.057  0.00  0.00    +0.003 C 
ATOM      7  C   UNL     1      34.385 -16.717 -22.436  0.00  0.00    +0.003 C 
ATOM      8  C   UNL     1      34.723 -18.991 -21.695  0.00  0.00    -0.022 C 
ATOM      9  C   UNL     1      34.798 -19.412 -23.022  0.00  0.00    -0.004 C 
ATOM     10  C   UNL     1      34.516 -17.644 -21.401  0.00  0.00    -0.004 C 
BRANCH   8  11
ATOM     11  C   UNL     1      34.863 -19.983 -20.589  0.00  0.00    +0.026 C 
ATOM     12  C   UNL     1      33.518 -20.560 -20.154  0.00  0.00    +0.005 C 
ENDBRANCH   8  11
ENDBRANCH   4   5
ENDBRANCH   1   4
BRANCH   1  13
ATOM     13  C   UNL     1      34.064 -13.827 -24.023  0.00  0.00    -0.070 C 
BRANCH  13  14
ATOM     14  N   UNL     1      33.158 -12.704 -23.786  0.00  0.00    +0.387 N 
ATOM     15  C   UNL     1      32.561 -12.800 -22.446  0.00  0.00    -0.077 C 
ATOM     16  C   UNL     1      33.866 -11.427 -23.961  0.00  0.00    -0.077 C 
ATOM     17  C   UNL     1      31.573 -11.659 -22.200  0.00  0.00    -0.023 C 
ATOM     18  C   UNL     1      32.920 -10.241 -23.765  0.00  0.00    -0.023 C 
ATOM     19  C   UNL     1      32.233 -10.300 -22.404  0.00  0.00    -0.004 C 
ATOM     20  H   UNL     1      32.403 -12.741 -24.471  0.00  0.00    -0.080 HD
ENDBRANCH  13  14
ENDBRANCH   1  13
TORSDOF 5
ENDMDL
MODEL 7
REMARK VINA RESULT:      -8.5      3.836      8.839
REMARK  Name = 3236
REMARK  5 active torsions:
REMARK  status: ('A' for Active; 'I' for Inactive)
REMARK    1  A    between atoms: C_1  and  C_4
REMARK    2  A    between atoms: C_1  and  C_13
REMARK    3  A    between atoms: C_4  and  C_5
REMARK    4  A    between atoms: C_8  and  C_11
REMARK    5  A    between atoms: C_13  and  N_14
REMARK                            x       y       z     vdW  Elec       q    Type
REMARK                         _______ _______ _______ _____ _____    ______ ____
ROOT
ATOM      1  C   UNL     1      34.801 -22.648 -16.760  0.00  0.00    +0.041 C 
ATOM      2  C   UNL     1      36.306 -22.366 -16.825  0.00  0.00    +0.006 C 
ENDROOT
BRANCH   1   4
ATOM      3  O   UNL     1      33.773 -23.959 -18.502  0.00  0.00    -0.291 OA
ATOM      4  C   UNL     1      34.265 -22.881 -18.173  0.00  0.00    +0.171 C 
BRANCH   4   5
ATOM      5  C   UNL     1      34.322 -21.780 -19.179  0.00  0.00    +0.035 C 
ATOM      6  C   UNL     1      33.151 -21.155 -19.540  0.00  0.00    +0.003 C 
ATOM      7  C   UNL     1      35.545 -21.431 -19.706  0.00  0.00    +0.003 C 
ATOM      8  C   UNL     1      34.429 -19.750 -21.034  0.00  0.00    -0.022 C 
ATOM      9  C   UNL     1      33.205 -20.126 -20.481  0.00  0.00    -0.004 C 
ATOM     10  C   UNL     1      35.599 -20.402 -20.647  0.00  0.00    -0.004 C 
BRANCH   8  11
ATOM     11  C   UNL     1      34.485 -18.650 -22.039  0.00  0.00    +0.026 C 
ATOM     12  C   UNL     1      34.868 -19.153 -23.429  0.00  0.00    +0.005 C 
ENDBRANCH   8  11
ENDBRANCH   4   5
ENDBRANCH   1   4
BRANCH   1  13
ATOM     13  C   UNL     1      34.480 -23.873 -15.893  0.00  0.00    -0.070 C 
BRANCH  13  14
ATOM     14  N   UNL     1      35.564 -24.177 -14.960  0.00  0.00    +0.387 N 
ATOM     15  C   UNL     1      35.162 -23.861 -13.583  0.00  0.00    -0.077 C 
ATOM     16  C   UNL     1      35.970 -25.585 -15.085  0.00  0.00    -0.077 C 
ATOM     17  C   UNL     1      36.303 -24.127 -12.600  0.00  0.00    -0.023 C 
ATOM     18  C   UNL     1      37.138 -25.907 -14.151  0.00  0.00    -0.023 C 
ATOM     19  C   UNL     1      36.801 -25.564 -12.704  0.00  0.00    -0.004 C 
ATOM     20  H   UNL     1      36.370 -23.596 -15.195  0.00  0.00    -0.080 HD
ENDBRANCH  13  14
ENDBRANCH   1  13
TORSDOF 5
ENDMDL
MODEL 8
REMARK VINA RESULT:      -8.4      1.174      2.055
REMARK  Name = 3236
REMARK  5 active torsions:
REMARK  status: ('A' for Active; 'I' for Inactive)
REMARK    1  A    between atoms: C_1  and  C_4
REMARK    2  A    between atoms: C_1  and  C_13
REMARK    3  A    between atoms: C_4  and  C_5
REMARK    4  A    between atoms: C_8  and  C_11
REMARK    5  A    between atoms: C_13  and  N_14
REMARK                            x       y       z     vdW  Elec       q    Type
REMARK                         _______ _______ _______ _____ _____    ______ ____
ROOT
ATOM      1  C   UNL     1      35.530 -17.871 -22.164  0.00  0.00    +0.041 C 
ATOM      2  C   UNL     1      37.009 -18.254 -22.044  0.00  0.00    +0.006 C 
ENDROOT
BRANCH   1   4
ATOM      3  O   UNL     1      34.155 -19.417 -23.400  0.00  0.00    -0.291 OA
ATOM      4  C   UNL     1      34.689 -19.137 -22.328  0.00  0.00    +0.171 C 
BRANCH   4   5
ATOM      5  C   UNL     1      34.519 -20.070 -21.175  0.00  0.00    +0.035 C 
ATOM      6  C   UNL     1      33.256 -20.268 -20.668  0.00  0.00    +0.003 C 
ATOM      7  C   UNL     1      35.633 -20.695 -20.663  0.00  0.00    +0.003 C 
ATOM      8  C   UNL     1      34.207 -21.789 -19.049  0.00  0.00    -0.022 C 
ATOM      9  C   UNL     1      33.098 -21.139 -19.591  0.00  0.00    -0.004 C 
ATOM     10  C   UNL     1      35.475 -21.566 -19.586  0.00  0.00    -0.004 C 
BRANCH   8  11
ATOM     11  C   UNL     1      34.037 -22.720 -17.897  0.00  0.00    +0.026 C 
ATOM     12  C   UNL     1      32.579 -22.839 -17.458  0.00  0.00    +0.005 C 
ENDBRANCH   8  11
ENDBRANCH   4   5
ENDBRANCH   1   4
BRANCH   1  13
ATOM     13  C   UNL     1      35.033 -17.093 -20.938  0.00  0.00    -0.070 C 
BRANCH  13  14
ATOM     14  N   UNL     1      34.549 -15.762 -21.300  0.00  0.00    +0.387 N 
ATOM     15  C   UNL     1      34.603 -15.573 -22.756  0.00  0.00    -0.077 C 
ATOM     16  C   UNL     1      33.186 -15.555 -20.789  0.00  0.00    -0.077 C 
ATOM     17  C   UNL     1      34.145 -14.167 -23.147  0.00  0.00    -0.023 C 
ATOM     18  C   UNL     1      32.681 -14.148 -21.115  0.00  0.00    -0.023 C 
ATOM     19  C   UNL     1      32.749 -13.870 -22.614  0.00  0.00    -0.004 C 
ATOM     20  H   UNL     1      35.155 -15.063 -20.868  0.00  0.00    -0.080 HD
ENDBRANCH  13  14
ENDBRANCH   1  13
TORSDOF 5
ENDMDL
MODEL 9
REMARK VINA RESULT:      -8.3      1.534      6.942
REMARK  Name = 3236
REMARK  5 active torsions:
REMARK  status: ('A' for Active; 'I' for Inactive)
REMARK    1  A    between atoms: C_1  and  C_4
REMARK    2  A    between atoms: C_1  and  C_13
REMARK    3  A    between atoms: C_4  and  C_5
REMARK    4  A    between atoms: C_8  and  C_11
REMARK    5  A    between atoms: C_13  and  N_14
REMARK                            x       y       z     vdW  Elec       q    Type
REMARK                         _______ _______ _______ _____ _____    ______ ____
ROOT
ATOM      1  C   UNL     1      34.954 -18.201 -22.259  0.00  0.00    +0.041 C 
ATOM      2  C   UNL     1      34.762 -17.678 -23.687  0.00  0.00    +0.006 C 
ENDROOT
BRANCH   1   4
ATOM      3  O   UNL     1      35.607 -17.063 -20.237  0.00  0.00    -0.291 OA
ATOM      4  C   UNL     1      34.962 -17.023 -21.284  0.00  0.00    +0.171 C 
BRANCH   4   5
ATOM      5  C   UNL     1      34.188 -15.788 -21.604  0.00  0.00    +0.035 C 
ATOM      6  C   UNL     1      33.034 -15.532 -20.901  0.00  0.00    +0.003 C 
ATOM      7  C   UNL     1      34.660 -14.953 -22.592  0.00  0.00    +0.003 C 
ATOM      8  C   UNL     1      32.763 -13.510 -22.197  0.00  0.00    -0.022 C 
ATOM      9  C   UNL     1      32.311 -14.377 -21.201  0.00  0.00    -0.004 C 
ATOM     10  C   UNL     1      33.936 -13.798 -22.892  0.00  0.00    -0.004 C 
BRANCH   8  11
ATOM     11  C   UNL     1      31.989 -12.276 -22.517  0.00  0.00    +0.026 C 
ATOM     12  C   UNL     1      31.292 -11.693 -21.290  0.00  0.00    +0.005 C 
ENDBRANCH   8  11
ENDBRANCH   4   5
ENDBRANCH   1   4
BRANCH   1  13
ATOM     13  C   UNL     1      33.847 -19.184 -21.851  0.00  0.00    -0.070 C 
BRANCH  13  14
ATOM     14  N   UNL     1      34.185 -19.900 -20.622  0.00  0.00    +0.387 N 
ATOM     15  C   UNL     1      33.162 -20.910 -20.318  0.00  0.00    -0.077 C 
ATOM     16  C   UNL     1      35.517 -20.512 -20.734  0.00  0.00    -0.077 C 
ATOM     17  C   UNL     1      33.475 -21.636 -19.009  0.00  0.00    -0.023 C 
ATOM     18  C   UNL     1      35.908 -21.224 -19.438  0.00  0.00    -0.023 C 
ATOM     19  C   UNL     1      34.864 -22.263 -19.041  0.00  0.00    -0.004 C 
ATOM     20  H   UNL     1      34.209 -19.234 -19.850  0.00  0.00    -0.080 HD
ENDBRANCH  13  14
ENDBRANCH   1  13
TORSDOF 5
ENDMDL
