MODEL 1
REMARK VINA RESULT:      -6.8      0.000      0.000
REMARK  Name = 2123
REMARK  0 active torsions:
REMARK  status: ('A' for Active; 'I' for Inactive)
REMARK                            x       y       z     vdW  Elec       q    Type
REMARK                         _______ _______ _______ _____ _____    ______ ____
ROOT
ATOM      1  N   UNL     1      34.586 -22.062 -18.684  0.00  0.00    -0.229 N 
ATOM      2  N   UNL     1      31.613 -23.787 -15.493  0.00  0.00    -0.229 N 
ATOM      3  N   UNL     1      36.239 -24.055 -14.775  0.00  0.00    -0.229 N 
ATOM      4  N   UNL     1      33.076 -22.917 -17.107  0.00  0.00    -0.246 NA
ATOM      5  N   UNL     1      35.442 -23.054 -16.740  0.00  0.00    -0.246 NA
ATOM      6  N   UNL     1      33.922 -23.937 -15.107  0.00  0.00    -0.246 NA
ATOM      7  C   UNL     1      34.359 -22.702 -17.465  0.00  0.00    +0.225 C 
ATOM      8  C   UNL     1      32.934 -23.535 -15.924  0.00  0.00    +0.225 C 
ATOM      9  C   UNL     1      35.148 -23.663 -15.580  0.00  0.00    +0.225 C 
ATOM     10  C   UNL     1      33.475 -21.648 -19.530  0.00  0.00    +0.125 C 
ATOM     11  C   UNL     1      35.940 -21.778 -19.141  0.00  0.00    +0.125 C 
ATOM     12  C   UNL     1      30.487 -23.386 -16.312  0.00  0.00    +0.125 C 
ATOM     13  C   UNL     1      31.370 -24.462 -14.235  0.00  0.00    +0.125 C 
ATOM     14  C   UNL     1      37.598 -23.799 -15.207  0.00  0.00    +0.125 C 
ATOM     15  C   UNL     1      36.015 -24.707 -13.501  0.00  0.00    +0.125 C 
ENDROOT
TORSDOF 0
ENDMDL
MODEL 2
REMARK VINA RESULT:      -6.8      0.205      4.806
REMARK  Name = 2123
REMARK  0 active torsions:
REMARK  status: ('A' for Active; 'I' for Inactive)
REMARK                            x       y       z     vdW  Elec       q    Type
REMARK                         _______ _______ _______ _____ _____    ______ ____
ROOT
ATOM      1  N   UNL     1      31.765 -23.890 -15.309  0.00  0.00    -0.229 N 
ATOM      2  N   UNL     1      36.412 -24.124 -14.724  0.00  0.00    -0.229 N 
ATOM      3  N   UNL     1      34.629 -22.093 -18.556  0.00  0.00    -0.229 N 
ATOM      4  N   UNL     1      34.084 -24.023 -14.990  0.00  0.00    -0.246 NA
ATOM      5  N   UNL     1      33.172 -22.984 -16.950  0.00  0.00    -0.246 NA
ATOM      6  N   UNL     1      35.550 -23.104 -16.651  0.00  0.00    -0.246 NA
ATOM      7  C   UNL     1      33.055 -23.623 -15.766  0.00  0.00    +0.225 C 
ATOM      8  C   UNL     1      35.294 -23.732 -15.492  0.00  0.00    +0.225 C 
ATOM      9  C   UNL     1      34.441 -22.759 -17.326  0.00  0.00    +0.225 C 
ATOM     10  C   UNL     1      31.546 -24.576 -14.042  0.00  0.00    +0.125 C 
ATOM     11  C   UNL     1      30.596 -23.480 -16.077  0.00  0.00    +0.125 C 
ATOM     12  C   UNL     1      36.228 -24.807 -13.459  0.00  0.00    +0.125 C 
ATOM     13  C   UNL     1      37.755 -23.862 -15.198  0.00  0.00    +0.125 C 
ATOM     14  C   UNL     1      33.489 -21.684 -19.350  0.00  0.00    +0.125 C 
ATOM     15  C   UNL     1      35.965 -21.797 -19.033  0.00  0.00    +0.125 C 
ENDROOT
TORSDOF 0
ENDMDL
MODEL 3
REMARK VINA RESULT:      -6.7      0.040      3.884
REMARK  Name = 2123
REMARK  0 active torsions:
REMARK  status: ('A' for Active; 'I' for Inactive)
REMARK                            x       y       z     vdW  Elec       q    Type
REMARK                         _______ _______ _______ _____ _____    ______ ____
ROOT
ATOM      1  N   UNL     1      34.604 -22.037 -18.703  0.00  0.00    -0.229 N 
ATOM      2  N   UNL     1      36.258 -24.059 -14.807  0.00  0.00    -0.229 N 
ATOM      3  N   UNL     1      31.633 -23.802 -15.534  0.00  0.00    -0.229 N 
ATOM      4  N   UNL     1      35.460 -23.041 -16.764  0.00  0.00    -0.246 NA
ATOM      5  N   UNL     1      33.094 -22.910 -17.136  0.00  0.00    -0.246 NA
ATOM      6  N   UNL     1      33.940 -23.944 -15.142  0.00  0.00    -0.246 NA
ATOM      7  C   UNL     1      34.378 -22.687 -17.489  0.00  0.00    +0.225 C 
ATOM      8  C   UNL     1      35.167 -23.661 -15.610  0.00  0.00    +0.225 C 
ATOM      9  C   UNL     1      32.953 -23.539 -15.958  0.00  0.00    +0.225 C 
ATOM     10  C   UNL     1      35.958 -21.756 -19.161  0.00  0.00    +0.125 C 
ATOM     11  C   UNL     1      33.493 -21.633 -19.555  0.00  0.00    +0.125 C 
ATOM     12  C   UNL     1      37.617 -23.794 -15.236  0.00  0.00    +0.125 C 
ATOM     13  C   UNL     1      36.032 -24.721 -13.540  0.00  0.00    +0.125 C 
ATOM     14  C   UNL     1      30.506 -23.401 -16.351  0.00  0.00    +0.125 C 
ATOM     15  C   UNL     1      31.388 -24.489 -14.281  0.00  0.00    +0.125 C 
ENDROOT
TORSDOF 0
ENDMDL
MODEL 4
REMARK VINA RESULT:      -6.7      0.231      3.898
REMARK  Name = 2123
REMARK  0 active torsions:
REMARK  status: ('A' for Active; 'I' for Inactive)
REMARK                            x       y       z     vdW  Elec       q    Type
REMARK                         _______ _______ _______ _____ _____    ______ ____
ROOT
ATOM      1  N   UNL     1      31.821 -23.870 -15.337  0.00  0.00    -0.229 N 
ATOM      2  N   UNL     1      34.709 -22.074 -18.566  0.00  0.00    -0.229 N 
ATOM      3  N   UNL     1      36.462 -24.065 -14.699  0.00  0.00    -0.229 N 
ATOM      4  N   UNL     1      33.240 -22.962 -16.968  0.00  0.00    -0.246 NA
ATOM      5  N   UNL     1      34.137 -23.982 -14.990  0.00  0.00    -0.246 NA
ATOM      6  N   UNL     1      35.616 -23.062 -16.642  0.00  0.00    -0.246 NA
ATOM      7  C   UNL     1      33.115 -23.594 -15.781  0.00  0.00    +0.225 C 
ATOM      8  C   UNL     1      34.512 -22.731 -17.331  0.00  0.00    +0.225 C 
ATOM      9  C   UNL     1      35.351 -23.684 -15.482  0.00  0.00    +0.225 C 
ATOM     10  C   UNL     1      30.659 -23.488 -16.128  0.00  0.00    +0.125 C 
ATOM     11  C   UNL     1      31.594 -24.562 -14.074  0.00  0.00    +0.125 C 
ATOM     12  C   UNL     1      33.574 -21.681 -19.376  0.00  0.00    +0.125 C 
ATOM     13  C   UNL     1      36.048 -21.771 -19.028  0.00  0.00    +0.125 C 
ATOM     14  C   UNL     1      36.270 -24.742 -13.433  0.00  0.00    +0.125 C 
ATOM     15  C   UNL     1      37.810 -23.796 -15.159  0.00  0.00    +0.125 C 
ENDROOT
TORSDOF 0
ENDMDL
MODEL 5
REMARK VINA RESULT:      -6.7      0.302      4.664
REMARK  Name = 2123
REMARK  0 active torsions:
REMARK  status: ('A' for Active; 'I' for Inactive)
REMARK                            x       y       z     vdW  Elec       q    Type
REMARK                         _______ _______ _______ _____ _____    ______ ____
ROOT
ATOM      1  N   UNL     1      36.570 -23.878 -14.874  0.00  0.00    -0.229 N 
ATOM      2  N   UNL     1      34.602 -22.054 -18.720  0.00  0.00    -0.229 N 
ATOM      3  N   UNL     1      31.903 -23.839 -15.326  0.00  0.00    -0.229 N 
ATOM      4  N   UNL     1      35.615 -22.961 -16.809  0.00  0.00    -0.246 NA
ATOM      5  N   UNL     1      34.234 -23.873 -15.072  0.00  0.00    -0.246 NA
ATOM      6  N   UNL     1      33.226 -22.940 -17.040  0.00  0.00    -0.246 NA
ATOM      7  C   UNL     1      35.430 -23.559 -15.613  0.00  0.00    +0.225 C 
ATOM      8  C   UNL     1      34.475 -22.683 -17.462  0.00  0.00    +0.225 C 
ATOM      9  C   UNL     1      33.183 -23.536 -15.838  0.00  0.00    +0.225 C 
ATOM     10  C   UNL     1      37.901 -23.575 -15.382  0.00  0.00    +0.125 C 
ATOM     11  C   UNL     1      36.462 -24.513 -13.567  0.00  0.00    +0.125 C 
ATOM     12  C   UNL     1      35.912 -21.738 -19.252  0.00  0.00    +0.125 C 
ATOM     13  C   UNL     1      33.425 -21.731 -19.499  0.00  0.00    +0.125 C 
ATOM     14  C   UNL     1      31.763 -24.481 -14.035  0.00  0.00    +0.125 C 
ATOM     15  C   UNL     1      30.713 -23.498 -16.079  0.00  0.00    +0.125 C 
ENDROOT
TORSDOF 0
ENDMDL
MODEL 6
REMARK VINA RESULT:      -6.7      0.305      3.897
REMARK  Name = 2123
REMARK  0 active torsions:
REMARK  status: ('A' for Active; 'I' for Inactive)
REMARK                            x       y       z     vdW  Elec       q    Type
REMARK                         _______ _______ _______ _____ _____    ______ ____
ROOT
ATOM      1  N   UNL     1      36.572 -23.857 -14.875  0.00  0.00    -0.229 N 
ATOM      2  N   UNL     1      31.907 -23.865 -15.355  0.00  0.00    -0.229 N 
ATOM      3  N   UNL     1      34.608 -22.046 -18.728  0.00  0.00    -0.229 N 
ATOM      4  N   UNL     1      34.237 -23.874 -15.086  0.00  0.00    -0.246 NA
ATOM      5  N   UNL     1      35.619 -22.943 -16.813  0.00  0.00    -0.246 NA
ATOM      6  N   UNL     1      33.231 -22.947 -17.058  0.00  0.00    -0.246 NA
ATOM      7  C   UNL     1      35.433 -23.546 -15.619  0.00  0.00    +0.225 C 
ATOM      8  C   UNL     1      33.187 -23.546 -15.857  0.00  0.00    +0.225 C 
ATOM      9  C   UNL     1      34.479 -22.676 -17.472  0.00  0.00    +0.225 C 
ATOM     10  C   UNL     1      36.464 -24.508 -13.576  0.00  0.00    +0.125 C 
ATOM     11  C   UNL     1      37.904 -23.551 -15.381  0.00  0.00    +0.125 C 
ATOM     12  C   UNL     1      31.766 -24.514 -14.067  0.00  0.00    +0.125 C 
ATOM     13  C   UNL     1      30.719 -23.535 -16.114  0.00  0.00    +0.125 C 
ATOM     14  C   UNL     1      35.917 -21.717 -19.254  0.00  0.00    +0.125 C 
ATOM     15  C   UNL     1      33.432 -21.732 -19.515  0.00  0.00    +0.125 C 
ENDROOT
TORSDOF 0
ENDMDL
MODEL 7
REMARK VINA RESULT:      -6.4      1.509      4.683
REMARK  Name = 2123
REMARK  0 active torsions:
REMARK  status: ('A' for Active; 'I' for Inactive)
REMARK                            x       y       z     vdW  Elec       q    Type
REMARK                         _______ _______ _______ _____ _____    ______ ____
ROOT
ATOM      1  N   UNL     1      32.045 -24.190 -14.691  0.00  0.00    -0.229 N 
ATOM      2  N   UNL     1      36.136 -23.902 -12.416  0.00  0.00    -0.229 N 
ATOM      3  N   UNL     1      35.813 -22.430 -16.857  0.00  0.00    -0.229 N 
ATOM      4  N   UNL     1      34.077 -24.060 -13.529  0.00  0.00    -0.246 NA
ATOM      5  N   UNL     1      33.912 -23.306 -15.801  0.00  0.00    -0.246 NA
ATOM      6  N   UNL     1      36.006 -23.159 -14.637  0.00  0.00    -0.246 NA
ATOM      7  C   UNL     1      33.395 -23.839 -14.673  0.00  0.00    +0.225 C 
ATOM      8  C   UNL     1      35.369 -23.698 -13.584  0.00  0.00    +0.225 C 
ATOM      9  C   UNL     1      35.215 -22.993 -15.709  0.00  0.00    +0.225 C 
ATOM     10  C   UNL     1      31.406 -24.771 -13.518  0.00  0.00    +0.125 C 
ATOM     11  C   UNL     1      31.231 -23.973 -15.880  0.00  0.00    +0.125 C 
ATOM     12  C   UNL     1      35.529 -24.477 -11.233  0.00  0.00    +0.125 C 
ATOM     13  C   UNL     1      37.541 -23.553 -12.393  0.00  0.00    +0.125 C 
ATOM     14  C   UNL     1      35.034 -22.214 -18.059  0.00  0.00    +0.125 C 
ATOM     15  C   UNL     1      37.211 -22.049 -16.843  0.00  0.00    +0.125 C 
ENDROOT
TORSDOF 0
ENDMDL
MODEL 8
REMARK VINA RESULT:      -6.3      1.556      5.448
REMARK  Name = 2123
REMARK  0 active torsions:
REMARK  status: ('A' for Active; 'I' for Inactive)
REMARK                            x       y       z     vdW  Elec       q    Type
REMARK                         _______ _______ _______ _____ _____    ______ ____
ROOT
ATOM      1  N   UNL     1      36.166 -23.924 -12.284  0.00  0.00    -0.229 N 
ATOM      2  N   UNL     1      36.042 -22.388 -16.714  0.00  0.00    -0.229 N 
ATOM      3  N   UNL     1      32.168 -24.126 -14.725  0.00  0.00    -0.229 N 
ATOM      4  N   UNL     1      36.135 -23.150 -14.497  0.00  0.00    -0.246 NA
ATOM      5  N   UNL     1      34.153 -24.039 -13.480  0.00  0.00    -0.246 NA
ATOM      6  N   UNL     1      34.089 -23.254 -15.747  0.00  0.00    -0.246 NA
ATOM      7  C   UNL     1      35.458 -23.696 -13.465  0.00  0.00    +0.225 C 
ATOM      8  C   UNL     1      35.391 -22.959 -15.598  0.00  0.00    +0.225 C 
ATOM      9  C   UNL     1      33.536 -23.790 -14.647  0.00  0.00    +0.225 C 
ATOM     10  C   UNL     1      37.579 -23.585 -12.180  0.00  0.00    +0.125 C 
ATOM     11  C   UNL     1      35.510 -24.497 -11.116  0.00  0.00    +0.125 C 
ATOM     12  C   UNL     1      37.447 -22.039 -16.641  0.00  0.00    +0.125 C 
ATOM     13  C   UNL     1      35.319 -22.160 -17.947  0.00  0.00    +0.125 C 
ATOM     14  C   UNL     1      31.490 -24.709 -13.586  0.00  0.00    +0.125 C 
ATOM     15  C   UNL     1      31.420 -23.880 -15.942  0.00  0.00    +0.125 C 
ENDROOT
TORSDOF 0
ENDMDL
MODEL 9
REMARK VINA RESULT:      -6.3      1.552      4.318
REMARK  Name = 2123
REMARK  0 active torsions:
REMARK  status: ('A' for Active; 'I' for Inactive)
REMARK                            x       y       z     vdW  Elec       q    Type
REMARK                         _______ _______ _______ _____ _____    ______ ____
ROOT
ATOM      1  N   UNL     1      36.157 -23.920 -12.285  0.00  0.00    -0.229 N 
ATOM      2  N   UNL     1      32.166 -24.121 -14.740  0.00  0.00    -0.229 N 
ATOM      3  N   UNL     1      36.054 -22.401 -16.720  0.00  0.00    -0.229 N 
ATOM      4  N   UNL     1      34.147 -24.031 -13.487  0.00  0.00    -0.246 NA
ATOM      5  N   UNL     1      36.136 -23.152 -14.500  0.00  0.00    -0.246 NA
ATOM      6  N   UNL     1      34.094 -23.254 -15.757  0.00  0.00    -0.246 NA
ATOM      7  C   UNL     1      35.454 -23.692 -13.468  0.00  0.00    +0.225 C 
ATOM      8  C   UNL     1      33.536 -23.785 -14.657  0.00  0.00    +0.225 C 
ATOM      9  C   UNL     1      35.396 -22.963 -15.605  0.00  0.00    +0.225 C 
ATOM     10  C   UNL     1      35.499 -24.499 -11.122  0.00  0.00    +0.125 C 
ATOM     11  C   UNL     1      37.574 -23.596 -12.182  0.00  0.00    +0.125 C 
ATOM     12  C   UNL     1      31.484 -24.700 -13.601  0.00  0.00    +0.125 C 
ATOM     13  C   UNL     1      31.426 -23.876 -15.960  0.00  0.00    +0.125 C 
ATOM     14  C   UNL     1      37.459 -22.056 -16.645  0.00  0.00    +0.125 C 
ATOM     15  C   UNL     1      35.335 -22.174 -17.958  0.00  0.00    +0.125 C 
ENDROOT
TORSDOF 0
ENDMDL
