MODEL 1
REMARK VINA RESULT:      -6.3      0.000      0.000
REMARK  Name = 637516
REMARK  2 active torsions:
REMARK  status: ('A' for Active; 'I' for Inactive)
REMARK    1  A    between atoms: C_1  and  C_7
REMARK    2  A    between atoms: C_7  and  O_9
REMARK                            x       y       z     vdW  Elec       q    Type
REMARK                         _______ _______ _______ _____ _____    ______ ____
ROOT
ATOM      1  C   UNL     1      34.143 -21.490 -19.556  0.00  0.00    +0.004 C 
ATOM      2  C   UNL     1      32.959 -20.836 -19.894  0.00  0.00    -0.002 C 
ATOM      3  C   UNL     1      35.368 -20.991 -19.998  0.00  0.00    -0.002 C 
ATOM      4  C   UNL     1      32.999 -19.682 -20.676  0.00  0.00    -0.000 C 
ATOM      5  C   UNL     1      35.408 -19.836 -20.780  0.00  0.00    -0.000 C 
ATOM      6  C   UNL     1      34.224 -19.181 -21.119  0.00  0.00    -0.000 C 
ENDROOT
BRANCH   1   7
ATOM      7  C   UNL     1      34.100 -22.725 -18.719  0.00  0.00    +0.133 C 
ATOM      8  C   UNL     1      32.913 -22.743 -17.751  0.00  0.00    +0.037 C 
BRANCH   7   9
ATOM      9  O   UNL     1      34.022 -23.883 -19.558  0.00  0.00    -0.380 OA
ATOM     10  H   UNL     1      34.332 -23.658 -20.450  0.00  0.00    +0.211 HD
ENDBRANCH   7   9
ENDBRANCH   1   7
TORSDOF 2
ENDMDL
MODEL 2
REMARK VINA RESULT:      -6.2      2.546      4.406
REMARK  Name = 637516
REMARK  2 active torsions:
REMARK  status: ('A' for Active; 'I' for Inactive)
REMARK    1  A    between atoms: C_1  and  C_7
REMARK    2  A    between atoms: C_7  and  O_9
REMARK                            x       y       z     vdW  Elec       q    Type
REMARK                         _______ _______ _______ _____ _____    ______ ____
ROOT
ATOM      1  C   UNL     1      35.018 -19.634 -20.913  0.00  0.00    +0.004 C 
ATOM      2  C   UNL     1      35.768 -20.618 -20.270  0.00  0.00    -0.002 C 
ATOM      3  C   UNL     1      33.626 -19.652 -20.831  0.00  0.00    -0.002 C 
ATOM      4  C   UNL     1      35.126 -21.622 -19.545  0.00  0.00    -0.000 C 
ATOM      5  C   UNL     1      32.984 -20.656 -20.106  0.00  0.00    -0.000 C 
ATOM      6  C   UNL     1      33.733 -21.641 -19.462  0.00  0.00    -0.000 C 
ENDROOT
BRANCH   1   7
ATOM      7  C   UNL     1      35.705 -18.560 -21.688  0.00  0.00    +0.133 C 
ATOM      8  C   UNL     1      35.349 -18.583 -23.178  0.00  0.00    +0.037 C 
BRANCH   7   9
ATOM      9  O   UNL     1      35.360 -17.275 -21.156  0.00  0.00    -0.380 OA
ATOM     10  H   UNL     1      36.164 -16.744 -21.047  0.00  0.00    +0.211 HD
ENDBRANCH   7   9
ENDBRANCH   1   7
TORSDOF 2
ENDMDL
MODEL 3
REMARK VINA RESULT:      -6.2      2.544      4.130
REMARK  Name = 637516
REMARK  2 active torsions:
REMARK  status: ('A' for Active; 'I' for Inactive)
REMARK    1  A    between atoms: C_1  and  C_7
REMARK    2  A    between atoms: C_7  and  O_9
REMARK                            x       y       z     vdW  Elec       q    Type
REMARK                         _______ _______ _______ _____ _____    ______ ____
ROOT
ATOM      1  C   UNL     1      35.024 -19.637 -20.902  0.00  0.00    +0.004 C 
ATOM      2  C   UNL     1      33.632 -19.661 -20.822  0.00  0.00    -0.002 C 
ATOM      3  C   UNL     1      35.777 -20.620 -20.260  0.00  0.00    -0.002 C 
ATOM      4  C   UNL     1      32.992 -20.667 -20.098  0.00  0.00    -0.000 C 
ATOM      5  C   UNL     1      35.137 -21.626 -19.536  0.00  0.00    -0.000 C 
ATOM      6  C   UNL     1      33.745 -21.650 -19.455  0.00  0.00    -0.000 C 
ENDROOT
BRANCH   1   7
ATOM      7  C   UNL     1      35.707 -18.561 -21.677  0.00  0.00    +0.133 C 
ATOM      8  C   UNL     1      35.357 -18.591 -23.168  0.00  0.00    +0.037 C 
BRANCH   7   9
ATOM      9  O   UNL     1      35.352 -17.277 -21.151  0.00  0.00    -0.380 OA
ATOM     10  H   UNL     1      36.064 -16.644 -21.333  0.00  0.00    +0.211 HD
ENDBRANCH   7   9
ENDBRANCH   1   7
TORSDOF 2
ENDMDL
MODEL 4
REMARK VINA RESULT:      -6.1      1.324      1.655
REMARK  Name = 637516
REMARK  2 active torsions:
REMARK  status: ('A' for Active; 'I' for Inactive)
REMARK    1  A    between atoms: C_1  and  C_7
REMARK    2  A    between atoms: C_7  and  O_9
REMARK                            x       y       z     vdW  Elec       q    Type
REMARK                         _______ _______ _______ _____ _____    ______ ____
ROOT
ATOM      1  C   UNL     1      34.838 -21.118 -19.734  0.00  0.00    +0.004 C 
ATOM      2  C   UNL     1      33.447 -21.019 -19.775  0.00  0.00    -0.002 C 
ATOM      3  C   UNL     1      35.622 -20.241 -20.482  0.00  0.00    -0.002 C 
ATOM      4  C   UNL     1      32.840 -20.043 -20.566  0.00  0.00    -0.000 C 
ATOM      5  C   UNL     1      35.015 -19.265 -21.273  0.00  0.00    -0.000 C 
ATOM      6  C   UNL     1      33.625 -19.165 -21.314  0.00  0.00    -0.000 C 
ENDROOT
BRANCH   1   7
ATOM      7  C   UNL     1      35.486 -22.161 -18.888  0.00  0.00    +0.133 C 
ATOM      8  C   UNL     1      36.648 -21.611 -18.054  0.00  0.00    +0.037 C 
BRANCH   7   9
ATOM      9  O   UNL     1      34.522 -22.741 -18.000  0.00  0.00    -0.380 OA
ATOM     10  H   UNL     1      33.737 -22.172 -17.959  0.00  0.00    +0.211 HD
ENDBRANCH   7   9
ENDBRANCH   1   7
TORSDOF 2
ENDMDL
MODEL 5
REMARK VINA RESULT:      -6.0      2.772      4.660
REMARK  Name = 637516
REMARK  2 active torsions:
REMARK  status: ('A' for Active; 'I' for Inactive)
REMARK    1  A    between atoms: C_1  and  C_7
REMARK    2  A    between atoms: C_7  and  O_9
REMARK                            x       y       z     vdW  Elec       q    Type
REMARK                         _______ _______ _______ _____ _____    ______ ____
ROOT
ATOM      1  C   UNL     1      34.688 -18.860 -21.211  0.00  0.00    +0.004 C 
ATOM      2  C   UNL     1      35.873 -19.511 -20.872  0.00  0.00    -0.002 C 
ATOM      3  C   UNL     1      33.460 -19.415 -20.854  0.00  0.00    -0.002 C 
ATOM      4  C   UNL     1      35.831 -20.719 -20.176  0.00  0.00    -0.000 C 
ATOM      5  C   UNL     1      33.417 -20.623 -20.158  0.00  0.00    -0.000 C 
ATOM      6  C   UNL     1      34.602 -21.275 -19.818  0.00  0.00    -0.000 C 
ENDROOT
BRANCH   1   7
ATOM      7  C   UNL     1      34.734 -17.567 -21.955  0.00  0.00    +0.133 C 
ATOM      8  C   UNL     1      34.766 -16.350 -21.026  0.00  0.00    +0.037 C 
BRANCH   7   9
ATOM      9  O   UNL     1      35.892 -17.528 -22.798  0.00  0.00    -0.380 OA
ATOM     10  H   UNL     1      35.783 -18.159 -23.527  0.00  0.00    +0.211 HD
ENDBRANCH   7   9
ENDBRANCH   1   7
TORSDOF 2
ENDMDL
MODEL 6
REMARK VINA RESULT:      -5.8      1.254      1.407
REMARK  Name = 637516
REMARK  2 active torsions:
REMARK  status: ('A' for Active; 'I' for Inactive)
REMARK    1  A    between atoms: C_1  and  C_7
REMARK    2  A    between atoms: C_7  and  O_9
REMARK                            x       y       z     vdW  Elec       q    Type
REMARK                         _______ _______ _______ _____ _____    ______ ____
ROOT
ATOM      1  C   UNL     1      34.592 -21.027 -19.937  0.00  0.00    +0.004 C 
ATOM      2  C   UNL     1      33.731 -20.130 -20.569  0.00  0.00    -0.002 C 
ATOM      3  C   UNL     1      35.968 -20.803 -19.954  0.00  0.00    -0.002 C 
ATOM      4  C   UNL     1      34.246 -19.009 -21.218  0.00  0.00    -0.000 C 
ATOM      5  C   UNL     1      36.484 -19.682 -20.604  0.00  0.00    -0.000 C 
ATOM      6  C   UNL     1      35.623 -18.784 -21.236  0.00  0.00    -0.000 C 
ENDROOT
BRANCH   1   7
ATOM      7  C   UNL     1      34.040 -22.226 -19.242  0.00  0.00    +0.133 C 
ATOM      8  C   UNL     1      34.757 -22.529 -17.922  0.00  0.00    +0.037 C 
BRANCH   7   9
ATOM      9  O   UNL     1      32.646 -22.036 -18.970  0.00  0.00    -0.380 OA
ATOM     10  H   UNL     1      32.362 -21.177 -19.320  0.00  0.00    +0.211 HD
ENDBRANCH   7   9
ENDBRANCH   1   7
TORSDOF 2
ENDMDL
MODEL 7
REMARK VINA RESULT:      -5.8      3.365      4.747
REMARK  Name = 637516
REMARK  2 active torsions:
REMARK  status: ('A' for Active; 'I' for Inactive)
REMARK    1  A    between atoms: C_1  and  C_7
REMARK    2  A    between atoms: C_7  and  O_9
REMARK                            x       y       z     vdW  Elec       q    Type
REMARK                         _______ _______ _______ _____ _____    ______ ____
ROOT
ATOM      1  C   UNL     1      34.801 -18.132 -22.456  0.00  0.00    +0.004 C 
ATOM      2  C   UNL     1      34.913 -16.774 -22.753  0.00  0.00    -0.002 C 
ATOM      3  C   UNL     1      34.624 -19.060 -23.482  0.00  0.00    -0.002 C 
ATOM      4  C   UNL     1      34.846 -16.343 -24.078  0.00  0.00    -0.000 C 
ATOM      5  C   UNL     1      34.558 -18.628 -24.807  0.00  0.00    -0.000 C 
ATOM      6  C   UNL     1      34.669 -17.270 -25.105  0.00  0.00    -0.000 C 
ENDROOT
BRANCH   1   7
ATOM      7  C   UNL     1      34.874 -18.593 -21.039  0.00  0.00    +0.133 C 
ATOM      8  C   UNL     1      34.069 -19.873 -20.790  0.00  0.00    +0.037 C 
BRANCH   7   9
ATOM      9  O   UNL     1      36.238 -18.833 -20.671  0.00  0.00    -0.380 OA
ATOM     10  H   UNL     1      36.824 -18.327 -21.255  0.00  0.00    +0.211 HD
ENDBRANCH   7   9
ENDBRANCH   1   7
TORSDOF 2
ENDMDL
MODEL 8
REMARK VINA RESULT:      -5.8      3.367      4.738
REMARK  Name = 637516
REMARK  2 active torsions:
REMARK  status: ('A' for Active; 'I' for Inactive)
REMARK    1  A    between atoms: C_1  and  C_7
REMARK    2  A    between atoms: C_7  and  O_9
REMARK                            x       y       z     vdW  Elec       q    Type
REMARK                         _______ _______ _______ _____ _____    ______ ____
ROOT
ATOM      1  C   UNL     1      34.803 -18.130 -22.459  0.00  0.00    +0.004 C 
ATOM      2  C   UNL     1      34.627 -19.058 -23.484  0.00  0.00    -0.002 C 
ATOM      3  C   UNL     1      34.911 -16.772 -22.758  0.00  0.00    -0.002 C 
ATOM      4  C   UNL     1      34.559 -18.629 -24.810  0.00  0.00    -0.000 C 
ATOM      5  C   UNL     1      34.844 -16.343 -24.083  0.00  0.00    -0.000 C 
ATOM      6  C   UNL     1      34.667 -17.271 -25.109  0.00  0.00    -0.000 C 
ENDROOT
BRANCH   1   7
ATOM      7  C   UNL     1      34.874 -18.590 -21.041  0.00  0.00    +0.133 C 
ATOM      8  C   UNL     1      34.063 -19.865 -20.790  0.00  0.00    +0.037 C 
BRANCH   7   9
ATOM      9  O   UNL     1      36.237 -18.836 -20.674  0.00  0.00    -0.380 OA
ATOM     10  H   UNL     1      36.566 -18.098 -20.138  0.00  0.00    +0.211 HD
ENDBRANCH   7   9
ENDBRANCH   1   7
TORSDOF 2
ENDMDL
MODEL 9
REMARK VINA RESULT:      -5.8     11.173     12.849
REMARK  Name = 637516
REMARK  2 active torsions:
REMARK  status: ('A' for Active; 'I' for Inactive)
REMARK    1  A    between atoms: C_1  and  C_7
REMARK    2  A    between atoms: C_7  and  O_9
REMARK                            x       y       z     vdW  Elec       q    Type
REMARK                         _______ _______ _______ _____ _____    ______ ____
ROOT
ATOM      1  C   UNL     1      32.163  -8.922 -20.742  0.00  0.00    +0.004 C 
ATOM      2  C   UNL     1      31.849  -9.587 -21.927  0.00  0.00    -0.002 C 
ATOM      3  C   UNL     1      31.892  -9.523 -19.513  0.00  0.00    -0.002 C 
ATOM      4  C   UNL     1      31.263 -10.852 -21.884  0.00  0.00    -0.000 C 
ATOM      5  C   UNL     1      31.306 -10.788 -19.469  0.00  0.00    -0.000 C 
ATOM      6  C   UNL     1      30.992 -11.453 -20.654  0.00  0.00    -0.000 C 
ENDROOT
BRANCH   1   7
ATOM      7  C   UNL     1      32.790  -7.570 -20.789  0.00  0.00    +0.133 C 
ATOM      8  C   UNL     1      31.851  -6.500 -21.355  0.00  0.00    +0.037 C 
BRANCH   7   9
ATOM      9  O   UNL     1      33.194  -7.172 -19.473  0.00  0.00    -0.380 OA
ATOM     10  H   UNL     1      33.950  -6.567 -19.536  0.00  0.00    +0.211 HD
ENDBRANCH   7   9
ENDBRANCH   1   7
TORSDOF 2
ENDMDL
