MODEL 1
REMARK VINA RESULT:      -9.1      0.000      0.000
REMARK  Name = 9700
REMARK  7 active torsions:
REMARK  status: ('A' for Active; 'I' for Inactive)
REMARK    1  A    between atoms: C_2  and  O_16
REMARK    2  A    between atoms: C_3  and  C_18
REMARK    3  A    between atoms: C_5  and  N_8
REMARK    4  A    between atoms: C_18  and  O_19
REMARK    5  A    between atoms: O_19  and  P_20
REMARK    6  A    between atoms: P_20  and  O_22
REMARK    7  A    between atoms: P_20  and  O_24
REMARK                            x       y       z     vdW  Elec       q    Type
REMARK                         _______ _______ _______ _____ _____    ______ ____
ROOT
ATOM      1  O   UNL     1      35.759 -24.924 -15.875  0.00  0.00    -0.335 OA
ATOM      2  C   UNL     1      37.269 -23.563 -14.656  0.00  0.00    +0.144 C 
ATOM      3  C   UNL     1      36.658 -24.954 -14.750  0.00  0.00    +0.174 C 
ATOM      4  C   UNL     1      36.186 -22.675 -15.222  0.00  0.00    +0.083 C 
ATOM      5  C   UNL     1      35.551 -23.563 -16.280  0.00  0.00    +0.202 C 
ENDROOT
BRANCH   5   8
ATOM      6  O   UNL     1      34.248 -22.982 -18.744  0.00  0.00    -0.252 OA
ATOM      7  O   UNL     1      30.143 -22.675 -16.695  0.00  0.00    -0.270 OA
ATOM      8  N   UNL     1      34.146 -23.324 -16.436  0.00  0.00    -0.219 N 
ATOM      9  N   UNL     1      32.207 -22.831 -17.710  0.00  0.00    -0.236 N 
ATOM     10  C   UNL     1      33.335 -23.376 -15.310  0.00  0.00    +0.071 C 
ATOM     11  C   UNL     1      33.590 -23.042 -17.704  0.00  0.00    +0.315 C 
ATOM     12  C   UNL     1      32.012 -23.172 -15.319  0.00  0.00    +0.047 C 
ATOM     13  C   UNL     1      31.353 -22.870 -16.618  0.00  0.00    +0.250 C 
ATOM     14  C   UNL     1      31.157 -23.232 -14.094  0.00  0.00    +0.037 C 
ATOM     15  H   UNL     1      31.796 -22.632 -18.582  0.00  0.00    +0.159 HD
ENDBRANCH   5   8
BRANCH   2  16
ATOM     16  O   UNL     1      38.432 -23.486 -15.478  0.00  0.00    -0.382 OA
ATOM     17  H   UNL     1      38.956 -24.296 -15.372  0.00  0.00    +0.210 HD
ENDBRANCH   2  16
BRANCH   3  18
ATOM     18  C   UNL     1      35.852 -25.333 -13.515  0.00  0.00    +0.186 C 
BRANCH  18  19
ATOM     19  O   UNL     1      36.627 -25.060 -12.360  0.00  0.00    -0.271 OA
BRANCH  19  20
ATOM     20  P   UNL     1      36.019 -24.058 -11.243  0.00  0.00    +0.473 P 
ATOM     21  O   UNL     1      36.991 -23.054 -10.695  0.00  0.00    -0.227 OA
BRANCH  20  22
ATOM     22  O   UNL     1      35.361 -25.053 -10.152  0.00  0.00    -0.303 OA
ATOM     23  H   UNL     1      34.396 -24.959 -10.169  0.00  0.00    +0.222 HD
ENDBRANCH  20  22
BRANCH  20  24
ATOM     24  O   UNL     1      34.732 -23.423 -11.992  0.00  0.00    -0.303 OA
ATOM     25  H   UNL     1      34.853 -23.489 -12.952  0.00  0.00    +0.222 HD
ENDBRANCH  20  24
ENDBRANCH  19  20
ENDBRANCH  18  19
ENDBRANCH   3  18
TORSDOF 7
ENDMDL
MODEL 2
REMARK VINA RESULT:      -8.9      2.270      4.043
REMARK  Name = 9700
REMARK  7 active torsions:
REMARK  status: ('A' for Active; 'I' for Inactive)
REMARK    1  A    between atoms: C_2  and  O_16
REMARK    2  A    between atoms: C_3  and  C_18
REMARK    3  A    between atoms: C_5  and  N_8
REMARK    4  A    between atoms: C_18  and  O_19
REMARK    5  A    between atoms: O_19  and  P_20
REMARK    6  A    between atoms: P_20  and  O_22
REMARK    7  A    between atoms: P_20  and  O_24
REMARK                            x       y       z     vdW  Elec       q    Type
REMARK                         _______ _______ _______ _____ _____    ______ ____
ROOT
ATOM      1  O   UNL     1      35.874 -22.917 -14.470  0.00  0.00    -0.335 OA
ATOM      2  C   UNL     1      35.966 -25.136 -13.639  0.00  0.00    +0.144 C 
ATOM      3  C   UNL     1      36.795 -23.900 -13.957  0.00  0.00    +0.174 C 
ATOM      4  C   UNL     1      34.830 -25.050 -14.632  0.00  0.00    +0.083 C 
ATOM      5  C   UNL     1      34.621 -23.550 -14.765  0.00  0.00    +0.202 C 
ENDROOT
BRANCH   5   8
ATOM      6  O   UNL     1      31.953 -23.735 -15.741  0.00  0.00    -0.252 OA
ATOM      7  O   UNL     1      33.152 -22.014 -19.834  0.00  0.00    -0.270 OA
ATOM      8  N   UNL     1      34.192 -23.163 -16.077  0.00  0.00    -0.219 N 
ATOM      9  N   UNL     1      32.565 -22.876 -17.778  0.00  0.00    -0.236 N 
ATOM     10  C   UNL     1      35.135 -22.654 -16.960  0.00  0.00    +0.071 C 
ATOM     11  C   UNL     1      32.842 -23.293 -16.471  0.00  0.00    +0.315 C 
ATOM     12  C   UNL     1      34.867 -22.256 -18.210  0.00  0.00    +0.047 C 
ATOM     13  C   UNL     1      33.465 -22.362 -18.699  0.00  0.00    +0.250 C 
ATOM     14  C   UNL     1      35.898 -21.711 -19.144  0.00  0.00    +0.037 C 
ATOM     15  H   UNL     1      31.630 -22.957 -18.077  0.00  0.00    +0.159 HD
ENDBRANCH   5   8
BRANCH   2  16
ATOM     16  O   UNL     1      35.452 -25.047 -12.312  0.00  0.00    -0.382 OA
ATOM     17  H   UNL     1      34.822 -24.311 -12.258  0.00  0.00    +0.210 HD
ENDBRANCH   2  16
BRANCH   3  18
ATOM     18  C   UNL     1      37.852 -24.153 -15.025  0.00  0.00    +0.186 C 
BRANCH  18  19
ATOM     19  O   UNL     1      39.088 -24.430 -14.388  0.00  0.00    -0.271 OA
BRANCH  19  20
ATOM     20  P   UNL     1      39.812 -25.846 -14.693  0.00  0.00    +0.473 P 
ATOM     21  O   UNL     1      40.895 -26.226 -13.726  0.00  0.00    -0.227 OA
BRANCH  20  22
ATOM     22  O   UNL     1      40.275 -25.716 -16.237  0.00  0.00    -0.303 OA
ATOM     23  H   UNL     1      40.763 -26.513 -16.496  0.00  0.00    +0.222 HD
ENDBRANCH  20  22
BRANCH  20  24
ATOM     24  O   UNL     1      38.567 -26.877 -14.764  0.00  0.00    -0.303 OA
ATOM     25  H   UNL     1      38.885 -27.748 -15.051  0.00  0.00    +0.222 HD
ENDBRANCH  20  24
ENDBRANCH  19  20
ENDBRANCH  18  19
ENDBRANCH   3  18
TORSDOF 7
ENDMDL
MODEL 3
REMARK VINA RESULT:      -8.3      2.163      3.609
REMARK  Name = 9700
REMARK  7 active torsions:
REMARK  status: ('A' for Active; 'I' for Inactive)
REMARK    1  A    between atoms: C_2  and  O_16
REMARK    2  A    between atoms: C_3  and  C_18
REMARK    3  A    between atoms: C_5  and  N_8
REMARK    4  A    between atoms: C_18  and  O_19
REMARK    5  A    between atoms: O_19  and  P_20
REMARK    6  A    between atoms: P_20  and  O_22
REMARK    7  A    between atoms: P_20  and  O_24
REMARK                            x       y       z     vdW  Elec       q    Type
REMARK                         _______ _______ _______ _____ _____    ______ ____
ROOT
ATOM      1  O   UNL     1      36.840 -23.658 -13.911  0.00  0.00    -0.335 OA
ATOM      2  C   UNL     1      36.424 -25.053 -12.039  0.00  0.00    +0.144 C 
ATOM      3  C   UNL     1      37.394 -24.767 -13.178  0.00  0.00    +0.174 C 
ATOM      4  C   UNL     1      35.094 -24.615 -12.606  0.00  0.00    +0.083 C 
ATOM      5  C   UNL     1      35.484 -23.445 -13.495  0.00  0.00    +0.202 C 
ENDROOT
BRANCH   5   8
ATOM      6  O   UNL     1      36.412 -23.171 -16.173  0.00  0.00    -0.252 OA
ATOM      7  O   UNL     1      32.122 -22.994 -17.821  0.00  0.00    -0.270 OA
ATOM      8  N   UNL     1      34.646 -23.324 -14.653  0.00  0.00    -0.219 N 
ATOM      9  N   UNL     1      34.268 -23.084 -16.981  0.00  0.00    -0.236 N 
ATOM     10  C   UNL     1      33.268 -23.339 -14.479  0.00  0.00    +0.071 C 
ATOM     11  C   UNL     1      35.201 -23.192 -15.945  0.00  0.00    +0.315 C 
ATOM     12  C   UNL     1      32.378 -23.235 -15.473  0.00  0.00    +0.047 C 
ATOM     13  C   UNL     1      32.886 -23.093 -16.864  0.00  0.00    +0.250 C 
ATOM     14  C   UNL     1      30.898 -23.253 -15.263  0.00  0.00    +0.037 C 
ATOM     15  H   UNL     1      34.630 -22.990 -17.892  0.00  0.00    +0.159 HD
ENDBRANCH   5   8
BRANCH   2  16
ATOM     16  O   UNL     1      36.753 -24.248 -10.909  0.00  0.00    -0.382 OA
ATOM     17  H   UNL     1      36.972 -24.822 -10.157  0.00  0.00    +0.210 HD
ENDBRANCH   2  16
BRANCH   3  18
ATOM     18  C   UNL     1      37.542 -25.938 -14.140  0.00  0.00    +0.186 C 
BRANCH  18  19
ATOM     19  O   UNL     1      38.910 -26.303 -14.212  0.00  0.00    -0.271 OA
BRANCH  19  20
ATOM     20  P   UNL     1      39.955 -25.250 -14.860  0.00  0.00    +0.473 P 
ATOM     21  O   UNL     1      40.908 -24.621 -13.886  0.00  0.00    -0.227 OA
BRANCH  20  22
ATOM     22  O   UNL     1      39.008 -24.217 -15.668  0.00  0.00    -0.303 OA
ATOM     23  H   UNL     1      38.278 -24.704 -16.080  0.00  0.00    +0.222 HD
ENDBRANCH  20  22
BRANCH  20  24
ATOM     24  O   UNL     1      40.653 -26.114 -16.036  0.00  0.00    -0.303 OA
ATOM     25  H   UNL     1      41.366 -25.594 -16.439  0.00  0.00    +0.222 HD
ENDBRANCH  20  24
ENDBRANCH  19  20
ENDBRANCH  18  19
ENDBRANCH   3  18
TORSDOF 7
ENDMDL
MODEL 4
REMARK VINA RESULT:      -8.3      2.457      4.153
REMARK  Name = 9700
REMARK  7 active torsions:
REMARK  status: ('A' for Active; 'I' for Inactive)
REMARK    1  A    between atoms: C_2  and  O_16
REMARK    2  A    between atoms: C_3  and  C_18
REMARK    3  A    between atoms: C_5  and  N_8
REMARK    4  A    between atoms: C_18  and  O_19
REMARK    5  A    between atoms: O_19  and  P_20
REMARK    6  A    between atoms: P_20  and  O_22
REMARK    7  A    between atoms: P_20  and  O_24
REMARK                            x       y       z     vdW  Elec       q    Type
REMARK                         _______ _______ _______ _____ _____    ______ ____
ROOT
ATOM      1  O   UNL     1      36.445 -22.965 -13.491  0.00  0.00    -0.335 OA
ATOM      2  C   UNL     1      36.972 -24.971 -12.343  0.00  0.00    +0.144 C 
ATOM      3  C   UNL     1      37.552 -23.825 -13.160  0.00  0.00    +0.174 C 
ATOM      4  C   UNL     1      35.560 -25.086 -12.869  0.00  0.00    +0.083 C 
ATOM      5  C   UNL     1      35.215 -23.643 -13.201  0.00  0.00    +0.202 C 
ENDROOT
BRANCH   5   8
ATOM      6  O   UNL     1      32.407 -24.113 -13.143  0.00  0.00    -0.252 OA
ATOM      7  O   UNL     1      31.982 -23.148 -17.619  0.00  0.00    -0.270 OA
ATOM      8  N   UNL     1      34.333 -23.527 -14.326  0.00  0.00    -0.219 N 
ATOM      9  N   UNL     1      32.209 -23.630 -15.376  0.00  0.00    -0.236 N 
ATOM     10  C   UNL     1      34.868 -23.157 -15.552  0.00  0.00    +0.071 C 
ATOM     11  C   UNL     1      32.950 -23.782 -14.199  0.00  0.00    +0.315 C 
ATOM     12  C   UNL     1      34.157 -23.013 -16.678  0.00  0.00    +0.047 C 
ATOM     13  C   UNL     1      32.692 -23.264 -16.624  0.00  0.00    +0.250 C 
ATOM     14  C   UNL     1      34.754 -22.614 -17.989  0.00  0.00    +0.037 C 
ATOM     15  H   UNL     1      31.242 -23.803 -15.313  0.00  0.00    +0.159 HD
ENDBRANCH   5   8
BRANCH   2  16
ATOM     16  O   UNL     1      36.942 -24.616 -10.962  0.00  0.00    -0.382 OA
ATOM     17  H   UNL     1      36.138 -24.106 -10.776  0.00  0.00    +0.210 HD
ENDBRANCH   2  16
BRANCH   3  18
ATOM     18  C   UNL     1      38.191 -24.289 -14.463  0.00  0.00    +0.186 C 
BRANCH  18  19
ATOM     19  O   UNL     1      39.551 -24.606 -14.218  0.00  0.00    -0.271 OA
BRANCH  19  20
ATOM     20  P   UNL     1      40.092 -26.068 -14.657  0.00  0.00    +0.473 P 
ATOM     21  O   UNL     1      41.203 -26.614 -13.808  0.00  0.00    -0.227 OA
BRANCH  20  22
ATOM     22  O   UNL     1      40.439 -25.894 -16.226  0.00  0.00    -0.303 OA
ATOM     23  H   UNL     1      41.110 -25.203 -16.334  0.00  0.00    +0.222 HD
ENDBRANCH  20  22
BRANCH  20  24
ATOM     24  O   UNL     1      38.743 -26.961 -14.671  0.00  0.00    -0.303 OA
ATOM     25  H   UNL     1      38.050 -26.508 -14.164  0.00  0.00    +0.222 HD
ENDBRANCH  20  24
ENDBRANCH  19  20
ENDBRANCH  18  19
ENDBRANCH   3  18
TORSDOF 7
ENDMDL
MODEL 5
REMARK VINA RESULT:      -8.0      8.517     11.422
REMARK  Name = 9700
REMARK  7 active torsions:
REMARK  status: ('A' for Active; 'I' for Inactive)
REMARK    1  A    between atoms: C_2  and  O_16
REMARK    2  A    between atoms: C_3  and  C_18
REMARK    3  A    between atoms: C_5  and  N_8
REMARK    4  A    between atoms: C_18  and  O_19
REMARK    5  A    between atoms: O_19  and  P_20
REMARK    6  A    between atoms: P_20  and  O_22
REMARK    7  A    between atoms: P_20  and  O_24
REMARK                            x       y       z     vdW  Elec       q    Type
REMARK                         _______ _______ _______ _____ _____    ______ ____
ROOT
ATOM      1  O   UNL     1      35.749 -16.678 -22.853  0.00  0.00    -0.335 OA
ATOM      2  C   UNL     1      34.298 -16.918 -24.713  0.00  0.00    +0.144 C 
ATOM      3  C   UNL     1      34.722 -15.984 -23.588  0.00  0.00    +0.174 C 
ATOM      4  C   UNL     1      34.550 -18.290 -24.132  0.00  0.00    +0.083 C 
ATOM      5  C   UNL     1      35.769 -18.056 -23.254  0.00  0.00    +0.202 C 
ENDROOT
BRANCH   5   8
ATOM      6  O   UNL     1      38.085 -18.736 -21.743  0.00  0.00    -0.252 OA
ATOM      7  O   UNL     1      35.626 -21.266 -18.794  0.00  0.00    -0.270 OA
ATOM      8  N   UNL     1      35.780 -18.889 -22.086  0.00  0.00    -0.219 N 
ATOM      9  N   UNL     1      36.847 -19.995 -20.280  0.00  0.00    -0.236 N 
ATOM     10  C   UNL     1      34.577 -19.417 -21.637  0.00  0.00    +0.071 C 
ATOM     11  C   UNL     1      36.983 -19.170 -21.402  0.00  0.00    +0.315 C 
ATOM     12  C   UNL     1      34.450 -20.206 -20.563  0.00  0.00    +0.047 C 
ATOM     13  C   UNL     1      35.673 -20.548 -19.789  0.00  0.00    +0.250 C 
ATOM     14  C   UNL     1      33.144 -20.765 -20.097  0.00  0.00    +0.037 C 
ATOM     15  H   UNL     1      37.672 -20.207 -19.786  0.00  0.00    +0.159 HD
ENDBRANCH   5   8
BRANCH   2  16
ATOM     16  O   UNL     1      35.133 -16.717 -25.852  0.00  0.00    -0.382 OA
ATOM     17  H   UNL     1      35.245 -15.766 -26.006  0.00  0.00    +0.210 HD
ENDBRANCH   2  16
BRANCH   3  18
ATOM     18  C   UNL     1      33.589 -15.665 -22.622  0.00  0.00    +0.186 C 
BRANCH  18  19
ATOM     19  O   UNL     1      33.596 -14.273 -22.352  0.00  0.00    -0.271 OA
BRANCH  19  20
ATOM     20  P   UNL     1      32.975 -13.269 -23.460  0.00  0.00    +0.473 P 
ATOM     21  O   UNL     1      32.519 -13.930 -24.728  0.00  0.00    -0.227 OA
BRANCH  20  22
ATOM     22  O   UNL     1      34.119 -12.140 -23.640  0.00  0.00    -0.303 OA
ATOM     23  H   UNL     1      34.757 -12.208 -22.913  0.00  0.00    +0.222 HD
ENDBRANCH  20  22
BRANCH  20  24
ATOM     24  O   UNL     1      31.816 -12.497 -22.637  0.00  0.00    -0.303 OA
ATOM     25  H   UNL     1      31.147 -12.166 -23.256  0.00  0.00    +0.222 HD
ENDBRANCH  20  24
ENDBRANCH  19  20
ENDBRANCH  18  19
ENDBRANCH   3  18
TORSDOF 7
ENDMDL
MODEL 6
REMARK VINA RESULT:      -8.0      1.398      1.789
REMARK  Name = 9700
REMARK  7 active torsions:
REMARK  status: ('A' for Active; 'I' for Inactive)
REMARK    1  A    between atoms: C_2  and  O_16
REMARK    2  A    between atoms: C_3  and  C_18
REMARK    3  A    between atoms: C_5  and  N_8
REMARK    4  A    between atoms: C_18  and  O_19
REMARK    5  A    between atoms: O_19  and  P_20
REMARK    6  A    between atoms: P_20  and  O_22
REMARK    7  A    between atoms: P_20  and  O_24
REMARK                            x       y       z     vdW  Elec       q    Type
REMARK                         _______ _______ _______ _____ _____    ______ ____
ROOT
ATOM      1  O   UNL     1      35.145 -24.579 -16.101  0.00  0.00    -0.335 OA
ATOM      2  C   UNL     1      36.806 -22.955 -15.628  0.00  0.00    +0.144 C 
ATOM      3  C   UNL     1      36.335 -24.369 -15.317  0.00  0.00    +0.174 C 
ATOM      4  C   UNL     1      35.522 -22.232 -15.961  0.00  0.00    +0.083 C 
ATOM      5  C   UNL     1      34.694 -23.321 -16.625  0.00  0.00    +0.202 C 
ENDROOT
BRANCH   5   8
ATOM      6  O   UNL     1      32.759 -22.505 -18.547  0.00  0.00    -0.252 OA
ATOM      7  O   UNL     1      29.337 -22.838 -15.494  0.00  0.00    -0.270 OA
ATOM      8  N   UNL     1      33.289 -23.181 -16.376  0.00  0.00    -0.219 N 
ATOM      9  N   UNL     1      31.062 -22.675 -17.015  0.00  0.00    -0.236 N 
ATOM     10  C   UNL     1      32.810 -23.460 -15.103  0.00  0.00    +0.071 C 
ATOM     11  C   UNL     1      32.405 -22.768 -17.397  0.00  0.00    +0.315 C 
ATOM     12  C   UNL     1      31.525 -23.369 -14.740  0.00  0.00    +0.047 C 
ATOM     13  C   UNL     1      30.531 -22.941 -15.761  0.00  0.00    +0.250 C 
ATOM     14  C   UNL     1      31.030 -23.674 -13.363  0.00  0.00    +0.037 C 
ATOM     15  H   UNL     1      30.426 -22.388 -17.709  0.00  0.00    +0.159 HD
ENDBRANCH   5   8
BRANCH   2  16
ATOM     16  O   UNL     1      37.661 -22.967 -16.769  0.00  0.00    -0.382 OA
ATOM     17  H   UNL     1      38.515 -22.568 -16.538  0.00  0.00    +0.210 HD
ENDBRANCH   2  16
BRANCH   3  18
ATOM     18  C   UNL     1      35.971 -24.564 -13.851  0.00  0.00    +0.186 C 
BRANCH  18  19
ATOM     19  O   UNL     1      36.678 -23.613 -13.073  0.00  0.00    -0.271 OA
BRANCH  19  20
ATOM     20  P   UNL     1      38.017 -24.092 -12.299  0.00  0.00    +0.473 P 
ATOM     21  O   UNL     1      38.649 -23.051 -11.422  0.00  0.00    -0.227 OA
BRANCH  20  22
ATOM     22  O   UNL     1      38.958 -24.668 -13.481  0.00  0.00    -0.303 OA
ATOM     23  H   UNL     1      39.457 -25.431 -13.153  0.00  0.00    +0.222 HD
ENDBRANCH  20  22
BRANCH  20  24
ATOM     24  O   UNL     1      37.528 -25.428 -11.528  0.00  0.00    -0.303 OA
ATOM     25  H   UNL     1      36.673 -25.714 -11.888  0.00  0.00    +0.222 HD
ENDBRANCH  20  24
ENDBRANCH  19  20
ENDBRANCH  18  19
ENDBRANCH   3  18
TORSDOF 7
ENDMDL
MODEL 7
REMARK VINA RESULT:      -7.9      2.543      4.264
REMARK  Name = 9700
REMARK  7 active torsions:
REMARK  status: ('A' for Active; 'I' for Inactive)
REMARK    1  A    between atoms: C_2  and  O_16
REMARK    2  A    between atoms: C_3  and  C_18
REMARK    3  A    between atoms: C_5  and  N_8
REMARK    4  A    between atoms: C_18  and  O_19
REMARK    5  A    between atoms: O_19  and  P_20
REMARK    6  A    between atoms: P_20  and  O_22
REMARK    7  A    between atoms: P_20  and  O_24
REMARK                            x       y       z     vdW  Elec       q    Type
REMARK                         _______ _______ _______ _____ _____    ______ ____
ROOT
ATOM      1  O   UNL     1      37.786 -23.685 -13.372  0.00  0.00    -0.335 OA
ATOM      2  C   UNL     1      36.600 -24.869 -11.695  0.00  0.00    +0.144 C 
ATOM      3  C   UNL     1      37.897 -24.818 -12.489  0.00  0.00    +0.174 C 
ATOM      4  C   UNL     1      35.594 -24.262 -12.645  0.00  0.00    +0.083 C 
ATOM      5  C   UNL     1      36.426 -23.231 -13.390  0.00  0.00    +0.202 C 
ENDROOT
BRANCH   5   8
ATOM      6  O   UNL     1      38.122 -22.492 -15.555  0.00  0.00    -0.252 OA
ATOM      7  O   UNL     1      34.631 -22.596 -18.547  0.00  0.00    -0.270 OA
ATOM      8  N   UNL     1      36.003 -23.053 -14.750  0.00  0.00    -0.219 N 
ATOM      9  N   UNL     1      36.372 -22.547 -17.036  0.00  0.00    -0.236 N 
ATOM     10  C   UNL     1      34.664 -23.253 -15.059  0.00  0.00    +0.071 C 
ATOM     11  C   UNL     1      36.921 -22.684 -15.757  0.00  0.00    +0.315 C 
ATOM     12  C   UNL     1      34.142 -23.120 -16.284  0.00  0.00    +0.047 C 
ATOM     13  C   UNL     1      35.046 -22.733 -17.400  0.00  0.00    +0.250 C 
ATOM     14  C   UNL     1      32.696 -23.339 -16.595  0.00  0.00    +0.037 C 
ATOM     15  H   UNL     1      36.992 -22.290 -17.757  0.00  0.00    +0.159 HD
ENDBRANCH   5   8
BRANCH   2  16
ATOM     16  O   UNL     1      36.712 -24.055 -10.530  0.00  0.00    -0.382 OA
ATOM     17  H   UNL     1      37.624 -24.089 -10.198  0.00  0.00    +0.210 HD
ENDBRANCH   2  16
BRANCH   3  18
ATOM     18  C   UNL     1      38.118 -26.059 -13.345  0.00  0.00    +0.186 C 
BRANCH  18  19
ATOM     19  O   UNL     1      38.634 -25.661 -14.604  0.00  0.00    -0.271 OA
BRANCH  19  20
ATOM     20  P   UNL     1      40.237 -25.696 -14.827  0.00  0.00    +0.473 P 
ATOM     21  O   UNL     1      40.678 -26.102 -16.203  0.00  0.00    -0.227 OA
BRANCH  20  22
ATOM     22  O   UNL     1      40.771 -26.635 -13.623  0.00  0.00    -0.303 OA
ATOM     23  H   UNL     1      40.891 -26.099 -12.824  0.00  0.00    +0.222 HD
ENDBRANCH  20  22
BRANCH  20  24
ATOM     24  O   UNL     1      40.696 -24.212 -14.373  0.00  0.00    -0.303 OA
ATOM     25  H   UNL     1      41.602 -24.047 -14.678  0.00  0.00    +0.222 HD
ENDBRANCH  20  24
ENDBRANCH  19  20
ENDBRANCH  18  19
ENDBRANCH   3  18
TORSDOF 7
ENDMDL
MODEL 8
REMARK VINA RESULT:      -7.4     11.263     13.277
REMARK  Name = 9700
REMARK  7 active torsions:
REMARK  status: ('A' for Active; 'I' for Inactive)
REMARK    1  A    between atoms: C_2  and  O_16
REMARK    2  A    between atoms: C_3  and  C_18
REMARK    3  A    between atoms: C_5  and  N_8
REMARK    4  A    between atoms: C_18  and  O_19
REMARK    5  A    between atoms: O_19  and  P_20
REMARK    6  A    between atoms: P_20  and  O_22
REMARK    7  A    between atoms: P_20  and  O_24
REMARK                            x       y       z     vdW  Elec       q    Type
REMARK                         _______ _______ _______ _____ _____    ______ ____
ROOT
ATOM      1  O   UNL     1      32.033 -13.935 -22.346  0.00  0.00    -0.335 OA
ATOM      2  C   UNL     1      33.899 -14.514 -23.689  0.00  0.00    +0.144 C 
ATOM      3  C   UNL     1      33.047 -14.945 -22.503  0.00  0.00    +0.174 C 
ATOM      4  C   UNL     1      33.789 -13.007 -23.658  0.00  0.00    +0.083 C 
ATOM      5  C   UNL     1      32.377 -12.791 -23.140  0.00  0.00    +0.202 C 
ENDROOT
BRANCH   5   8
ATOM      6  O   UNL     1      32.885 -10.140 -24.047  0.00  0.00    -0.252 OA
ATOM      7  O   UNL     1      31.847  -8.355 -19.938  0.00  0.00    -0.270 OA
ATOM      8  N   UNL     1      32.253 -11.605 -22.343  0.00  0.00    -0.219 N 
ATOM      9  N   UNL     1      32.365  -9.263 -21.993  0.00  0.00    -0.236 N 
ATOM     10  C   UNL     1      31.853 -11.736 -21.019  0.00  0.00    +0.071 C 
ATOM     11  C   UNL     1      32.528 -10.330 -22.883  0.00  0.00    +0.315 C 
ATOM     12  C   UNL     1      31.699 -10.713 -20.170  0.00  0.00    +0.047 C 
ATOM     13  C   UNL     1      31.970  -9.336 -20.665  0.00  0.00    +0.250 C 
ATOM     14  C   UNL     1      31.269 -10.876 -18.747  0.00  0.00    +0.037 C 
ATOM     15  H   UNL     1      32.552  -8.363 -22.345  0.00  0.00    +0.159 HD
ENDBRANCH   5   8
BRANCH   2  16
ATOM     16  O   UNL     1      33.333 -15.013 -24.899  0.00  0.00    -0.382 OA
ATOM     17  H   UNL     1      33.598 -15.938 -25.022  0.00  0.00    +0.210 HD
ENDBRANCH   2  16
BRANCH   3  18
ATOM     18  C   UNL     1      33.837 -15.022 -21.202  0.00  0.00    +0.186 C 
BRANCH  18  19
ATOM     19  O   UNL     1      34.936 -15.898 -21.385  0.00  0.00    -0.271 OA
BRANCH  19  20
ATOM     20  P   UNL     1      34.652 -17.491 -21.442  0.00  0.00    +0.473 P 
ATOM     21  O   UNL     1      33.296 -17.910 -20.953  0.00  0.00    -0.227 OA
BRANCH  20  22
ATOM     22  O   UNL     1      35.904 -18.134 -20.646  0.00  0.00    -0.303 OA
ATOM     23  H   UNL     1      36.564 -18.448 -21.283  0.00  0.00    +0.222 HD
ENDBRANCH  20  22
BRANCH  20  24
ATOM     24  O   UNL     1      34.964 -17.857 -22.986  0.00  0.00    -0.303 OA
ATOM     25  H   UNL     1      35.462 -18.689 -23.027  0.00  0.00    +0.222 HD
ENDBRANCH  20  24
ENDBRANCH  19  20
ENDBRANCH  18  19
ENDBRANCH   3  18
TORSDOF 7
ENDMDL
MODEL 9
REMARK VINA RESULT:      -7.4      2.608      4.309
REMARK  Name = 9700
REMARK  7 active torsions:
REMARK  status: ('A' for Active; 'I' for Inactive)
REMARK    1  A    between atoms: C_2  and  O_16
REMARK    2  A    between atoms: C_3  and  C_18
REMARK    3  A    between atoms: C_5  and  N_8
REMARK    4  A    between atoms: C_18  and  O_19
REMARK    5  A    between atoms: O_19  and  P_20
REMARK    6  A    between atoms: P_20  and  O_22
REMARK    7  A    between atoms: P_20  and  O_24
REMARK                            x       y       z     vdW  Elec       q    Type
REMARK                         _______ _______ _______ _____ _____    ______ ____
ROOT
ATOM      1  O   UNL     1      36.041 -23.506 -14.555  0.00  0.00    -0.335 OA
ATOM      2  C   UNL     1      33.975 -24.475 -13.912  0.00  0.00    +0.144 C 
ATOM      3  C   UNL     1      35.482 -24.685 -13.943  0.00  0.00    +0.174 C 
ATOM      4  C   UNL     1      33.728 -23.590 -15.111  0.00  0.00    +0.083 C 
ATOM      5  C   UNL     1      34.989 -22.742 -15.160  0.00  0.00    +0.202 C 
ENDROOT
BRANCH   5   8
ATOM      6  O   UNL     1      37.591 -21.911 -15.962  0.00  0.00    -0.252 OA
ATOM      7  O   UNL     1      36.269 -21.418 -20.339  0.00  0.00    -0.270 OA
ATOM      8  N   UNL     1      35.369 -22.386 -16.496  0.00  0.00    -0.219 N 
ATOM      9  N   UNL     1      36.918 -21.669 -18.141  0.00  0.00    -0.236 N 
ATOM     10  C   UNL     1      34.407 -22.446 -17.496  0.00  0.00    +0.071 C 
ATOM     11  C   UNL     1      36.688 -21.985 -16.797  0.00  0.00    +0.315 C 
ATOM     12  C   UNL     1      34.630 -22.141 -18.781  0.00  0.00    +0.047 C 
ATOM     13  C   UNL     1      35.998 -21.710 -19.177  0.00  0.00    +0.250 C 
ATOM     14  C   UNL     1      33.580 -22.211 -19.842  0.00  0.00    +0.037 C 
ATOM     15  H   UNL     1      37.831 -21.385 -18.376  0.00  0.00    +0.159 HD
ENDBRANCH   5   8
BRANCH   2  16
ATOM     16  O   UNL     1      33.606 -23.783 -12.721  0.00  0.00    -0.382 OA
ATOM     17  H   UNL     1      33.822 -24.330 -11.949  0.00  0.00    +0.210 HD
ENDBRANCH   2  16
BRANCH   3  18
ATOM     18  C   UNL     1      35.897 -25.888 -14.781  0.00  0.00    +0.186 C 
BRANCH  18  19
ATOM     19  O   UNL     1      37.123 -25.595 -15.428  0.00  0.00    -0.271 OA
BRANCH  19  20
ATOM     20  P   UNL     1      38.482 -25.609 -14.547  0.00  0.00    +0.473 P 
ATOM     21  O   UNL     1      38.432 -26.470 -13.319  0.00  0.00    -0.227 OA
BRANCH  20  22
ATOM     22  O   UNL     1      38.786 -24.043 -14.284  0.00  0.00    -0.303 OA
ATOM     23  H   UNL     1      38.292 -23.506 -14.922  0.00  0.00    +0.222 HD
ENDBRANCH  20  22
BRANCH  20  24
ATOM     24  O   UNL     1      39.608 -26.030 -15.630  0.00  0.00    -0.303 OA
ATOM     25  H   UNL     1      40.489 -25.933 -15.235  0.00  0.00    +0.222 HD
ENDBRANCH  20  24
ENDBRANCH  19  20
ENDBRANCH  18  19
ENDBRANCH   3  18
TORSDOF 7
ENDMDL
