MODEL 1
REMARK VINA RESULT:      -9.9      0.000      0.000
REMARK  Name = 5289294
REMARK  13 active torsions:
REMARK  status: ('A' for Active; 'I' for Inactive)
REMARK    1  A    between atoms: C_1  and  C_4
REMARK    2  A    between atoms: C_1  and  N_12
REMARK    3  A    between atoms: C_1  and  C_23
REMARK    4  A    between atoms: N_3  and  C_6
REMARK    5  A    between atoms: C_6  and  C_7
REMARK    6  A    between atoms: C_7  and  C_8
REMARK    7  A    between atoms: C_13  and  C_15
REMARK    8  A    between atoms: C_15  and  O_16
REMARK    9  A    between atoms: C_15  and  C_18
REMARK   10  A    between atoms: C_18  and  C_20
REMARK   11  A    between atoms: C_20  and  O_21
REMARK   12  A    between atoms: C_23  and  C_24
REMARK   13  A    between atoms: C_24  and  C_25
REMARK                            x       y       z     vdW  Elec       q    Type
REMARK                         _______ _______ _______ _____ _____    ______ ____
ROOT
ATOM      1  C   UNL     1      35.776 -23.455 -15.821  0.00  0.00    +0.149 C 
ENDROOT
BRANCH   1   4
ATOM      2  O   UNL     1      37.465 -21.751 -16.170  0.00  0.00    -0.273 OA
ATOM      3  N   UNL     1      35.963 -22.198 -17.880  0.00  0.00    -0.303 N 
ATOM      4  C   UNL     1      36.514 -22.385 -16.621  0.00  0.00    +0.240 C 
ATOM      5  H   UNL     1      35.200 -22.760 -18.149  0.00  0.00    +0.149 HD
BRANCH   3   6
ATOM      6  C   UNL     1      36.462 -21.216 -18.814  0.00  0.00    +0.089 C 
BRANCH   6   7
ATOM      7  C   UNL     1      35.735 -21.265 -20.156  0.00  0.00    +0.021 C 
BRANCH   7   8
ATOM      8  C   UNL     1      34.656 -20.182 -20.352  0.00  0.00    +0.002 C 
ATOM      9  C   UNL     1      33.276 -20.763 -20.035  0.00  0.00    +0.000 C 
ATOM     10  C   UNL     1      34.658 -19.603 -21.767  0.00  0.00    +0.000 C 
ENDBRANCH   7   8
ENDBRANCH   6   7
ENDBRANCH   3   6
ENDBRANCH   1   4
BRANCH   1  12
ATOM     11  O   UNL     1      36.059 -26.320 -15.749  0.00  0.00    -0.272 OA
ATOM     12  N   UNL     1      36.736 -24.209 -15.058  0.00  0.00    -0.296 N 
ATOM     13  C   UNL     1      36.797 -25.596 -15.086  0.00  0.00    +0.250 C 
ATOM     14  H   UNL     1      37.376 -23.720 -14.492  0.00  0.00    +0.150 HD
BRANCH  13  15
ATOM     15  C   UNL     1      37.888 -26.153 -14.178  0.00  0.00    +0.198 C 
BRANCH  15  16
ATOM     16  O   UNL     1      38.238 -27.452 -14.634  0.00  0.00    -0.375 OA
ATOM     17  H   UNL     1      37.591 -28.096 -14.304  0.00  0.00    +0.211 HD
ENDBRANCH  15  16
BRANCH  15  18
ATOM     18  C   UNL     1      39.126 -25.252 -14.174  0.00  0.00    +0.148 C 
BRANCH  18  20
ATOM     19  O   UNL     1      41.198 -26.532 -14.082  0.00  0.00    -0.250 OA
ATOM     20  C   UNL     1      40.343 -25.953 -14.737  0.00  0.00    +0.317 C 
BRANCH  20  21
ATOM     21  O   UNL     1      40.380 -25.869 -16.093  0.00  0.00    -0.480 OA
ATOM     22  H   UNL     1      39.598 -25.998 -16.592  0.00  0.00    +0.295 HD
ENDBRANCH  20  21
ENDBRANCH  18  20
ENDBRANCH  15  18
ENDBRANCH  13  15
ENDBRANCH   1  12
BRANCH   1  23
ATOM     23  C   UNL     1      34.664 -22.873 -14.939  0.00  0.00    +0.034 C 
BRANCH  23  24
ATOM     24  C   UNL     1      33.893 -23.927 -14.132  0.00  0.00    +0.029 C 
BRANCH  24  25
ATOM     25  C   UNL     1      32.462 -24.040 -14.596  0.00  0.00    -0.022 C 
ATOM     26  C   UNL     1      31.612 -24.980 -14.013  0.00  0.00    -0.004 C 
ATOM     27  C   UNL     1      31.989 -23.205 -15.608  0.00  0.00    -0.004 C 
ATOM     28  C   UNL     1      30.288 -25.084 -14.443  0.00  0.00    -0.000 C 
ATOM     29  C   UNL     1      30.667 -23.308 -16.037  0.00  0.00    -0.000 C 
ATOM     30  C   UNL     1      29.816 -24.248 -15.455  0.00  0.00    -0.000 C 
ENDBRANCH  24  25
ENDBRANCH  23  24
ENDBRANCH   1  23
TORSDOF 13
ENDMDL
MODEL 2
REMARK VINA RESULT:      -9.4      1.655      5.258
REMARK  Name = 5289294
REMARK  13 active torsions:
REMARK  status: ('A' for Active; 'I' for Inactive)
REMARK    1  A    between atoms: C_1  and  C_4
REMARK    2  A    between atoms: C_1  and  N_12
REMARK    3  A    between atoms: C_1  and  C_23
REMARK    4  A    between atoms: N_3  and  C_6
REMARK    5  A    between atoms: C_6  and  C_7
REMARK    6  A    between atoms: C_7  and  C_8
REMARK    7  A    between atoms: C_13  and  C_15
REMARK    8  A    between atoms: C_15  and  O_16
REMARK    9  A    between atoms: C_15  and  C_18
REMARK   10  A    between atoms: C_18  and  C_20
REMARK   11  A    between atoms: C_20  and  O_21
REMARK   12  A    between atoms: C_23  and  C_24
REMARK   13  A    between atoms: C_24  and  C_25
REMARK                            x       y       z     vdW  Elec       q    Type
REMARK                         _______ _______ _______ _____ _____    ______ ____
ROOT
ATOM      1  C   UNL     1      34.988 -23.431 -14.852  0.00  0.00    +0.149 C 
ENDROOT
BRANCH   1   4
ATOM      2  O   UNL     1      33.804 -24.433 -12.989  0.00  0.00    -0.273 OA
ATOM      3  N   UNL     1      32.655 -22.983 -14.389  0.00  0.00    -0.303 N 
ATOM      4  C   UNL     1      33.777 -23.677 -13.957  0.00  0.00    +0.240 C 
ATOM      5  H   UNL     1      32.737 -22.400 -15.178  0.00  0.00    +0.149 HD
BRANCH   3   6
ATOM      6  C   UNL     1      31.374 -23.079 -13.730  0.00  0.00    +0.089 C 
BRANCH   6   7
ATOM      7  C   UNL     1      30.206 -22.946 -14.703  0.00  0.00    +0.021 C 
BRANCH   7   8
ATOM      8  C   UNL     1      30.018 -24.136 -15.664  0.00  0.00    +0.002 C 
ATOM      9  C   UNL     1      28.719 -23.963 -16.455  0.00  0.00    +0.000 C 
ATOM     10  C   UNL     1      30.001 -25.480 -14.934  0.00  0.00    +0.000 C 
ENDBRANCH   7   8
ENDBRANCH   6   7
ENDBRANCH   3   6
ENDBRANCH   1   4
BRANCH   1  12
ATOM     11  O   UNL     1      37.728 -23.337 -13.971  0.00  0.00    -0.272 OA
ATOM     12  N   UNL     1      35.893 -24.543 -14.724  0.00  0.00    -0.296 N 
ATOM     13  C   UNL     1      37.204 -24.401 -14.289  0.00  0.00    +0.250 C 
ATOM     14  H   UNL     1      35.568 -25.444 -14.955  0.00  0.00    +0.150 HD
BRANCH  13  15
ATOM     15  C   UNL     1      37.959 -25.725 -14.258  0.00  0.00    +0.198 C 
BRANCH  15  16
ATOM     16  O   UNL     1      38.255 -26.109 -15.593  0.00  0.00    -0.375 OA
ATOM     17  H   UNL     1      37.463 -26.492 -16.003  0.00  0.00    +0.211 HD
ENDBRANCH  15  16
BRANCH  15  18
ATOM     18  C   UNL     1      39.253 -25.612 -13.449  0.00  0.00    +0.148 C 
BRANCH  18  20
ATOM     19  O   UNL     1      40.987 -24.613 -14.842  0.00  0.00    -0.250 OA
ATOM     20  C   UNL     1      40.481 -25.604 -14.334  0.00  0.00    +0.317 C 
BRANCH  20  21
ATOM     21  O   UNL     1      40.977 -26.859 -14.503  0.00  0.00    -0.480 OA
ATOM     22  H   UNL     1      40.501 -27.488 -15.008  0.00  0.00    +0.295 HD
ENDBRANCH  20  21
ENDBRANCH  18  20
ENDBRANCH  15  18
ENDBRANCH  13  15
ENDBRANCH   1  12
BRANCH   1  23
ATOM     23  C   UNL     1      34.601 -23.164 -16.312  0.00  0.00    +0.034 C 
BRANCH  23  24
ATOM     24  C   UNL     1      35.766 -22.677 -17.186  0.00  0.00    +0.029 C 
BRANCH  24  25
ATOM     25  C   UNL     1      35.270 -21.914 -18.389  0.00  0.00    -0.022 C 
ATOM     26  C   UNL     1      36.169 -21.197 -19.179  0.00  0.00    -0.004 C 
ATOM     27  C   UNL     1      33.913 -21.925 -18.713  0.00  0.00    -0.004 C 
ATOM     28  C   UNL     1      35.711 -20.491 -20.293  0.00  0.00    -0.000 C 
ATOM     29  C   UNL     1      33.455 -21.220 -19.825  0.00  0.00    -0.000 C 
ATOM     30  C   UNL     1      34.354 -20.503 -20.615  0.00  0.00    -0.000 C 
ENDBRANCH  24  25
ENDBRANCH  23  24
ENDBRANCH   1  23
TORSDOF 13
ENDMDL
MODEL 3
REMARK VINA RESULT:      -9.4      1.390      1.904
REMARK  Name = 5289294
REMARK  13 active torsions:
REMARK  status: ('A' for Active; 'I' for Inactive)
REMARK    1  A    between atoms: C_1  and  C_4
REMARK    2  A    between atoms: C_1  and  N_12
REMARK    3  A    between atoms: C_1  and  C_23
REMARK    4  A    between atoms: N_3  and  C_6
REMARK    5  A    between atoms: C_6  and  C_7
REMARK    6  A    between atoms: C_7  and  C_8
REMARK    7  A    between atoms: C_13  and  C_15
REMARK    8  A    between atoms: C_15  and  O_16
REMARK    9  A    between atoms: C_15  and  C_18
REMARK   10  A    between atoms: C_18  and  C_20
REMARK   11  A    between atoms: C_20  and  O_21
REMARK   12  A    between atoms: C_23  and  C_24
REMARK   13  A    between atoms: C_24  and  C_25
REMARK                            x       y       z     vdW  Elec       q    Type
REMARK                         _______ _______ _______ _____ _____    ______ ____
ROOT
ATOM      1  C   UNL     1      34.323 -24.532 -14.919  0.00  0.00    +0.149 C 
ENDROOT
BRANCH   1   4
ATOM      2  O   UNL     1      35.176 -22.523 -15.974  0.00  0.00    -0.273 OA
ATOM      3  N   UNL     1      33.331 -23.575 -16.907  0.00  0.00    -0.303 N 
ATOM      4  C   UNL     1      34.353 -23.435 -15.979  0.00  0.00    +0.240 C 
ATOM      5  H   UNL     1      32.722 -24.344 -16.825  0.00  0.00    +0.149 HD
BRANCH   3   6
ATOM      6  C   UNL     1      33.125 -22.642 -17.990  0.00  0.00    +0.089 C 
BRANCH   6   7
ATOM      7  C   UNL     1      34.260 -22.672 -19.010  0.00  0.00    +0.021 C 
BRANCH   7   8
ATOM      8  C   UNL     1      34.787 -21.288 -19.439  0.00  0.00    +0.002 C 
ATOM      9  C   UNL     1      33.730 -20.571 -20.282  0.00  0.00    +0.000 C 
ATOM     10  C   UNL     1      36.097 -21.378 -20.223  0.00  0.00    +0.000 C 
ENDBRANCH   7   8
ENDBRANCH   6   7
ENDBRANCH   3   6
ENDBRANCH   1   4
BRANCH   1  12
ATOM     11  O   UNL     1      36.053 -26.628 -15.870  0.00  0.00    -0.272 OA
ATOM     12  N   UNL     1      35.671 -24.800 -14.491  0.00  0.00    -0.296 N 
ATOM     13  C   UNL     1      36.433 -25.839 -15.009  0.00  0.00    +0.250 C 
ATOM     14  H   UNL     1      36.070 -24.221 -13.801  0.00  0.00    +0.150 HD
BRANCH  13  15
ATOM     15  C   UNL     1      37.819 -25.922 -14.378  0.00  0.00    +0.198 C 
BRANCH  15  16
ATOM     16  O   UNL     1      38.371 -27.198 -14.663  0.00  0.00    -0.375 OA
ATOM     17  H   UNL     1      37.786 -27.889 -14.313  0.00  0.00    +0.211 HD
ENDBRANCH  15  16
BRANCH  15  18
ATOM     18  C   UNL     1      38.741 -24.824 -14.913  0.00  0.00    +0.148 C 
BRANCH  18  20
ATOM     19  O   UNL     1      40.591 -26.074 -15.892  0.00  0.00    -0.250 OA
ATOM     20  C   UNL     1      40.173 -25.296 -15.046  0.00  0.00    +0.317 C 
BRANCH  20  21
ATOM     21  O   UNL     1      40.968 -24.738 -14.094  0.00  0.00    -0.480 OA
ATOM     22  H   UNL     1      41.709 -25.209 -13.767  0.00  0.00    +0.295 HD
ENDBRANCH  20  21
ENDBRANCH  18  20
ENDBRANCH  15  18
ENDBRANCH  13  15
ENDBRANCH   1  12
BRANCH   1  23
ATOM     23  C   UNL     1      33.399 -24.193 -13.742  0.00  0.00    +0.034 C 
BRANCH  23  24
ATOM     24  C   UNL     1      32.160 -25.095 -13.643  0.00  0.00    +0.029 C 
BRANCH  24  25
ATOM     25  C   UNL     1      30.976 -24.485 -14.352  0.00  0.00    -0.022 C 
ATOM     26  C   UNL     1      30.028 -25.308 -14.959  0.00  0.00    -0.004 C 
ATOM     27  C   UNL     1      30.830 -23.098 -14.400  0.00  0.00    -0.004 C 
ATOM     28  C   UNL     1      28.932 -24.744 -15.614  0.00  0.00    -0.000 C 
ATOM     29  C   UNL     1      29.735 -22.535 -15.054  0.00  0.00    -0.000 C 
ATOM     30  C   UNL     1      28.786 -23.357 -15.662  0.00  0.00    -0.000 C 
ENDBRANCH  24  25
ENDBRANCH  23  24
ENDBRANCH   1  23
TORSDOF 13
ENDMDL
MODEL 4
REMARK VINA RESULT:      -9.0      3.448      8.220
REMARK  Name = 5289294
REMARK  13 active torsions:
REMARK  status: ('A' for Active; 'I' for Inactive)
REMARK    1  A    between atoms: C_1  and  C_4
REMARK    2  A    between atoms: C_1  and  N_12
REMARK    3  A    between atoms: C_1  and  C_23
REMARK    4  A    between atoms: N_3  and  C_6
REMARK    5  A    between atoms: C_6  and  C_7
REMARK    6  A    between atoms: C_7  and  C_8
REMARK    7  A    between atoms: C_13  and  C_15
REMARK    8  A    between atoms: C_15  and  O_16
REMARK    9  A    between atoms: C_15  and  C_18
REMARK   10  A    between atoms: C_18  and  C_20
REMARK   11  A    between atoms: C_20  and  O_21
REMARK   12  A    between atoms: C_23  and  C_24
REMARK   13  A    between atoms: C_24  and  C_25
REMARK                            x       y       z     vdW  Elec       q    Type
REMARK                         _______ _______ _______ _____ _____    ______ ____
ROOT
ATOM      1  C   UNL     1      33.763 -23.511 -17.034  0.00  0.00    +0.149 C 
ENDROOT
BRANCH   1   4
ATOM      2  O   UNL     1      34.855 -22.383 -15.187  0.00  0.00    -0.273 OA
ATOM      3  N   UNL     1      35.036 -24.690 -15.349  0.00  0.00    -0.303 N 
ATOM      4  C   UNL     1      34.593 -23.440 -15.756  0.00  0.00    +0.240 C 
ATOM      5  H   UNL     1      34.770 -25.479 -15.874  0.00  0.00    +0.149 HD
BRANCH   3   6
ATOM      6  C   UNL     1      35.871 -24.883 -14.186  0.00  0.00    +0.089 C 
BRANCH   6   7
ATOM      7  C   UNL     1      37.356 -24.934 -14.535  0.00  0.00    +0.021 C 
BRANCH   7   8
ATOM      8  C   UNL     1      38.280 -25.385 -13.388  0.00  0.00    +0.002 C 
ATOM      9  C   UNL     1      38.209 -24.376 -12.238  0.00  0.00    +0.000 C 
ATOM     10  C   UNL     1      39.732 -25.552 -13.837  0.00  0.00    +0.000 C 
ENDBRANCH   7   8
ENDBRANCH   6   7
ENDBRANCH   3   6
ENDBRANCH   1   4
BRANCH   1  12
ATOM     11  O   UNL     1      31.884 -24.555 -15.117  0.00  0.00    -0.272 OA
ATOM     12  N   UNL     1      32.442 -23.009 -16.757  0.00  0.00    -0.296 N 
ATOM     13  C   UNL     1      31.602 -23.581 -15.810  0.00  0.00    +0.250 C 
ATOM     14  H   UNL     1      32.120 -22.226 -17.261  0.00  0.00    +0.150 HD
BRANCH  13  15
ATOM     15  C   UNL     1      30.253 -22.876 -15.719  0.00  0.00    +0.198 C 
BRANCH  15  16
ATOM     16  O   UNL     1      30.018 -22.190 -16.940  0.00  0.00    -0.375 OA
ATOM     17  H   UNL     1      29.348 -22.666 -17.455  0.00  0.00    +0.211 HD
ENDBRANCH  15  16
BRANCH  15  18
ATOM     18  C   UNL     1      29.120 -23.870 -15.454  0.00  0.00    +0.148 C 
BRANCH  18  20
ATOM     19  O   UNL     1      27.806 -24.268 -17.468  0.00  0.00    -0.250 OA
ATOM     20  C   UNL     1      27.960 -23.680 -16.406  0.00  0.00    +0.317 C 
BRANCH  20  21
ATOM     21  O   UNL     1      27.077 -22.760 -15.934  0.00  0.00    -0.480 OA
ATOM     22  H   UNL     1      27.274 -21.847 -15.996  0.00  0.00    +0.295 HD
ENDBRANCH  20  21
ENDBRANCH  18  20
ENDBRANCH  15  18
ENDBRANCH  13  15
ENDBRANCH   1  12
BRANCH   1  23
ATOM     23  C   UNL     1      34.423 -22.782 -18.211  0.00  0.00    +0.034 C 
BRANCH  23  24
ATOM     24  C   UNL     1      33.434 -22.028 -19.111  0.00  0.00    +0.029 C 
BRANCH  24  25
ATOM     25  C   UNL     1      34.122 -20.932 -19.889  0.00  0.00    -0.022 C 
ATOM     26  C   UNL     1      35.515 -20.864 -19.912  0.00  0.00    -0.004 C 
ATOM     27  C   UNL     1      33.365 -19.990 -20.584  0.00  0.00    -0.004 C 
ATOM     28  C   UNL     1      36.151 -19.851 -20.632  0.00  0.00    -0.000 C 
ATOM     29  C   UNL     1      34.000 -18.978 -21.304  0.00  0.00    -0.000 C 
ATOM     30  C   UNL     1      35.393 -18.908 -21.328  0.00  0.00    -0.000 C 
ENDBRANCH  24  25
ENDBRANCH  23  24
ENDBRANCH   1  23
TORSDOF 13
ENDMDL
MODEL 5
REMARK VINA RESULT:      -9.0      2.137      5.779
REMARK  Name = 5289294
REMARK  13 active torsions:
REMARK  status: ('A' for Active; 'I' for Inactive)
REMARK    1  A    between atoms: C_1  and  C_4
REMARK    2  A    between atoms: C_1  and  N_12
REMARK    3  A    between atoms: C_1  and  C_23
REMARK    4  A    between atoms: N_3  and  C_6
REMARK    5  A    between atoms: C_6  and  C_7
REMARK    6  A    between atoms: C_7  and  C_8
REMARK    7  A    between atoms: C_13  and  C_15
REMARK    8  A    between atoms: C_15  and  O_16
REMARK    9  A    between atoms: C_15  and  C_18
REMARK   10  A    between atoms: C_18  and  C_20
REMARK   11  A    between atoms: C_20  and  O_21
REMARK   12  A    between atoms: C_23  and  C_24
REMARK   13  A    between atoms: C_24  and  C_25
REMARK                            x       y       z     vdW  Elec       q    Type
REMARK                         _______ _______ _______ _____ _____    ______ ____
ROOT
ATOM      1  C   UNL     1      33.540 -23.021 -16.184  0.00  0.00    +0.149 C 
ENDROOT
BRANCH   1   4
ATOM      2  O   UNL     1      32.593 -24.395 -14.426  0.00  0.00    -0.273 OA
ATOM      3  N   UNL     1      31.245 -22.808 -15.450  0.00  0.00    -0.303 N 
ATOM      4  C   UNL     1      32.435 -23.491 -15.244  0.00  0.00    +0.240 C 
ATOM      5  H   UNL     1      31.222 -22.097 -16.130  0.00  0.00    +0.149 HD
BRANCH   3   6
ATOM      6  C   UNL     1      30.040 -23.095 -14.708  0.00  0.00    +0.089 C 
BRANCH   6   7
ATOM      7  C   UNL     1      28.819 -22.380 -15.279  0.00  0.00    +0.021 C 
BRANCH   7   8
ATOM      8  C   UNL     1      28.439 -22.786 -16.716  0.00  0.00    +0.002 C 
ATOM      9  C   UNL     1      27.111 -22.131 -17.106  0.00  0.00    +0.000 C 
ATOM     10  C   UNL     1      28.334 -24.302 -16.887  0.00  0.00    +0.000 C 
ENDBRANCH   7   8
ENDBRANCH   6   7
ENDBRANCH   3   6
ENDBRANCH   1   4
BRANCH   1  12
ATOM     11  O   UNL     1      36.051 -22.070 -15.141  0.00  0.00    -0.272 OA
ATOM     12  N   UNL     1      34.724 -23.801 -15.937  0.00  0.00    -0.296 N 
ATOM     13  C   UNL     1      35.896 -23.253 -15.430  0.00  0.00    +0.250 C 
ATOM     14  H   UNL     1      34.702 -24.766 -16.135  0.00  0.00    +0.150 HD
BRANCH  13  15
ATOM     15  C   UNL     1      37.007 -24.285 -15.275  0.00  0.00    +0.198 C 
BRANCH  15  16
ATOM     16  O   UNL     1      38.045 -23.719 -14.489  0.00  0.00    -0.375 OA
ATOM     17  H   UNL     1      37.687 -22.992 -13.954  0.00  0.00    +0.211 HD
ENDBRANCH  15  16
BRANCH  15  18
ATOM     18  C   UNL     1      36.492 -25.566 -14.613  0.00  0.00    +0.148 C 
BRANCH  18  20
ATOM     19  O   UNL     1      36.645 -27.348 -16.269  0.00  0.00    -0.250 OA
ATOM     20  C   UNL     1      37.067 -26.810 -15.255  0.00  0.00    +0.317 C 
BRANCH  20  21
ATOM     21  O   UNL     1      38.139 -27.275 -14.561  0.00  0.00    -0.480 OA
ATOM     22  H   UNL     1      38.436 -28.154 -14.688  0.00  0.00    +0.295 HD
ENDBRANCH  20  21
ENDBRANCH  18  20
ENDBRANCH  15  18
ENDBRANCH  13  15
ENDBRANCH   1  12
BRANCH   1  23
ATOM     23  C   UNL     1      33.120 -23.060 -17.659  0.00  0.00    +0.034 C 
BRANCH  23  24
ATOM     24  C   UNL     1      34.291 -22.942 -18.645  0.00  0.00    +0.029 C 
BRANCH  24  25
ATOM     25  C   UNL     1      34.192 -21.683 -19.471  0.00  0.00    -0.022 C 
ATOM     26  C   UNL     1      35.350 -21.066 -19.942  0.00  0.00    -0.004 C 
ATOM     27  C   UNL     1      32.942 -21.137 -19.763  0.00  0.00    -0.004 C 
ATOM     28  C   UNL     1      35.258 -19.902 -20.707  0.00  0.00    -0.000 C 
ATOM     29  C   UNL     1      32.850 -19.974 -20.527  0.00  0.00    -0.000 C 
ATOM     30  C   UNL     1      34.008 -19.356 -20.999  0.00  0.00    -0.000 C 
ENDBRANCH  24  25
ENDBRANCH  23  24
ENDBRANCH   1  23
TORSDOF 13
ENDMDL
MODEL 6
REMARK VINA RESULT:      -8.9      2.056      5.592
REMARK  Name = 5289294
REMARK  13 active torsions:
REMARK  status: ('A' for Active; 'I' for Inactive)
REMARK    1  A    between atoms: C_1  and  C_4
REMARK    2  A    between atoms: C_1  and  N_12
REMARK    3  A    between atoms: C_1  and  C_23
REMARK    4  A    between atoms: N_3  and  C_6
REMARK    5  A    between atoms: C_6  and  C_7
REMARK    6  A    between atoms: C_7  and  C_8
REMARK    7  A    between atoms: C_13  and  C_15
REMARK    8  A    between atoms: C_15  and  O_16
REMARK    9  A    between atoms: C_15  and  C_18
REMARK   10  A    between atoms: C_18  and  C_20
REMARK   11  A    between atoms: C_20  and  O_21
REMARK   12  A    between atoms: C_23  and  C_24
REMARK   13  A    between atoms: C_24  and  C_25
REMARK                            x       y       z     vdW  Elec       q    Type
REMARK                         _______ _______ _______ _____ _____    ______ ____
ROOT
ATOM      1  C   UNL     1      34.843 -23.236 -15.551  0.00  0.00    +0.149 C 
ENDROOT
BRANCH   1   4
ATOM      2  O   UNL     1      33.622 -24.332 -13.766  0.00  0.00    -0.273 OA
ATOM      3  N   UNL     1      32.458 -22.974 -15.243  0.00  0.00    -0.303 N 
ATOM      4  C   UNL     1      33.599 -23.578 -14.737  0.00  0.00    +0.240 C 
ATOM      5  H   UNL     1      32.545 -22.384 -16.027  0.00  0.00    +0.149 HD
BRANCH   3   6
ATOM      6  C   UNL     1      31.147 -23.171 -14.669  0.00  0.00    +0.089 C 
BRANCH   6   7
ATOM      7  C   UNL     1      30.293 -24.140 -15.482  0.00  0.00    +0.021 C 
BRANCH   7   8
ATOM      8  C   UNL     1      28.799 -23.775 -15.570  0.00  0.00    +0.002 C 
ATOM      9  C   UNL     1      28.220 -24.279 -16.895  0.00  0.00    +0.000 C 
ATOM     10  C   UNL     1      28.555 -22.271 -15.442  0.00  0.00    +0.000 C 
ENDBRANCH   7   8
ENDBRANCH   6   7
ENDBRANCH   3   6
ENDBRANCH   1   4
BRANCH   1  12
ATOM     11  O   UNL     1      37.530 -22.703 -14.664  0.00  0.00    -0.272 OA
ATOM     12  N   UNL     1      35.867 -24.207 -15.265  0.00  0.00    -0.296 N 
ATOM     13  C   UNL     1      37.141 -23.854 -14.840  0.00  0.00    +0.250 C 
ATOM     14  H   UNL     1      35.654 -25.162 -15.375  0.00  0.00    +0.150 HD
BRANCH  13  15
ATOM     15  C   UNL     1      38.043 -25.064 -14.622  0.00  0.00    +0.198 C 
BRANCH  15  16
ATOM     16  O   UNL     1      39.306 -24.611 -14.161  0.00  0.00    -0.375 OA
ATOM     17  H   UNL     1      39.346 -23.643 -14.226  0.00  0.00    +0.211 HD
ENDBRANCH  15  16
BRANCH  15  18
ATOM     18  C   UNL     1      37.436 -26.037 -13.608  0.00  0.00    +0.148 C 
BRANCH  18  20
ATOM     19  O   UNL     1      37.836 -24.865 -11.507  0.00  0.00    -0.250 OA
ATOM     20  C   UNL     1      37.054 -25.348 -12.315  0.00  0.00    +0.317 C 
BRANCH  20  21
ATOM     21  O   UNL     1      35.706 -25.320 -12.149  0.00  0.00    -0.480 OA
ATOM     22  H   UNL     1      35.324 -24.760 -11.503  0.00  0.00    +0.295 HD
ENDBRANCH  20  21
ENDBRANCH  18  20
ENDBRANCH  15  18
ENDBRANCH  13  15
ENDBRANCH   1  12
BRANCH   1  23
ATOM     23  C   UNL     1      34.555 -23.125 -17.054  0.00  0.00    +0.034 C 
BRANCH  23  24
ATOM     24  C   UNL     1      35.642 -22.382 -17.843  0.00  0.00    +0.029 C 
BRANCH  24  25
ATOM     25  C   UNL     1      35.047 -21.564 -18.963  0.00  0.00    -0.022 C 
ATOM     26  C   UNL     1      35.881 -20.844 -19.819  0.00  0.00    -0.004 C 
ATOM     27  C   UNL     1      33.665 -21.528 -19.143  0.00  0.00    -0.004 C 
ATOM     28  C   UNL     1      35.332 -20.088 -20.856  0.00  0.00    -0.000 C 
ATOM     29  C   UNL     1      33.115 -20.773 -20.179  0.00  0.00    -0.000 C 
ATOM     30  C   UNL     1      33.948 -20.053 -21.035  0.00  0.00    -0.000 C 
ENDBRANCH  24  25
ENDBRANCH  23  24
ENDBRANCH   1  23
TORSDOF 13
ENDMDL
MODEL 7
REMARK VINA RESULT:      -8.8      3.705      7.114
REMARK  Name = 5289294
REMARK  13 active torsions:
REMARK  status: ('A' for Active; 'I' for Inactive)
REMARK    1  A    between atoms: C_1  and  C_4
REMARK    2  A    between atoms: C_1  and  N_12
REMARK    3  A    between atoms: C_1  and  C_23
REMARK    4  A    between atoms: N_3  and  C_6
REMARK    5  A    between atoms: C_6  and  C_7
REMARK    6  A    between atoms: C_7  and  C_8
REMARK    7  A    between atoms: C_13  and  C_15
REMARK    8  A    between atoms: C_15  and  O_16
REMARK    9  A    between atoms: C_15  and  C_18
REMARK   10  A    between atoms: C_18  and  C_20
REMARK   11  A    between atoms: C_20  and  O_21
REMARK   12  A    between atoms: C_23  and  C_24
REMARK   13  A    between atoms: C_24  and  C_25
REMARK                            x       y       z     vdW  Elec       q    Type
REMARK                         _______ _______ _______ _____ _____    ______ ____
ROOT
ATOM      1  C   UNL     1      33.404 -23.290 -15.822  0.00  0.00    +0.149 C 
ENDROOT
BRANCH   1   4
ATOM      2  O   UNL     1      35.383 -22.883 -17.161  0.00  0.00    -0.273 OA
ATOM      3  N   UNL     1      33.303 -22.776 -18.184  0.00  0.00    -0.303 N 
ATOM      4  C   UNL     1      34.159 -22.976 -17.109  0.00  0.00    +0.240 C 
ATOM      5  H   UNL     1      32.335 -22.875 -18.039  0.00  0.00    +0.149 HD
BRANCH   3   6
ATOM      6  C   UNL     1      33.774 -22.431 -19.505  0.00  0.00    +0.089 C 
BRANCH   6   7
ATOM      7  C   UNL     1      33.390 -21.010 -19.908  0.00  0.00    +0.021 C 
BRANCH   7   8
ATOM      8  C   UNL     1      34.568 -20.112 -20.334  0.00  0.00    +0.002 C 
ATOM      9  C   UNL     1      34.343 -19.605 -21.761  0.00  0.00    +0.000 C 
ATOM     10  C   UNL     1      35.913 -20.834 -20.251  0.00  0.00    +0.000 C 
ENDBRANCH   7   8
ENDBRANCH   6   7
ENDBRANCH   3   6
ENDBRANCH   1   4
BRANCH   1  12
ATOM     11  O   UNL     1      31.103 -22.756 -14.174  0.00  0.00    -0.272 OA
ATOM     12  N   UNL     1      32.028 -23.563 -16.145  0.00  0.00    -0.296 N 
ATOM     13  C   UNL     1      30.979 -23.269 -15.283  0.00  0.00    +0.250 C 
ATOM     14  H   UNL     1      31.821 -23.975 -17.016  0.00  0.00    +0.150 HD
BRANCH  13  15
ATOM     15  C   UNL     1      29.622 -23.670 -15.852  0.00  0.00    +0.198 C 
BRANCH  15  16
ATOM     16  O   UNL     1      29.154 -24.809 -15.145  0.00  0.00    -0.375 OA
ATOM     17  H   UNL     1      28.217 -24.689 -14.922  0.00  0.00    +0.211 HD
ENDBRANCH  15  16
BRANCH  15  18
ATOM     18  C   UNL     1      28.608 -22.530 -15.733  0.00  0.00    +0.148 C 
BRANCH  18  20
ATOM     19  O   UNL     1      27.080 -21.469 -17.309  0.00  0.00    -0.250 OA
ATOM     20  C   UNL     1      27.682 -22.464 -16.929  0.00  0.00    +0.317 C 
BRANCH  20  21
ATOM     21  O   UNL     1      27.597 -23.667 -17.556  0.00  0.00    -0.480 OA
ATOM     22  H   UNL     1      26.904 -24.259 -17.342  0.00  0.00    +0.295 HD
ENDBRANCH  20  21
ENDBRANCH  18  20
ENDBRANCH  15  18
ENDBRANCH  13  15
ENDBRANCH   1  12
BRANCH   1  23
ATOM     23  C   UNL     1      34.047 -24.429 -15.021  0.00  0.00    +0.034 C 
BRANCH  23  24
ATOM     24  C   UNL     1      34.751 -23.969 -13.737  0.00  0.00    +0.029 C 
BRANCH  24  25
ATOM     25  C   UNL     1      36.154 -24.517 -13.651  0.00  0.00    -0.022 C 
ATOM     26  C   UNL     1      36.947 -24.232 -12.539  0.00  0.00    -0.004 C 
ATOM     27  C   UNL     1      36.658 -25.309 -14.682  0.00  0.00    -0.004 C 
ATOM     28  C   UNL     1      38.245 -24.739 -12.459  0.00  0.00    -0.000 C 
ATOM     29  C   UNL     1      37.955 -25.816 -14.603  0.00  0.00    -0.000 C 
ATOM     30  C   UNL     1      38.748 -25.531 -13.492  0.00  0.00    -0.000 C 
ENDBRANCH  24  25
ENDBRANCH  23  24
ENDBRANCH   1  23
TORSDOF 13
ENDMDL
MODEL 8
REMARK VINA RESULT:      -8.7      8.990     13.472
REMARK  Name = 5289294
REMARK  13 active torsions:
REMARK  status: ('A' for Active; 'I' for Inactive)
REMARK    1  A    between atoms: C_1  and  C_4
REMARK    2  A    between atoms: C_1  and  N_12
REMARK    3  A    between atoms: C_1  and  C_23
REMARK    4  A    between atoms: N_3  and  C_6
REMARK    5  A    between atoms: C_6  and  C_7
REMARK    6  A    between atoms: C_7  and  C_8
REMARK    7  A    between atoms: C_13  and  C_15
REMARK    8  A    between atoms: C_15  and  O_16
REMARK    9  A    between atoms: C_15  and  C_18
REMARK   10  A    between atoms: C_18  and  C_20
REMARK   11  A    between atoms: C_20  and  O_21
REMARK   12  A    between atoms: C_23  and  C_24
REMARK   13  A    between atoms: C_24  and  C_25
REMARK                            x       y       z     vdW  Elec       q    Type
REMARK                         _______ _______ _______ _____ _____    ______ ____
ROOT
ATOM      1  C   UNL     1      33.512 -15.283 -23.767  0.00  0.00    +0.149 C 
ENDROOT
BRANCH   1   4
ATOM      2  O   UNL     1      32.843 -15.488 -21.446  0.00  0.00    -0.273 OA
ATOM      3  N   UNL     1      32.549 -13.451 -22.515  0.00  0.00    -0.303 N 
ATOM      4  C   UNL     1      32.950 -14.777 -22.442  0.00  0.00    +0.240 C 
ATOM      5  H   UNL     1      32.678 -12.965 -23.362  0.00  0.00    +0.149 HD
BRANCH   3   6
ATOM      6  C   UNL     1      31.951 -12.752 -21.401  0.00  0.00    +0.089 C 
BRANCH   6   7
ATOM      7  C   UNL     1      31.644 -11.292 -21.725  0.00  0.00    +0.021 C 
BRANCH   7   8
ATOM      8  C   UNL     1      31.272 -10.419 -20.511  0.00  0.00    +0.002 C 
ATOM      9  C   UNL     1      32.076  -9.117 -20.544  0.00  0.00    +0.000 C 
ATOM     10  C   UNL     1      31.508 -11.136 -19.181  0.00  0.00    +0.000 C 
ENDBRANCH   7   8
ENDBRANCH   6   7
ENDBRANCH   3   6
ENDBRANCH   1   4
BRANCH   1  12
ATOM     11  O   UNL     1      33.236 -15.472 -26.627  0.00  0.00    -0.272 OA
ATOM     12  N   UNL     1      33.529 -14.195 -24.710  0.00  0.00    -0.296 N 
ATOM     13  C   UNL     1      33.388 -14.383 -26.079  0.00  0.00    +0.250 C 
ATOM     14  H   UNL     1      33.645 -13.278 -24.369  0.00  0.00    +0.150 HD
BRANCH  13  15
ATOM     15  C   UNL     1      33.457 -13.076 -26.861  0.00  0.00    +0.198 C 
BRANCH  15  16
ATOM     16  O   UNL     1      32.498 -13.122 -27.906  0.00  0.00    -0.375 OA
ATOM     17  H   UNL     1      31.997 -13.952 -27.850  0.00  0.00    +0.211 HD
ENDBRANCH  15  16
BRANCH  15  18
ATOM     18  C   UNL     1      33.187 -11.870 -25.957  0.00  0.00    +0.148 C 
BRANCH  18  20
ATOM     19  O   UNL     1      35.316 -10.688 -26.059  0.00  0.00    -0.250 OA
ATOM     20  C   UNL     1      34.463 -11.273 -25.406  0.00  0.00    +0.317 C 
BRANCH  20  21
ATOM     21  O   UNL     1      34.557 -11.459 -24.063  0.00  0.00    -0.480 OA
ATOM     22  H   UNL     1      33.818 -11.289 -23.513  0.00  0.00    +0.295 HD
ENDBRANCH  20  21
ENDBRANCH  18  20
ENDBRANCH  15  18
ENDBRANCH  13  15
ENDBRANCH   1  12
BRANCH   1  23
ATOM     23  C   UNL     1      34.891 -15.937 -23.614  0.00  0.00    +0.034 C 
BRANCH  23  24
ATOM     24  C   UNL     1      34.920 -17.426 -23.987  0.00  0.00    +0.029 C 
BRANCH  24  25
ATOM     25  C   UNL     1      35.133 -18.295 -22.771  0.00  0.00    -0.022 C 
ATOM     26  C   UNL     1      34.086 -19.075 -22.281  0.00  0.00    -0.004 C 
ATOM     27  C   UNL     1      36.376 -18.318 -22.140  0.00  0.00    -0.004 C 
ATOM     28  C   UNL     1      34.283 -19.879 -21.157  0.00  0.00    -0.000 C 
ATOM     29  C   UNL     1      36.573 -19.121 -21.017  0.00  0.00    -0.000 C 
ATOM     30  C   UNL     1      35.527 -19.902 -20.525  0.00  0.00    -0.000 C 
ENDBRANCH  24  25
ENDBRANCH  23  24
ENDBRANCH   1  23
TORSDOF 13
ENDMDL
MODEL 9
REMARK VINA RESULT:      -8.7      7.986     12.872
REMARK  Name = 5289294
REMARK  13 active torsions:
REMARK  status: ('A' for Active; 'I' for Inactive)
REMARK    1  A    between atoms: C_1  and  C_4
REMARK    2  A    between atoms: C_1  and  N_12
REMARK    3  A    between atoms: C_1  and  C_23
REMARK    4  A    between atoms: N_3  and  C_6
REMARK    5  A    between atoms: C_6  and  C_7
REMARK    6  A    between atoms: C_7  and  C_8
REMARK    7  A    between atoms: C_13  and  C_15
REMARK    8  A    between atoms: C_15  and  O_16
REMARK    9  A    between atoms: C_15  and  C_18
REMARK   10  A    between atoms: C_18  and  C_20
REMARK   11  A    between atoms: C_20  and  O_21
REMARK   12  A    between atoms: C_23  and  C_24
REMARK   13  A    between atoms: C_24  and  C_25
REMARK                            x       y       z     vdW  Elec       q    Type
REMARK                         _______ _______ _______ _____ _____    ______ ____
ROOT
ATOM      1  C   UNL     1      33.937 -15.265 -21.927  0.00  0.00    +0.149 C 
ENDROOT
BRANCH   1   4
ATOM      2  O   UNL     1      35.131 -16.180 -20.027  0.00  0.00    -0.273 OA
ATOM      3  N   UNL     1      35.096 -17.386 -22.008  0.00  0.00    -0.303 N 
ATOM      4  C   UNL     1      34.771 -16.311 -21.194  0.00  0.00    +0.240 C 
ATOM      5  H   UNL     1      34.757 -17.398 -22.933  0.00  0.00    +0.149 HD
BRANCH   3   6
ATOM      6  C   UNL     1      35.910 -18.491 -21.557  0.00  0.00    +0.089 C 
BRANCH   6   7
ATOM      7  C   UNL     1      35.153 -19.816 -21.568  0.00  0.00    +0.021 C 
BRANCH   7   8
ATOM      8  C   UNL     1      34.243 -20.058 -20.348  0.00  0.00    +0.002 C 
ATOM      9  C   UNL     1      34.614 -21.384 -19.680  0.00  0.00    +0.000 C 
ATOM     10  C   UNL     1      32.759 -20.064 -20.717  0.00  0.00    +0.000 C 
ENDBRANCH   7   8
ENDBRANCH   6   7
ENDBRANCH   3   6
ENDBRANCH   1   4
BRANCH   1  12
ATOM     11  O   UNL     1      34.052 -13.445 -24.157  0.00  0.00    -0.272 OA
ATOM     12  N   UNL     1      33.887 -15.607 -23.325  0.00  0.00    -0.296 N 
ATOM     13  C   UNL     1      33.949 -14.656 -24.336  0.00  0.00    +0.250 C 
ATOM     14  H   UNL     1      33.805 -16.556 -23.575  0.00  0.00    +0.150 HD
BRANCH  13  15
ATOM     15  C   UNL     1      33.859 -15.272 -25.727  0.00  0.00    +0.198 C 
BRANCH  15  16
ATOM     16  O   UNL     1      33.731 -16.680 -25.592  0.00  0.00    -0.375 OA
ATOM     17  H   UNL     1      33.157 -16.881 -24.836  0.00  0.00    +0.211 HD
ENDBRANCH  15  16
BRANCH  15  18
ATOM     18  C   UNL     1      32.669 -14.713 -26.510  0.00  0.00    +0.148 C 
BRANCH  18  20
ATOM     19  O   UNL     1      34.218 -13.393 -27.851  0.00  0.00    -0.250 OA
ATOM     20  C   UNL     1      33.079 -13.612 -27.463  0.00  0.00    +0.317 C 
BRANCH  20  21
ATOM     21  O   UNL     1      32.008 -12.874 -27.857  0.00  0.00    -0.480 OA
ATOM     22  H   UNL     1      32.126 -11.990 -28.144  0.00  0.00    +0.295 HD
ENDBRANCH  20  21
ENDBRANCH  18  20
ENDBRANCH  15  18
ENDBRANCH  13  15
ENDBRANCH   1  12
BRANCH   1  23
ATOM     23  C   UNL     1      32.537 -15.094 -21.324  0.00  0.00    +0.034 C 
BRANCH  23  24
ATOM     24  C   UNL     1      32.486 -14.126 -20.133  0.00  0.00    +0.029 C 
BRANCH  24  25
ATOM     25  C   UNL     1      32.049 -12.747 -20.562  0.00  0.00    -0.022 C 
ATOM     26  C   UNL     1      31.784 -11.770 -19.602  0.00  0.00    -0.004 C 
ATOM     27  C   UNL     1      31.912 -12.448 -21.917  0.00  0.00    -0.004 C 
ATOM     28  C   UNL     1      31.381 -10.494 -19.998  0.00  0.00    -0.000 C 
ATOM     29  C   UNL     1      31.510 -11.174 -22.314  0.00  0.00    -0.000 C 
ATOM     30  C   UNL     1      31.244 -10.196 -21.355  0.00  0.00    -0.000 C 
ENDBRANCH  24  25
ENDBRANCH  23  24
ENDBRANCH   1  23
TORSDOF 13
ENDMDL
