MODEL 1
REMARK VINA RESULT:      -9.8      0.000      0.000
REMARK  Name = 24901723
REMARK  5 active torsions:
REMARK  status: ('A' for Active; 'I' for Inactive)
REMARK    1  A    between atoms: N_3  and  C_18
REMARK    2  A    between atoms: C_4  and  C_11
REMARK    3  A    between atoms: N_9  and  C_15
REMARK    4  A    between atoms: C_19  and  S_24
REMARK    5  A    between atoms: S_24  and  N_27
REMARK                            x       y       z     vdW  Elec       q    Type
REMARK                         _______ _______ _______ _____ _____    ______ ____
ROOT
ATOM      1  N   UNL     1      34.545 -23.800 -14.306  0.00  0.00    -0.336 NA
ATOM      2  N   UNL     1      34.854 -24.818 -12.145  0.00  0.00    -0.170 NA
ATOM      3  N   UNL     1      32.716 -24.592 -13.075  0.00  0.00    -0.247 N 
ATOM      4  C   UNL     1      35.881 -23.626 -14.374  0.00  0.00    +0.161 C 
ATOM      5  C   UNL     1      36.757 -24.015 -13.381  0.00  0.00    +0.056 C 
ATOM      6  C   UNL     1      34.107 -24.394 -13.180  0.00  0.00    +0.149 C 
ATOM      7  C   UNL     1      36.181 -24.613 -12.279  0.00  0.00    +0.114 C 
ATOM      8  H   UNL     1      32.441 -25.029 -12.237  0.00  0.00    +0.165 HD
ENDROOT
BRANCH   4  11
ATOM      9  N   UNL     1      35.544 -22.634 -16.626  0.00  0.00    -0.274 N 
ATOM     10  N   UNL     1      37.602 -22.034 -17.205  0.00  0.00    -0.232 NA
ATOM     11  C   UNL     1      36.347 -22.992 -15.579  0.00  0.00    +0.103 C 
ATOM     12  C   UNL     1      36.342 -22.063 -17.578  0.00  0.00    +0.113 C 
ATOM     13  C   UNL     1      37.612 -22.613 -15.960  0.00  0.00    +0.117 C 
ATOM     14  C   UNL     1      35.805 -21.554 -18.857  0.00  0.00    +0.069 C 
BRANCH   9  15
ATOM     15  C   UNL     1      34.110 -22.821 -16.716  0.00  0.00    +0.078 C 
ATOM     16  C   UNL     1      33.396 -22.737 -18.033  0.00  0.00    +0.022 C 
ATOM     17  C   UNL     1      33.524 -24.058 -17.331  0.00  0.00    +0.022 C 
ENDBRANCH   9  15
ENDBRANCH   4  11
BRANCH   3  18
ATOM     18  C   UNL     1      31.640 -24.289 -13.935  0.00  0.00    +0.058 C 
ATOM     19  C   UNL     1      29.512 -23.690 -15.637  0.00  0.00    +0.122 C 
ATOM     20  C   UNL     1      31.337 -22.960 -14.232  0.00  0.00    +0.017 C 
ATOM     21  C   UNL     1      30.879 -25.318 -14.488  0.00  0.00    +0.017 C 
ATOM     22  C   UNL     1      30.274 -22.660 -15.083  0.00  0.00    +0.021 C 
ATOM     23  C   UNL     1      29.814 -25.019 -15.339  0.00  0.00    +0.021 C 
BRANCH  19  24
ATOM     24  S   UNL     1      28.182 -23.315 -16.703  0.00  0.00    +0.060 S 
ATOM     25  O   UNL     1      28.553 -22.179 -17.536  0.00  0.00    -0.153 OA
ATOM     26  O   UNL     1      27.757 -24.556 -17.338  0.00  0.00    -0.153 OA
BRANCH  24  27
ATOM     27  N   UNL     1      26.964 -22.818 -15.611  0.00  0.00    -0.178 NA
ATOM     28  C   UNL     1      25.995 -21.788 -16.015  0.00  0.00    +0.110 C 
ATOM     29  H   UNL     1      27.438 -22.468 -14.780  0.00  0.00    +0.149 HD
ENDBRANCH  24  27
ENDBRANCH  19  24
ENDBRANCH   3  18
TORSDOF 5
ENDMDL
MODEL 2
REMARK VINA RESULT:      -9.8      4.527      6.965
REMARK  Name = 24901723
REMARK  5 active torsions:
REMARK  status: ('A' for Active; 'I' for Inactive)
REMARK    1  A    between atoms: N_3  and  C_18
REMARK    2  A    between atoms: C_4  and  C_11
REMARK    3  A    between atoms: N_9  and  C_15
REMARK    4  A    between atoms: C_19  and  S_24
REMARK    5  A    between atoms: S_24  and  N_27
REMARK                            x       y       z     vdW  Elec       q    Type
REMARK                         _______ _______ _______ _____ _____    ______ ____
ROOT
ATOM      1  N   UNL     1      34.447 -22.742 -17.201  0.00  0.00    -0.336 NA
ATOM      2  N   UNL     1      32.163 -23.413 -16.826  0.00  0.00    -0.170 NA
ATOM      3  N   UNL     1      32.723 -21.988 -18.599  0.00  0.00    -0.247 N 
ATOM      4  C   UNL     1      34.801 -23.483 -16.132  0.00  0.00    +0.161 C 
ATOM      5  C   UNL     1      33.907 -24.206 -15.368  0.00  0.00    +0.056 C 
ATOM      6  C   UNL     1      33.131 -22.752 -17.488  0.00  0.00    +0.149 C 
ATOM      7  C   UNL     1      32.588 -24.133 -15.767  0.00  0.00    +0.114 C 
ATOM      8  H   UNL     1      31.755 -22.025 -18.770  0.00  0.00    +0.165 HD
ENDROOT
BRANCH   4  11
ATOM      9  N   UNL     1      36.877 -24.492 -15.213  0.00  0.00    -0.274 N 
ATOM     10  N   UNL     1      38.395 -22.919 -15.606  0.00  0.00    -0.232 NA
ATOM     11  C   UNL     1      36.208 -23.471 -15.829  0.00  0.00    +0.103 C 
ATOM     12  C   UNL     1      38.186 -24.114 -15.100  0.00  0.00    +0.113 C 
ATOM     13  C   UNL     1      37.165 -22.512 -16.061  0.00  0.00    +0.117 C 
ATOM     14  C   UNL     1      39.207 -24.982 -14.477  0.00  0.00    +0.069 C 
BRANCH   9  15
ATOM     15  C   UNL     1      36.309 -25.745 -14.760  0.00  0.00    +0.078 C 
ATOM     16  C   UNL     1      36.479 -27.008 -15.553  0.00  0.00    +0.022 C 
ATOM     17  C   UNL     1      37.178 -26.850 -14.235  0.00  0.00    +0.022 C 
ENDBRANCH   9  15
ENDBRANCH   4  11
BRANCH   3  18
ATOM     18  C   UNL     1      33.431 -21.182 -19.515  0.00  0.00    +0.058 C 
ATOM     19  C   UNL     1      34.831 -19.587 -21.325  0.00  0.00    +0.122 C 
ATOM     20  C   UNL     1      32.754 -20.221 -20.266  0.00  0.00    +0.017 C 
ATOM     21  C   UNL     1      34.807 -21.345 -19.668  0.00  0.00    +0.017 C 
ATOM     22  C   UNL     1      33.454 -19.424 -21.171  0.00  0.00    +0.021 C 
ATOM     23  C   UNL     1      35.508 -20.548 -20.574  0.00  0.00    +0.021 C 
BRANCH  19  24
ATOM     24  S   UNL     1      35.708 -18.588 -22.457  0.00  0.00    +0.060 S 
ATOM     25  O   UNL     1      37.117 -18.582 -22.085  0.00  0.00    -0.153 OA
ATOM     26  O   UNL     1      35.328 -19.001 -23.802  0.00  0.00    -0.153 OA
BRANCH  24  27
ATOM     27  N   UNL     1      35.057 -17.036 -22.160  0.00  0.00    -0.178 NA
ATOM     28  C   UNL     1      34.897 -16.085 -23.270  0.00  0.00    +0.110 C 
ATOM     29  H   UNL     1      35.664 -16.589 -21.473  0.00  0.00    +0.149 HD
ENDBRANCH  24  27
ENDBRANCH  19  24
ENDBRANCH   3  18
TORSDOF 5
ENDMDL
MODEL 3
REMARK VINA RESULT:      -9.5      4.365      7.027
REMARK  Name = 24901723
REMARK  5 active torsions:
REMARK  status: ('A' for Active; 'I' for Inactive)
REMARK    1  A    between atoms: N_3  and  C_18
REMARK    2  A    between atoms: C_4  and  C_11
REMARK    3  A    between atoms: N_9  and  C_15
REMARK    4  A    between atoms: C_19  and  S_24
REMARK    5  A    between atoms: S_24  and  N_27
REMARK                            x       y       z     vdW  Elec       q    Type
REMARK                         _______ _______ _______ _____ _____    ______ ____
ROOT
ATOM      1  N   UNL     1      34.199 -22.729 -17.052  0.00  0.00    -0.336 NA
ATOM      2  N   UNL     1      31.892 -23.402 -16.872  0.00  0.00    -0.170 NA
ATOM      3  N   UNL     1      32.604 -21.993 -18.603  0.00  0.00    -0.247 N 
ATOM      4  C   UNL     1      34.459 -23.459 -15.948  0.00  0.00    +0.161 C 
ATOM      5  C   UNL     1      33.502 -24.176 -15.259  0.00  0.00    +0.056 C 
ATOM      6  C   UNL     1      32.913 -22.745 -17.453  0.00  0.00    +0.149 C 
ATOM      7  C   UNL     1      32.223 -24.111 -15.773  0.00  0.00    +0.114 C 
ATOM      8  H   UNL     1      31.654 -22.034 -18.859  0.00  0.00    +0.165 HD
ENDROOT
BRANCH   4  11
ATOM      9  N   UNL     1      36.292 -23.987 -14.357  0.00  0.00    -0.274 N 
ATOM     10  N   UNL     1      38.072 -23.123 -15.364  0.00  0.00    -0.232 NA
ATOM     11  C   UNL     1      35.834 -23.440 -15.523  0.00  0.00    +0.103 C 
ATOM     12  C   UNL     1      37.641 -23.771 -14.305  0.00  0.00    +0.113 C 
ATOM     13  C   UNL     1      36.950 -22.912 -16.127  0.00  0.00    +0.117 C 
ATOM     14  C   UNL     1      38.471 -24.233 -13.174  0.00  0.00    +0.069 C 
BRANCH   9  15
ATOM     15  C   UNL     1      35.499 -24.671 -13.356  0.00  0.00    +0.078 C 
ATOM     16  C   UNL     1      36.054 -24.969 -11.994  0.00  0.00    +0.022 C 
ATOM     17  C   UNL     1      34.967 -23.946 -12.155  0.00  0.00    +0.022 C 
ENDBRANCH   9  15
ENDBRANCH   4  11
BRANCH   3  18
ATOM     18  C   UNL     1      33.388 -21.195 -19.462  0.00  0.00    +0.058 C 
ATOM     19  C   UNL     1      34.937 -19.616 -21.162  0.00  0.00    +0.122 C 
ATOM     20  C   UNL     1      34.765 -21.403 -19.545  0.00  0.00    +0.017 C 
ATOM     21  C   UNL     1      32.786 -20.198 -20.229  0.00  0.00    +0.017 C 
ATOM     22  C   UNL     1      35.539 -20.613 -20.394  0.00  0.00    +0.021 C 
ATOM     23  C   UNL     1      33.560 -19.408 -21.079  0.00  0.00    +0.021 C 
BRANCH  19  24
ATOM     24  S   UNL     1      35.906 -18.628 -22.226  0.00  0.00    +0.060 S 
ATOM     25  O   UNL     1      37.302 -18.729 -21.820  0.00  0.00    -0.153 OA
ATOM     26  O   UNL     1      35.538 -18.957 -23.596  0.00  0.00    -0.153 OA
BRANCH  24  27
ATOM     27  N   UNL     1      35.348 -17.051 -21.876  0.00  0.00    -0.178 NA
ATOM     28  C   UNL     1      34.898 -16.175 -22.968  0.00  0.00    +0.110 C 
ATOM     29  H   UNL     1      36.110 -16.567 -21.403  0.00  0.00    +0.149 HD
ENDBRANCH  24  27
ENDBRANCH  19  24
ENDBRANCH   3  18
TORSDOF 5
ENDMDL
MODEL 4
REMARK VINA RESULT:      -9.1      9.625     12.908
REMARK  Name = 24901723
REMARK  5 active torsions:
REMARK  status: ('A' for Active; 'I' for Inactive)
REMARK    1  A    between atoms: N_3  and  C_18
REMARK    2  A    between atoms: C_4  and  C_11
REMARK    3  A    between atoms: N_9  and  C_15
REMARK    4  A    between atoms: C_19  and  S_24
REMARK    5  A    between atoms: S_24  and  N_27
REMARK                            x       y       z     vdW  Elec       q    Type
REMARK                         _______ _______ _______ _____ _____    ______ ____
ROOT
ATOM      1  N   UNL     1      33.560 -14.907 -24.336  0.00  0.00    -0.336 NA
ATOM      2  N   UNL     1      33.821 -15.035 -26.728  0.00  0.00    -0.170 NA
ATOM      3  N   UNL     1      34.519 -16.792 -25.345  0.00  0.00    -0.247 N 
ATOM      4  C   UNL     1      33.008 -13.687 -24.499  0.00  0.00    +0.161 C 
ATOM      5  C   UNL     1      32.832 -13.082 -25.727  0.00  0.00    +0.056 C 
ATOM      6  C   UNL     1      33.938 -15.516 -25.477  0.00  0.00    +0.149 C 
ATOM      7  C   UNL     1      33.261 -13.811 -26.818  0.00  0.00    +0.114 C 
ATOM      8  H   UNL     1      34.780 -17.199 -26.203  0.00  0.00    +0.165 HD
ENDROOT
BRANCH   4  11
ATOM      9  N   UNL     1      32.614 -11.688 -23.079  0.00  0.00    -0.274 N 
ATOM     10  N   UNL     1      31.872 -12.577 -21.184  0.00  0.00    -0.232 NA
ATOM     11  C   UNL     1      32.605 -13.040 -23.279  0.00  0.00    +0.103 C 
ATOM     12  C   UNL     1      32.167 -11.458 -21.808  0.00  0.00    +0.113 C 
ATOM     13  C   UNL     1      32.144 -13.567 -22.096  0.00  0.00    +0.117 C 
ATOM     14  C   UNL     1      32.046 -10.096 -21.248  0.00  0.00    +0.069 C 
BRANCH   9  15
ATOM     15  C   UNL     1      33.022 -10.679 -24.035  0.00  0.00    +0.078 C 
ATOM     16  C   UNL     1      33.648  -9.390 -23.587  0.00  0.00    +0.022 C 
ATOM     17  C   UNL     1      34.473 -10.411 -24.314  0.00  0.00    +0.022 C 
ENDBRANCH   9  15
ENDBRANCH   4  11
BRANCH   3  18
ATOM     18  C   UNL     1      34.800 -17.603 -24.225  0.00  0.00    +0.058 C 
ATOM     19  C   UNL     1      35.354 -19.208 -22.012  0.00  0.00    +0.122 C 
ATOM     20  C   UNL     1      35.325 -17.033 -23.065  0.00  0.00    +0.017 C 
ATOM     21  C   UNL     1      34.553 -18.974 -24.279  0.00  0.00    +0.017 C 
ATOM     22  C   UNL     1      35.601 -17.836 -21.958  0.00  0.00    +0.021 C 
ATOM     23  C   UNL     1      34.830 -19.777 -23.172  0.00  0.00    +0.021 C 
BRANCH  19  24
ATOM     24  S   UNL     1      35.700 -20.212 -20.626  0.00  0.00    +0.060 S 
ATOM     25  O   UNL     1      36.038 -21.552 -21.089  0.00  0.00    -0.153 OA
ATOM     26  O   UNL     1      36.641 -19.492 -19.779  0.00  0.00    -0.153 OA
BRANCH  24  27
ATOM     27  N   UNL     1      34.188 -20.275 -19.831  0.00  0.00    -0.178 NA
ATOM     28  C   UNL     1      33.616 -21.574 -19.448  0.00  0.00    +0.110 C 
ATOM     29  H   UNL     1      33.512 -19.824 -20.446  0.00  0.00    +0.149 HD
ENDBRANCH  24  27
ENDBRANCH  19  24
ENDBRANCH   3  18
TORSDOF 5
ENDMDL
MODEL 5
REMARK VINA RESULT:      -8.7     10.019     12.766
REMARK  Name = 24901723
REMARK  5 active torsions:
REMARK  status: ('A' for Active; 'I' for Inactive)
REMARK    1  A    between atoms: N_3  and  C_18
REMARK    2  A    between atoms: C_4  and  C_11
REMARK    3  A    between atoms: N_9  and  C_15
REMARK    4  A    between atoms: C_19  and  S_24
REMARK    5  A    between atoms: S_24  and  N_27
REMARK                            x       y       z     vdW  Elec       q    Type
REMARK                         _______ _______ _______ _____ _____    ______ ____
ROOT
ATOM      1  N   UNL     1      32.873 -12.679 -22.258  0.00  0.00    -0.336 NA
ATOM      2  N   UNL     1      31.458 -11.749 -20.544  0.00  0.00    -0.170 NA
ATOM      3  N   UNL     1      32.302 -13.926 -20.359  0.00  0.00    -0.247 N 
ATOM      4  C   UNL     1      32.759 -11.515 -22.931  0.00  0.00    +0.161 C 
ATOM      5  C   UNL     1      32.022 -10.438 -22.482  0.00  0.00    +0.056 C 
ATOM      6  C   UNL     1      32.206 -12.726 -21.089  0.00  0.00    +0.149 C 
ATOM      7  C   UNL     1      31.387 -10.614 -21.269  0.00  0.00    +0.114 C 
ATOM      8  H   UNL     1      31.801 -13.916 -19.512  0.00  0.00    +0.165 HD
ENDROOT
BRANCH   4  11
ATOM      9  N   UNL     1      33.449 -12.456 -25.124  0.00  0.00    -0.274 N 
ATOM     10  N   UNL     1      34.770 -10.869 -25.939  0.00  0.00    -0.232 NA
ATOM     11  C   UNL     1      33.473 -11.468 -24.180  0.00  0.00    +0.103 C 
ATOM     12  C   UNL     1      34.243 -12.052 -26.161  0.00  0.00    +0.113 C 
ATOM     13  C   UNL     1      34.295 -10.499 -24.705  0.00  0.00    +0.117 C 
ATOM     14  C   UNL     1      34.450 -12.881 -27.366  0.00  0.00    +0.069 C 
BRANCH   9  15
ATOM     15  C   UNL     1      32.719 -13.705 -25.045  0.00  0.00    +0.078 C 
ATOM     16  C   UNL     1      33.019 -14.842 -25.979  0.00  0.00    +0.022 C 
ATOM     17  C   UNL     1      33.367 -14.955 -24.523  0.00  0.00    +0.022 C 
ENDBRANCH   9  15
ENDBRANCH   4  11
BRANCH   3  18
ATOM     18  C   UNL     1      32.978 -15.141 -20.601  0.00  0.00    +0.058 C 
ATOM     19  C   UNL     1      34.313 -17.543 -21.079  0.00  0.00    +0.122 C 
ATOM     20  C   UNL     1      34.372 -15.168 -20.639  0.00  0.00    +0.017 C 
ATOM     21  C   UNL     1      32.252 -16.314 -20.801  0.00  0.00    +0.017 C 
ATOM     22  C   UNL     1      35.039 -16.369 -20.877  0.00  0.00    +0.021 C 
ATOM     23  C   UNL     1      32.919 -17.516 -21.041  0.00  0.00    +0.021 C 
BRANCH  19  24
ATOM     24  S   UNL     1      35.148 -19.047 -21.376  0.00  0.00    +0.060 S 
ATOM     25  O   UNL     1      36.583 -18.819 -21.256  0.00  0.00    -0.153 OA
ATOM     26  O   UNL     1      34.519 -20.075 -20.558  0.00  0.00    -0.153 OA
BRANCH  24  27
ATOM     27  N   UNL     1      34.780 -19.355 -23.017  0.00  0.00    -0.178 NA
ATOM     28  C   UNL     1      35.037 -18.322 -24.031  0.00  0.00    +0.110 C 
ATOM     29  H   UNL     1      33.784 -19.570 -23.060  0.00  0.00    +0.149 HD
ENDBRANCH  24  27
ENDBRANCH  19  24
ENDBRANCH   3  18
TORSDOF 5
ENDMDL
MODEL 6
REMARK VINA RESULT:      -8.7     11.956     14.787
REMARK  Name = 24901723
REMARK  5 active torsions:
REMARK  status: ('A' for Active; 'I' for Inactive)
REMARK    1  A    between atoms: N_3  and  C_18
REMARK    2  A    between atoms: C_4  and  C_11
REMARK    3  A    between atoms: N_9  and  C_15
REMARK    4  A    between atoms: C_19  and  S_24
REMARK    5  A    between atoms: S_24  and  N_27
REMARK                            x       y       z     vdW  Elec       q    Type
REMARK                         _______ _______ _______ _____ _____    ______ ____
ROOT
ATOM      1  N   UNL     1      33.327 -12.949 -24.060  0.00  0.00    -0.336 NA
ATOM      2  N   UNL     1      33.516 -12.659 -26.445  0.00  0.00    -0.170 NA
ATOM      3  N   UNL     1      33.234 -10.816 -25.027  0.00  0.00    -0.247 N 
ATOM      4  C   UNL     1      33.457 -14.278 -24.250  0.00  0.00    +0.161 C 
ATOM      5  C   UNL     1      33.616 -14.865 -25.488  0.00  0.00    +0.056 C 
ATOM      6  C   UNL     1      33.366 -12.209 -25.185  0.00  0.00    +0.149 C 
ATOM      7  C   UNL     1      33.639 -13.997 -26.561  0.00  0.00    +0.114 C 
ATOM      8  H   UNL     1      33.268 -10.316 -25.874  0.00  0.00    +0.165 HD
ENDROOT
BRANCH   4  11
ATOM      9  N   UNL     1      34.136 -16.209 -22.842  0.00  0.00    -0.274 N 
ATOM     10  N   UNL     1      32.969 -15.887 -20.981  0.00  0.00    -0.232 NA
ATOM     11  C   UNL     1      33.416 -15.065 -23.045  0.00  0.00    +0.103 C 
ATOM     12  C   UNL     1      33.834 -16.667 -21.590  0.00  0.00    +0.113 C 
ATOM     13  C   UNL     1      32.703 -14.887 -21.883  0.00  0.00    +0.117 C 
ATOM     14  C   UNL     1      34.437 -17.895 -21.032  0.00  0.00    +0.069 C 
BRANCH   9  15
ATOM     15  C   UNL     1      35.052 -16.828 -23.779  0.00  0.00    +0.078 C 
ATOM     16  C   UNL     1      35.464 -18.263 -23.630  0.00  0.00    +0.022 C 
ATOM     17  C   UNL     1      34.579 -17.852 -24.770  0.00  0.00    +0.022 C 
ENDBRANCH   9  15
ENDBRANCH   4  11
BRANCH   3  18
ATOM     18  C   UNL     1      33.064  -9.995 -23.892  0.00  0.00    +0.058 C 
ATOM     19  C   UNL     1      32.726  -8.373 -21.648  0.00  0.00    +0.122 C 
ATOM     20  C   UNL     1      33.908  -8.904 -23.688  0.00  0.00    +0.017 C 
ATOM     21  C   UNL     1      32.052 -10.276 -22.975  0.00  0.00    +0.017 C 
ATOM     22  C   UNL     1      33.739  -8.092 -22.566  0.00  0.00    +0.021 C 
ATOM     23  C   UNL     1      31.883  -9.465 -21.852  0.00  0.00    +0.021 C 
BRANCH  19  24
ATOM     24  S   UNL     1      32.514  -7.357 -20.244  0.00  0.00    +0.060 S 
ATOM     25  O   UNL     1      31.488  -7.942 -19.391  0.00  0.00    -0.153 OA
ATOM     26  O   UNL     1      33.833  -7.085 -19.689  0.00  0.00    -0.153 OA
BRANCH  24  27
ATOM     27  N   UNL     1      31.901  -5.913 -20.924  0.00  0.00    -0.178 NA
ATOM     28  C   UNL     1      30.882  -5.978 -21.983  0.00  0.00    +0.110 C 
ATOM     29  H   UNL     1      32.697  -5.408 -21.310  0.00  0.00    +0.149 HD
ENDBRANCH  24  27
ENDBRANCH  19  24
ENDBRANCH   3  18
TORSDOF 5
ENDMDL
MODEL 7
REMARK VINA RESULT:      -8.5      4.080      7.290
REMARK  Name = 24901723
REMARK  5 active torsions:
REMARK  status: ('A' for Active; 'I' for Inactive)
REMARK    1  A    between atoms: N_3  and  C_18
REMARK    2  A    between atoms: C_4  and  C_11
REMARK    3  A    between atoms: N_9  and  C_15
REMARK    4  A    between atoms: C_19  and  S_24
REMARK    5  A    between atoms: S_24  and  N_27
REMARK                            x       y       z     vdW  Elec       q    Type
REMARK                         _______ _______ _______ _____ _____    ______ ____
ROOT
ATOM      1  N   UNL     1      34.406 -22.599 -17.054  0.00  0.00    -0.336 NA
ATOM      2  N   UNL     1      36.406 -23.468 -16.029  0.00  0.00    -0.170 NA
ATOM      3  N   UNL     1      36.524 -22.060 -17.898  0.00  0.00    -0.247 N 
ATOM      4  C   UNL     1      33.687 -23.266 -16.127  0.00  0.00    +0.161 C 
ATOM      5  C   UNL     1      34.247 -24.045 -15.135  0.00  0.00    +0.056 C 
ATOM      6  C   UNL     1      35.741 -22.742 -16.947  0.00  0.00    +0.149 C 
ATOM      7  C   UNL     1      35.626 -24.108 -15.134  0.00  0.00    +0.114 C 
ATOM      8  H   UNL     1      37.492 -22.193 -17.782  0.00  0.00    +0.165 HD
ENDROOT
BRANCH   4  11
ATOM      9  N   UNL     1      31.370 -23.359 -15.238  0.00  0.00    -0.274 N 
ATOM     10  N   UNL     1      30.156 -22.699 -16.977  0.00  0.00    -0.232 NA
ATOM     11  C   UNL     1      32.261 -23.110 -16.244  0.00  0.00    +0.103 C 
ATOM     12  C   UNL     1      30.119 -23.099 -15.725  0.00  0.00    +0.113 C 
ATOM     13  C   UNL     1      31.488 -22.706 -17.307  0.00  0.00    +0.117 C 
ATOM     14  C   UNL     1      28.902 -23.261 -14.902  0.00  0.00    +0.069 C 
BRANCH   9  15
ATOM     15  C   UNL     1      31.686 -23.814 -13.899  0.00  0.00    +0.078 C 
ATOM     16  C   UNL     1      30.606 -24.227 -12.942  0.00  0.00    +0.022 C 
ATOM     17  C   UNL     1      31.537 -25.256 -13.512  0.00  0.00    +0.022 C 
ENDBRANCH   9  15
ENDBRANCH   4  11
BRANCH   3  18
ATOM     18  C   UNL     1      36.194 -21.222 -18.984  0.00  0.00    +0.058 C 
ATOM     19  C   UNL     1      35.542 -19.564 -21.130  0.00  0.00    +0.122 C 
ATOM     20  C   UNL     1      34.905 -21.246 -19.517  0.00  0.00    +0.017 C 
ATOM     21  C   UNL     1      37.156 -20.369 -19.523  0.00  0.00    +0.017 C 
ATOM     22  C   UNL     1      34.579 -20.417 -20.590  0.00  0.00    +0.021 C 
ATOM     23  C   UNL     1      36.830 -19.540 -20.597  0.00  0.00    +0.021 C 
BRANCH  19  24
ATOM     24  S   UNL     1      35.133 -18.525 -22.472  0.00  0.00    +0.060 S 
ATOM     25  O   UNL     1      36.349 -17.887 -22.960  0.00  0.00    -0.153 OA
ATOM     26  O   UNL     1      34.313 -19.295 -23.397  0.00  0.00    -0.153 OA
BRANCH  24  27
ATOM     27  N   UNL     1      34.152 -17.337 -21.733  0.00  0.00    -0.178 NA
ATOM     28  C   UNL     1      34.772 -16.266 -20.938  0.00  0.00    +0.110 C 
ATOM     29  H   UNL     1      33.508 -17.829 -21.114  0.00  0.00    +0.149 HD
ENDBRANCH  24  27
ENDBRANCH  19  24
ENDBRANCH   3  18
TORSDOF 5
ENDMDL
MODEL 8
REMARK VINA RESULT:      -8.5     10.667     13.374
REMARK  Name = 24901723
REMARK  5 active torsions:
REMARK  status: ('A' for Active; 'I' for Inactive)
REMARK    1  A    between atoms: N_3  and  C_18
REMARK    2  A    between atoms: C_4  and  C_11
REMARK    3  A    between atoms: N_9  and  C_15
REMARK    4  A    between atoms: C_19  and  S_24
REMARK    5  A    between atoms: S_24  and  N_27
REMARK                            x       y       z     vdW  Elec       q    Type
REMARK                         _______ _______ _______ _____ _____    ______ ____
ROOT
ATOM      1  N   UNL     1      32.786 -12.678 -22.246  0.00  0.00    -0.336 NA
ATOM      2  N   UNL     1      31.264 -11.801 -20.598  0.00  0.00    -0.170 NA
ATOM      3  N   UNL     1      32.174 -13.947 -20.375  0.00  0.00    -0.247 N 
ATOM      4  C   UNL     1      32.662 -11.518 -22.923  0.00  0.00    +0.161 C 
ATOM      5  C   UNL     1      31.869 -10.468 -22.509  0.00  0.00    +0.056 C 
ATOM      6  C   UNL     1      32.070 -12.750 -21.108  0.00  0.00    +0.149 C 
ATOM      7  C   UNL     1      31.186 -10.668 -21.326  0.00  0.00    +0.114 C 
ATOM      8  H   UNL     1      31.635 -13.956 -19.552  0.00  0.00    +0.165 HD
ENDROOT
BRANCH   4  11
ATOM      9  N   UNL     1      34.277 -10.420 -24.459  0.00  0.00    -0.274 N 
ATOM     10  N   UNL     1      34.374 -11.844 -26.160  0.00  0.00    -0.232 NA
ATOM     11  C   UNL     1      33.430 -11.444 -24.139  0.00  0.00    +0.103 C 
ATOM     12  C   UNL     1      34.820 -10.704 -25.681  0.00  0.00    +0.113 C 
ATOM     13  C   UNL     1      33.506 -12.310 -25.204  0.00  0.00    +0.117 C 
ATOM     14  C   UNL     1      35.789  -9.806 -26.342  0.00  0.00    +0.069 C 
BRANCH   9  15
ATOM     15  C   UNL     1      34.554  -9.247 -23.655  0.00  0.00    +0.078 C 
ATOM     16  C   UNL     1      34.860  -7.923 -24.290  0.00  0.00    +0.022 C 
ATOM     17  C   UNL     1      33.567  -8.121 -23.555  0.00  0.00    +0.022 C 
ENDBRANCH   9  15
ENDBRANCH   4  11
BRANCH   3  18
ATOM     18  C   UNL     1      32.902 -15.137 -20.586  0.00  0.00    +0.058 C 
ATOM     19  C   UNL     1      34.340 -17.491 -21.003  0.00  0.00    +0.122 C 
ATOM     20  C   UNL     1      34.297 -15.107 -20.612  0.00  0.00    +0.017 C 
ATOM     21  C   UNL     1      32.227 -16.344 -20.768  0.00  0.00    +0.017 C 
ATOM     22  C   UNL     1      35.016 -16.284 -20.821  0.00  0.00    +0.021 C 
ATOM     23  C   UNL     1      32.946 -17.521 -20.977  0.00  0.00    +0.021 C 
BRANCH  19  24
ATOM     24  S   UNL     1      35.241 -18.964 -21.263  0.00  0.00    +0.060 S 
ATOM     25  O   UNL     1      36.660 -18.640 -21.338  0.00  0.00    -0.153 OA
ATOM     26  O   UNL     1      34.784 -19.943 -20.285  0.00  0.00    -0.153 OA
BRANCH  24  27
ATOM     27  N   UNL     1      34.709 -19.453 -22.812  0.00  0.00    -0.178 NA
ATOM     28  C   UNL     1      35.020 -18.625 -23.987  0.00  0.00    +0.110 C 
ATOM     29  H   UNL     1      33.694 -19.529 -22.765  0.00  0.00    +0.149 HD
ENDBRANCH  24  27
ENDBRANCH  19  24
ENDBRANCH   3  18
TORSDOF 5
ENDMDL
MODEL 9
REMARK VINA RESULT:      -8.3     14.390     16.930
REMARK  Name = 24901723
REMARK  5 active torsions:
REMARK  status: ('A' for Active; 'I' for Inactive)
REMARK    1  A    between atoms: N_3  and  C_18
REMARK    2  A    between atoms: C_4  and  C_11
REMARK    3  A    between atoms: N_9  and  C_15
REMARK    4  A    between atoms: C_19  and  S_24
REMARK    5  A    between atoms: S_24  and  N_27
REMARK                            x       y       z     vdW  Elec       q    Type
REMARK                         _______ _______ _______ _____ _____    ______ ____
ROOT
ATOM      1  N   UNL     1      32.908  -9.019 -22.884  0.00  0.00    -0.336 NA
ATOM      2  N   UNL     1      32.125  -9.151 -20.609  0.00  0.00    -0.170 NA
ATOM      3  N   UNL     1      32.366 -11.082 -21.914  0.00  0.00    -0.247 N 
ATOM      4  C   UNL     1      32.996  -7.681 -22.736  0.00  0.00    +0.161 C 
ATOM      5  C   UNL     1      32.671  -7.014 -21.573  0.00  0.00    +0.056 C 
ATOM      6  C   UNL     1      32.472  -9.682 -21.796  0.00  0.00    +0.149 C 
ATOM      7  C   UNL     1      32.237  -7.809 -20.532  0.00  0.00    +0.114 C 
ATOM      8  H   UNL     1      32.044 -11.525 -21.096  0.00  0.00    +0.165 HD
ENDROOT
BRANCH   4  11
ATOM      9  N   UNL     1      32.712  -6.092 -24.624  0.00  0.00    -0.274 N 
ATOM     10  N   UNL     1      34.695  -6.164 -25.621  0.00  0.00    -0.232 NA
ATOM     11  C   UNL     1      33.463  -6.976 -23.901  0.00  0.00    +0.103 C 
ATOM     12  C   UNL     1      33.494  -5.631 -25.647  0.00  0.00    +0.113 C 
ATOM     13  C   UNL     1      34.683  -7.004 -24.536  0.00  0.00    +0.117 C 
ATOM     14  C   UNL     1      33.002  -4.650 -26.636  0.00  0.00    +0.069 C 
BRANCH   9  15
ATOM     15  C   UNL     1      31.340  -5.709 -24.360  0.00  0.00    +0.078 C 
ATOM     16  C   UNL     1      31.005  -4.687 -23.314  0.00  0.00    +0.022 C 
ATOM     17  C   UNL     1      30.815  -4.363 -24.767  0.00  0.00    +0.022 C 
ENDBRANCH   9  15
ENDBRANCH   4  11
BRANCH   3  18
ATOM     18  C   UNL     1      32.633 -11.975 -22.973  0.00  0.00    +0.058 C 
ATOM     19  C   UNL     1      33.160 -13.739 -25.069  0.00  0.00    +0.122 C 
ATOM     20  C   UNL     1      32.205 -13.300 -22.893  0.00  0.00    +0.017 C 
ATOM     21  C   UNL     1      33.323 -11.531 -24.101  0.00  0.00    +0.017 C 
ATOM     22  C   UNL     1      32.469 -14.182 -23.941  0.00  0.00    +0.021 C 
ATOM     23  C   UNL     1      33.587 -12.413 -25.149  0.00  0.00    +0.021 C 
BRANCH  19  24
ATOM     24  S   UNL     1      33.488 -14.842 -26.381  0.00  0.00    +0.060 S 
ATOM     25  O   UNL     1      32.311 -15.672 -26.603  0.00  0.00    -0.153 OA
ATOM     26  O   UNL     1      34.033 -14.068 -27.488  0.00  0.00    -0.153 OA
BRANCH  24  27
ATOM     27  N   UNL     1      34.732 -15.821 -25.737  0.00  0.00    -0.178 NA
ATOM     28  C   UNL     1      34.413 -17.154 -25.203  0.00  0.00    +0.110 C 
ATOM     29  H   UNL     1      35.159 -15.293 -24.976  0.00  0.00    +0.149 HD
ENDBRANCH  24  27
ENDBRANCH  19  24
ENDBRANCH   3  18
TORSDOF 5
ENDMDL
