MODEL 1
REMARK VINA RESULT:     -10.6      0.000      0.000
REMARK  Name = 66440
REMARK  7 active torsions:
REMARK  status: ('A' for Active; 'I' for Inactive)
REMARK    1  A    between atoms: C_5  and  O_21
REMARK    2  A    between atoms: C_18  and  O_19
REMARK    3  A    between atoms: O_21  and  C_23
REMARK    4  A    between atoms: C_23  and  C_24
REMARK    5  A    between atoms: C_24  and  C_25
REMARK    6  A    between atoms: C_25  and  C_27
REMARK    7  A    between atoms: C_27  and  O_28
REMARK                            x       y       z     vdW  Elec       q    Type
REMARK                         _______ _______ _______ _____ _____    ______ ____
ROOT
ATOM      1  C   UNL     1      36.035 -23.099 -15.691  0.00  0.00    +0.037 C 
ATOM      2  C   UNL     1      34.952 -23.486 -16.720  0.00  0.00    +0.004 C 
ATOM      3  C   UNL     1      34.637 -22.341 -17.682  0.00  0.00    +0.004 C 
ATOM      4  C   UNL     1      35.930 -21.988 -18.478  0.00  0.00    +0.022 C 
ATOM      5  C   UNL     1      36.066 -24.398 -14.862  0.00  0.00    +0.169 C 
ATOM      6  C   UNL     1      37.328 -22.789 -16.453  0.00  0.00    +0.004 C 
ATOM      7  C   UNL     1      33.836 -24.069 -15.858  0.00  0.00    +0.004 C 
ATOM      8  C   UNL     1      37.117 -21.699 -17.522  0.00  0.00    +0.004 C 
ATOM      9  C   UNL     1      34.581 -24.781 -14.714  0.00  0.00    +0.044 C 
ATOM     10  C   UNL     1      33.525 -22.696 -18.672  0.00  0.00    +0.005 C 
ATOM     11  C   UNL     1      35.671 -21.892 -14.788  0.00  0.00    +0.004 C 
ATOM     12  C   UNL     1      35.659 -20.906 -19.520  0.00  0.00    -0.026 C 
ATOM     13  C   UNL     1      33.162 -21.469 -19.503  0.00  0.00    +0.026 C 
ATOM     14  C   UNL     1      34.354 -20.704 -20.022  0.00  0.00    -0.023 C 
ATOM     15  C   UNL     1      36.708 -20.146 -20.070  0.00  0.00    -0.001 C 
ATOM     16  C   UNL     1      34.126 -19.726 -21.007  0.00  0.00    +0.032 C 
ATOM     17  C   UNL     1      36.468 -19.185 -21.054  0.00  0.00    +0.036 C 
ATOM     18  C   UNL     1      35.177 -18.971 -21.519  0.00  0.00    +0.133 C 
ENDROOT
BRANCH  18  19
ATOM     19  O   UNL     1      34.941 -18.033 -22.475  0.00  0.00    -0.506 OA
ATOM     20  H   UNL     1      35.646 -17.509 -22.802  0.00  0.00    +0.292 HD
ENDBRANCH  18  19
BRANCH   5  21
ATOM     21  O   UNL     1      36.694 -24.238 -13.606  0.00  0.00    -0.452 OA
BRANCH  21  23
ATOM     22  O   UNL     1      36.586 -25.786 -11.900  0.00  0.00    -0.250 OA
ATOM     23  C   UNL     1      37.059 -25.394 -12.958  0.00  0.00    +0.317 C 
BRANCH  23  24
ATOM     24  C   UNL     1      38.132 -26.101 -13.756  0.00  0.00    +0.121 C 
BRANCH  24  25
ATOM     25  C   UNL     1      39.439 -25.319 -13.824  0.00  0.00    +0.121 C 
BRANCH  25  27
ATOM     26  O   UNL     1      41.333 -26.785 -14.148  0.00  0.00    -0.250 OA
ATOM     27  C   UNL     1      40.477 -26.058 -14.633  0.00  0.00    +0.314 C 
BRANCH  27  28
ATOM     28  O   UNL     1      40.345 -25.847 -15.967  0.00  0.00    -0.480 OA
ATOM     29  H   UNL     1      39.520 -25.991 -16.385  0.00  0.00    +0.295 HD
ENDBRANCH  27  28
ENDBRANCH  25  27
ENDBRANCH  24  25
ENDBRANCH  23  24
ENDBRANCH  21  23
ENDBRANCH   5  21
TORSDOF 7
ENDMDL
MODEL 2
REMARK VINA RESULT:     -10.3      3.253     10.173
REMARK  Name = 66440
REMARK  7 active torsions:
REMARK  status: ('A' for Active; 'I' for Inactive)
REMARK    1  A    between atoms: C_5  and  O_21
REMARK    2  A    between atoms: C_18  and  O_19
REMARK    3  A    between atoms: O_21  and  C_23
REMARK    4  A    between atoms: C_23  and  C_24
REMARK    5  A    between atoms: C_24  and  C_25
REMARK    6  A    between atoms: C_25  and  C_27
REMARK    7  A    between atoms: C_27  and  O_28
REMARK                            x       y       z     vdW  Elec       q    Type
REMARK                         _______ _______ _______ _____ _____    ______ ____
ROOT
ATOM      1  C   UNL     1      34.353 -18.863 -21.633  0.00  0.00    +0.037 C 
ATOM      2  C   UNL     1      35.581 -19.746 -21.334  0.00  0.00    +0.004 C 
ATOM      3  C   UNL     1      35.510 -20.382 -19.946  0.00  0.00    +0.004 C 
ATOM      4  C   UNL     1      34.252 -21.300 -19.881  0.00  0.00    +0.022 C 
ATOM      5  C   UNL     1      34.755 -18.339 -23.025  0.00  0.00    +0.169 C 
ATOM      6  C   UNL     1      33.107 -19.758 -21.617  0.00  0.00    +0.004 C 
ATOM      7  C   UNL     1      36.761 -18.843 -21.684  0.00  0.00    +0.004 C 
ATOM      8  C   UNL     1      32.970 -20.525 -20.287  0.00  0.00    +0.004 C 
ATOM      9  C   UNL     1      36.255 -18.018 -22.882  0.00  0.00    +0.044 C 
ATOM     10  C   UNL     1      36.750 -21.214 -19.617  0.00  0.00    +0.005 C 
ATOM     11  C   UNL     1      34.147 -17.682 -20.651  0.00  0.00    +0.004 C 
ATOM     12  C   UNL     1      34.170 -22.032 -18.544  0.00  0.00    -0.026 C 
ATOM     13  C   UNL     1      36.680 -21.699 -18.172  0.00  0.00    +0.026 C 
ATOM     14  C   UNL     1      35.333 -22.248 -17.772  0.00  0.00    -0.023 C 
ATOM     15  C   UNL     1      32.959 -22.587 -18.092  0.00  0.00    -0.001 C 
ATOM     16  C   UNL     1      35.247 -22.954 -16.559  0.00  0.00    +0.032 C 
ATOM     17  C   UNL     1      32.890 -23.294 -16.890  0.00  0.00    +0.036 C 
ATOM     18  C   UNL     1      34.033 -23.474 -16.121  0.00  0.00    +0.133 C 
ENDROOT
BRANCH  18  19
ATOM     19  O   UNL     1      33.967 -24.160 -14.948  0.00  0.00    -0.506 OA
ATOM     20  H   UNL     1      34.485 -23.888 -14.217  0.00  0.00    +0.292 HD
ENDBRANCH  18  19
BRANCH   5  21
ATOM     21  O   UNL     1      34.012 -17.205 -23.426  0.00  0.00    -0.452 OA
BRANCH  21  23
ATOM     22  O   UNL     1      34.609 -17.491 -25.635  0.00  0.00    -0.250 OA
ATOM     23  C   UNL     1      34.193 -16.790 -24.724  0.00  0.00    +0.317 C 
BRANCH  23  24
ATOM     24  C   UNL     1      33.798 -15.334 -24.845  0.00  0.00    +0.121 C 
BRANCH  24  25
ATOM     25  C   UNL     1      34.130 -14.519 -23.600  0.00  0.00    +0.121 C 
BRANCH  25  27
ATOM     26  O   UNL     1      32.366 -12.951 -23.078  0.00  0.00    -0.250 OA
ATOM     27  C   UNL     1      32.876 -14.050 -22.903  0.00  0.00    +0.314 C 
BRANCH  27  28
ATOM     28  O   UNL     1      32.357 -14.990 -22.074  0.00  0.00    -0.480 OA
ATOM     29  H   UNL     1      31.635 -14.777 -21.516  0.00  0.00    +0.295 HD
ENDBRANCH  27  28
ENDBRANCH  25  27
ENDBRANCH  24  25
ENDBRANCH  23  24
ENDBRANCH  21  23
ENDBRANCH   5  21
TORSDOF 7
ENDMDL
MODEL 3
REMARK VINA RESULT:     -10.1      3.249     10.693
REMARK  Name = 66440
REMARK  7 active torsions:
REMARK  status: ('A' for Active; 'I' for Inactive)
REMARK    1  A    between atoms: C_5  and  O_21
REMARK    2  A    between atoms: C_18  and  O_19
REMARK    3  A    between atoms: O_21  and  C_23
REMARK    4  A    between atoms: C_23  and  C_24
REMARK    5  A    between atoms: C_24  and  C_25
REMARK    6  A    between atoms: C_25  and  C_27
REMARK    7  A    between atoms: C_27  and  O_28
REMARK                            x       y       z     vdW  Elec       q    Type
REMARK                         _______ _______ _______ _____ _____    ______ ____
ROOT
ATOM      1  C   UNL     1      34.366 -18.913 -21.645  0.00  0.00    +0.037 C 
ATOM      2  C   UNL     1      35.596 -19.788 -21.328  0.00  0.00    +0.004 C 
ATOM      3  C   UNL     1      35.518 -20.408 -19.933  0.00  0.00    +0.004 C 
ATOM      4  C   UNL     1      34.262 -21.328 -19.865  0.00  0.00    +0.022 C 
ATOM      5  C   UNL     1      34.775 -18.404 -23.041  0.00  0.00    +0.169 C 
ATOM      6  C   UNL     1      33.123 -19.811 -21.625  0.00  0.00    +0.004 C 
ATOM      7  C   UNL     1      36.775 -18.887 -21.683  0.00  0.00    +0.004 C 
ATOM      8  C   UNL     1      32.980 -20.562 -20.287  0.00  0.00    +0.004 C 
ATOM      9  C   UNL     1      36.274 -18.077 -22.893  0.00  0.00    +0.044 C 
ATOM     10  C   UNL     1      36.759 -21.233 -19.588  0.00  0.00    +0.005 C 
ATOM     11  C   UNL     1      34.152 -17.720 -20.678  0.00  0.00    +0.004 C 
ATOM     12  C   UNL     1      34.175 -22.045 -18.520  0.00  0.00    -0.026 C 
ATOM     13  C   UNL     1      36.682 -21.701 -18.138  0.00  0.00    +0.026 C 
ATOM     14  C   UNL     1      35.334 -22.248 -17.739  0.00  0.00    -0.023 C 
ATOM     15  C   UNL     1      32.963 -22.597 -18.068  0.00  0.00    -0.001 C 
ATOM     16  C   UNL     1      35.244 -22.940 -16.518  0.00  0.00    +0.032 C 
ATOM     17  C   UNL     1      32.889 -23.291 -16.858  0.00  0.00    +0.036 C 
ATOM     18  C   UNL     1      34.028 -23.458 -16.080  0.00  0.00    +0.133 C 
ENDROOT
BRANCH  18  19
ATOM     19  O   UNL     1      33.958 -24.130 -14.900  0.00  0.00    -0.506 OA
ATOM     20  H   UNL     1      33.322 -24.808 -14.784  0.00  0.00    +0.292 HD
ENDBRANCH  18  19
BRANCH   5  21
ATOM     21  O   UNL     1      34.031 -17.277 -23.459  0.00  0.00    -0.452 OA
BRANCH  21  23
ATOM     22  O   UNL     1      34.585 -17.601 -25.675  0.00  0.00    -0.250 OA
ATOM     23  C   UNL     1      34.220 -16.875 -24.760  0.00  0.00    +0.317 C 
BRANCH  23  24
ATOM     24  C   UNL     1      33.907 -15.399 -24.881  0.00  0.00    +0.121 C 
BRANCH  24  25
ATOM     25  C   UNL     1      33.147 -15.052 -26.155  0.00  0.00    +0.121 C 
BRANCH  25  27
ATOM     26  O   UNL     1      33.386 -12.662 -25.888  0.00  0.00    -0.250 OA
ATOM     27  C   UNL     1      33.456 -13.647 -26.611  0.00  0.00    +0.314 C 
BRANCH  27  28
ATOM     28  O   UNL     1      33.845 -13.593 -27.909  0.00  0.00    -0.480 OA
ATOM     29  H   UNL     1      34.082 -14.379 -28.361  0.00  0.00    +0.295 HD
ENDBRANCH  27  28
ENDBRANCH  25  27
ENDBRANCH  24  25
ENDBRANCH  23  24
ENDBRANCH  21  23
ENDBRANCH   5  21
TORSDOF 7
ENDMDL
MODEL 4
REMARK VINA RESULT:     -10.0      1.221      2.587
REMARK  Name = 66440
REMARK  7 active torsions:
REMARK  status: ('A' for Active; 'I' for Inactive)
REMARK    1  A    between atoms: C_5  and  O_21
REMARK    2  A    between atoms: C_18  and  O_19
REMARK    3  A    between atoms: O_21  and  C_23
REMARK    4  A    between atoms: C_23  and  C_24
REMARK    5  A    between atoms: C_24  and  C_25
REMARK    6  A    between atoms: C_25  and  C_27
REMARK    7  A    between atoms: C_27  and  O_28
REMARK                            x       y       z     vdW  Elec       q    Type
REMARK                         _______ _______ _______ _____ _____    ______ ____
ROOT
ATOM      1  C   UNL     1      36.085 -22.848 -16.132  0.00  0.00    +0.037 C 
ATOM      2  C   UNL     1      34.992 -23.226 -17.153  0.00  0.00    +0.004 C 
ATOM      3  C   UNL     1      34.646 -22.065 -18.084  0.00  0.00    +0.004 C 
ATOM      4  C   UNL     1      35.921 -21.676 -18.891  0.00  0.00    +0.022 C 
ATOM      5  C   UNL     1      36.147 -24.165 -15.335  0.00  0.00    +0.169 C 
ATOM      6  C   UNL     1      37.362 -22.503 -16.907  0.00  0.00    +0.004 C 
ATOM      7  C   UNL     1      33.897 -23.845 -16.288  0.00  0.00    +0.004 C 
ATOM      8  C   UNL     1      37.120 -21.392 -17.947  0.00  0.00    +0.004 C 
ATOM      9  C   UNL     1      34.670 -24.572 -15.172  0.00  0.00    +0.044 C 
ATOM     10  C   UNL     1      33.524 -22.412 -19.064  0.00  0.00    +0.005 C 
ATOM     11  C   UNL     1      35.719 -21.668 -15.196  0.00  0.00    +0.004 C 
ATOM     12  C   UNL     1      35.619 -20.573 -19.903  0.00  0.00    -0.026 C 
ATOM     13  C   UNL     1      33.131 -21.172 -19.861  0.00  0.00    +0.026 C 
ATOM     14  C   UNL     1      34.305 -20.378 -20.381  0.00  0.00    -0.023 C 
ATOM     15  C   UNL     1      36.649 -19.787 -20.451  0.00  0.00    -0.001 C 
ATOM     16  C   UNL     1      34.048 -19.381 -21.339  0.00  0.00    +0.032 C 
ATOM     17  C   UNL     1      36.382 -18.807 -21.410  0.00  0.00    +0.036 C 
ATOM     18  C   UNL     1      35.080 -18.600 -21.850  0.00  0.00    +0.133 C 
ENDROOT
BRANCH  18  19
ATOM     19  O   UNL     1      34.817 -17.644 -22.780  0.00  0.00    -0.506 OA
ATOM     20  H   UNL     1      34.470 -17.886 -23.616  0.00  0.00    +0.292 HD
ENDBRANCH  18  19
BRANCH   5  21
ATOM     21  O   UNL     1      36.793 -24.025 -14.084  0.00  0.00    -0.452 OA
BRANCH  21  23
ATOM     22  O   UNL     1      38.374 -25.641 -14.542  0.00  0.00    -0.250 OA
ATOM     23  C   UNL     1      37.684 -25.016 -13.748  0.00  0.00    +0.317 C 
BRANCH  23  24
ATOM     24  C   UNL     1      37.675 -25.211 -12.248  0.00  0.00    +0.121 C 
BRANCH  24  25
ATOM     25  C   UNL     1      36.983 -24.077 -11.501  0.00  0.00    +0.121 C 
BRANCH  25  27
ATOM     26  O   UNL     1      35.434 -24.485  -9.692  0.00  0.00    -0.250 OA
ATOM     27  C   UNL     1      35.683 -24.538 -10.889  0.00  0.00    +0.314 C 
BRANCH  27  28
ATOM     28  O   UNL     1      34.806 -25.001 -11.814  0.00  0.00    -0.480 OA
ATOM     29  H   UNL     1      34.800 -24.638 -12.678  0.00  0.00    +0.295 HD
ENDBRANCH  27  28
ENDBRANCH  25  27
ENDBRANCH  24  25
ENDBRANCH  23  24
ENDBRANCH  21  23
ENDBRANCH   5  21
TORSDOF 7
ENDMDL
MODEL 5
REMARK VINA RESULT:      -9.6      7.101     11.638
REMARK  Name = 66440
REMARK  7 active torsions:
REMARK  status: ('A' for Active; 'I' for Inactive)
REMARK    1  A    between atoms: C_5  and  O_21
REMARK    2  A    between atoms: C_18  and  O_19
REMARK    3  A    between atoms: O_21  and  C_23
REMARK    4  A    between atoms: C_23  and  C_24
REMARK    5  A    between atoms: C_24  and  C_25
REMARK    6  A    between atoms: C_25  and  C_27
REMARK    7  A    between atoms: C_27  and  O_28
REMARK                            x       y       z     vdW  Elec       q    Type
REMARK                         _______ _______ _______ _____ _____    ______ ____
ROOT
ATOM      1  C   UNL     1      33.684 -14.451 -22.338  0.00  0.00    +0.037 C 
ATOM      2  C   UNL     1      32.397 -13.934 -21.664  0.00  0.00    +0.004 C 
ATOM      3  C   UNL     1      32.425 -12.420 -21.454  0.00  0.00    +0.004 C 
ATOM      4  C   UNL     1      32.533 -11.725 -22.845  0.00  0.00    +0.022 C 
ATOM      5  C   UNL     1      33.373 -15.961 -22.341  0.00  0.00    +0.169 C 
ATOM      6  C   UNL     1      33.785 -13.811 -23.728  0.00  0.00    +0.004 C 
ATOM      7  C   UNL     1      32.232 -14.854 -20.458  0.00  0.00    +0.004 C 
ATOM      8  C   UNL     1      33.739 -12.272 -23.655  0.00  0.00    +0.004 C 
ATOM      9  C   UNL     1      32.751 -16.216 -20.955  0.00  0.00    +0.044 C 
ATOM     10  C   UNL     1      31.178 -11.903 -20.736  0.00  0.00    +0.005 C 
ATOM     11  C   UNL     1      34.988 -14.172 -21.549  0.00  0.00    +0.004 C 
ATOM     12  C   UNL     1      32.481 -10.206 -22.709  0.00  0.00    -0.026 C 
ATOM     13  C   UNL     1      31.334 -10.417 -20.431  0.00  0.00    +0.026 C 
ATOM     14  C   UNL     1      31.874  -9.606 -21.584  0.00  0.00    -0.023 C 
ATOM     15  C   UNL     1      32.952  -9.367 -23.736  0.00  0.00    -0.001 C 
ATOM     16  C   UNL     1      31.803  -8.205 -21.489  0.00  0.00    +0.032 C 
ATOM     17  C   UNL     1      32.866  -7.977 -23.633  0.00  0.00    +0.036 C 
ATOM     18  C   UNL     1      32.296  -7.395 -22.508  0.00  0.00    +0.133 C 
ENDROOT
BRANCH  18  19
ATOM     19  O   UNL     1      32.215  -6.042 -22.404  0.00  0.00    -0.506 OA
ATOM     20  H   UNL     1      32.819  -5.499 -22.870  0.00  0.00    +0.292 HD
ENDBRANCH  18  19
BRANCH   5  21
ATOM     21  O   UNL     1      34.518 -16.761 -22.558  0.00  0.00    -0.452 OA
BRANCH  21  23
ATOM     22  O   UNL     1      34.217 -17.120 -24.816  0.00  0.00    -0.250 OA
ATOM     23  C   UNL     1      34.518 -17.524 -23.701  0.00  0.00    +0.317 C 
BRANCH  23  24
ATOM     24  C   UNL     1      34.945 -18.936 -23.364  0.00  0.00    +0.121 C 
BRANCH  24  25
ATOM     25  C   UNL     1      34.337 -19.450 -22.064  0.00  0.00    +0.121 C 
BRANCH  25  27
ATOM     26  O   UNL     1      35.764 -20.694 -20.562  0.00  0.00    -0.250 OA
ATOM     27  C   UNL     1      35.390 -19.613 -20.995  0.00  0.00    +0.314 C 
BRANCH  27  28
ATOM     28  O   UNL     1      35.898 -18.426 -20.577  0.00  0.00    -0.480 OA
ATOM     29  H   UNL     1      36.302 -17.846 -21.192  0.00  0.00    +0.295 HD
ENDBRANCH  27  28
ENDBRANCH  25  27
ENDBRANCH  24  25
ENDBRANCH  23  24
ENDBRANCH  21  23
ENDBRANCH   5  21
TORSDOF 7
ENDMDL
MODEL 6
REMARK VINA RESULT:      -9.4      1.669      8.818
REMARK  Name = 66440
REMARK  7 active torsions:
REMARK  status: ('A' for Active; 'I' for Inactive)
REMARK    1  A    between atoms: C_5  and  O_21
REMARK    2  A    between atoms: C_18  and  O_19
REMARK    3  A    between atoms: O_21  and  C_23
REMARK    4  A    between atoms: C_23  and  C_24
REMARK    5  A    between atoms: C_24  and  C_25
REMARK    6  A    between atoms: C_25  and  C_27
REMARK    7  A    between atoms: C_27  and  O_28
REMARK                            x       y       z     vdW  Elec       q    Type
REMARK                         _______ _______ _______ _____ _____    ______ ____
ROOT
ATOM      1  C   UNL     1      35.288 -21.320 -19.470  0.00  0.00    +0.037 C 
ATOM      2  C   UNL     1      34.264 -21.665 -18.369  0.00  0.00    +0.004 C 
ATOM      3  C   UNL     1      34.737 -22.817 -17.483  0.00  0.00    +0.004 C 
ATOM      4  C   UNL     1      36.057 -22.391 -16.772  0.00  0.00    +0.022 C 
ATOM      5  C   UNL     1      34.506 -20.210 -20.198  0.00  0.00    +0.169 C 
ATOM      6  C   UNL     1      36.582 -20.857 -18.789  0.00  0.00    +0.004 C 
ATOM      7  C   UNL     1      32.951 -21.799 -19.135  0.00  0.00    +0.004 C 
ATOM      8  C   UNL     1      37.117 -21.909 -17.798  0.00  0.00    +0.004 C 
ATOM      9  C   UNL     1      33.063 -20.746 -20.253  0.00  0.00    +0.044 C 
ATOM     10  C   UNL     1      33.704 -23.204 -16.423  0.00  0.00    +0.005 C 
ATOM     11  C   UNL     1      35.610 -22.482 -20.445  0.00  0.00    +0.004 C 
ATOM     12  C   UNL     1      36.536 -23.470 -15.805  0.00  0.00    -0.026 C 
ATOM     13  C   UNL     1      34.174 -24.446 -15.671  0.00  0.00    +0.026 C 
ATOM     14  C   UNL     1      35.626 -24.404 -15.263  0.00  0.00    -0.023 C 
ATOM     15  C   UNL     1      37.871 -23.507 -15.360  0.00  0.00    -0.001 C 
ATOM     16  C   UNL     1      36.076 -25.371 -14.347  0.00  0.00    +0.032 C 
ATOM     17  C   UNL     1      38.302 -24.467 -14.442  0.00  0.00    +0.036 C 
ATOM     18  C   UNL     1      37.407 -25.402 -13.939  0.00  0.00    +0.133 C 
ENDROOT
BRANCH  18  19
ATOM     19  O   UNL     1      37.826 -26.340 -13.047  0.00  0.00    -0.506 OA
ATOM     20  H   UNL     1      38.574 -26.868 -13.240  0.00  0.00    +0.292 HD
ENDBRANCH  18  19
BRANCH   5  21
ATOM     21  O   UNL     1      35.012 -19.933 -21.489  0.00  0.00    -0.452 OA
BRANCH  21  23
ATOM     22  O   UNL     1      35.584 -17.799 -20.828  0.00  0.00    -0.250 OA
ATOM     23  C   UNL     1      35.510 -18.667 -21.687  0.00  0.00    +0.317 C 
BRANCH  23  24
ATOM     24  C   UNL     1      35.947 -18.518 -23.128  0.00  0.00    +0.121 C 
BRANCH  24  25
ATOM     25  C   UNL     1      34.788 -18.245 -24.079  0.00  0.00    +0.121 C 
BRANCH  25  27
ATOM     26  O   UNL     1      34.513 -16.620 -25.846  0.00  0.00    -0.250 OA
ATOM     27  C   UNL     1      34.917 -16.886 -24.722  0.00  0.00    +0.314 C 
BRANCH  27  28
ATOM     28  O   UNL     1      35.512 -15.978 -23.908  0.00  0.00    -0.480 OA
ATOM     29  H   UNL     1      35.407 -15.061 -24.072  0.00  0.00    +0.295 HD
ENDBRANCH  27  28
ENDBRANCH  25  27
ENDBRANCH  24  25
ENDBRANCH  23  24
ENDBRANCH  21  23
ENDBRANCH   5  21
TORSDOF 7
ENDMDL
MODEL 7
REMARK VINA RESULT:      -9.3      8.246     11.898
REMARK  Name = 66440
REMARK  7 active torsions:
REMARK  status: ('A' for Active; 'I' for Inactive)
REMARK    1  A    between atoms: C_5  and  O_21
REMARK    2  A    between atoms: C_18  and  O_19
REMARK    3  A    between atoms: O_21  and  C_23
REMARK    4  A    between atoms: C_23  and  C_24
REMARK    5  A    between atoms: C_24  and  C_25
REMARK    6  A    between atoms: C_25  and  C_27
REMARK    7  A    between atoms: C_27  and  O_28
REMARK                            x       y       z     vdW  Elec       q    Type
REMARK                         _______ _______ _______ _____ _____    ______ ____
ROOT
ATOM      1  C   UNL     1      33.774 -14.733 -22.029  0.00  0.00    +0.037 C 
ATOM      2  C   UNL     1      32.442 -14.194 -21.468  0.00  0.00    +0.004 C 
ATOM      3  C   UNL     1      32.435 -12.669 -21.369  0.00  0.00    +0.004 C 
ATOM      4  C   UNL     1      32.610 -12.075 -22.800  0.00  0.00    +0.022 C 
ATOM      5  C   UNL     1      33.488 -16.245 -21.939  0.00  0.00    +0.169 C 
ATOM      6  C   UNL     1      33.944 -14.194 -23.455  0.00  0.00    +0.004 C 
ATOM      7  C   UNL     1      32.224 -15.027 -20.209  0.00  0.00    +0.004 C 
ATOM      8  C   UNL     1      33.869 -12.656 -23.499  0.00  0.00    +0.004 C 
ATOM      9  C   UNL     1      32.792 -16.411 -20.574  0.00  0.00    +0.044 C 
ATOM     10  C   UNL     1      31.140 -12.126 -20.762  0.00  0.00    +0.005 C 
ATOM     11  C   UNL     1      35.026 -14.371 -21.192  0.00  0.00    +0.004 C 
ATOM     12  C   UNL     1      32.526 -10.551 -22.780  0.00  0.00    -0.026 C 
ATOM     13  C   UNL     1      31.255 -10.619 -20.560  0.00  0.00    +0.026 C 
ATOM     14  C   UNL     1      31.846  -9.884 -21.737  0.00  0.00    -0.023 C 
ATOM     15  C   UNL     1      33.041  -9.780 -23.838  0.00  0.00    -0.001 C 
ATOM     16  C   UNL     1      31.747  -8.481 -21.750  0.00  0.00    +0.032 C 
ATOM     17  C   UNL     1      32.928  -8.389 -23.843  0.00  0.00    +0.036 C 
ATOM     18  C   UNL     1      32.285  -7.738 -22.797  0.00  0.00    +0.133 C 
ENDROOT
BRANCH  18  19
ATOM     19  O   UNL     1      32.176  -6.382 -22.798  0.00  0.00    -0.506 OA
ATOM     20  H   UNL     1      31.982  -5.927 -22.003  0.00  0.00    +0.292 HD
ENDBRANCH  18  19
BRANCH   5  21
ATOM     21  O   UNL     1      34.656 -17.036 -22.031  0.00  0.00    -0.452 OA
BRANCH  21  23
ATOM     22  O   UNL     1      33.803 -19.111 -21.493  0.00  0.00    -0.250 OA
ATOM     23  C   UNL     1      34.463 -18.383 -22.223  0.00  0.00    +0.317 C 
BRANCH  23  24
ATOM     24  C   UNL     1      35.192 -18.822 -23.474  0.00  0.00    +0.121 C 
BRANCH  24  25
ATOM     25  C   UNL     1      34.324 -18.761 -24.725  0.00  0.00    +0.121 C 
BRANCH  25  27
ATOM     26  O   UNL     1      33.436 -16.932 -26.032  0.00  0.00    -0.250 OA
ATOM     27  C   UNL     1      34.334 -17.378 -25.330  0.00  0.00    +0.314 C 
BRANCH  27  28
ATOM     28  O   UNL     1      35.440 -16.669 -24.994  0.00  0.00    -0.480 OA
ATOM     29  H   UNL     1      35.999 -16.327 -25.663  0.00  0.00    +0.295 HD
ENDBRANCH  27  28
ENDBRANCH  25  27
ENDBRANCH  24  25
ENDBRANCH  23  24
ENDBRANCH  21  23
ENDBRANCH   5  21
TORSDOF 7
ENDMDL
MODEL 8
REMARK VINA RESULT:      -9.1      4.969      8.867
REMARK  Name = 66440
REMARK  7 active torsions:
REMARK  status: ('A' for Active; 'I' for Inactive)
REMARK    1  A    between atoms: C_5  and  O_21
REMARK    2  A    between atoms: C_18  and  O_19
REMARK    3  A    between atoms: O_21  and  C_23
REMARK    4  A    between atoms: C_23  and  C_24
REMARK    5  A    between atoms: C_24  and  C_25
REMARK    6  A    between atoms: C_25  and  C_27
REMARK    7  A    between atoms: C_27  and  O_28
REMARK                            x       y       z     vdW  Elec       q    Type
REMARK                         _______ _______ _______ _____ _____    ______ ____
ROOT
ATOM      1  C   UNL     1      34.593 -17.806 -21.906  0.00  0.00    +0.037 C 
ATOM      2  C   UNL     1      34.781 -16.778 -23.040  0.00  0.00    +0.004 C 
ATOM      3  C   UNL     1      33.749 -15.652 -22.973  0.00  0.00    +0.004 C 
ATOM      4  C   UNL     1      33.927 -14.893 -21.623  0.00  0.00    +0.022 C 
ATOM      5  C   UNL     1      35.704 -18.804 -22.289  0.00  0.00    +0.169 C 
ATOM      6  C   UNL     1      34.807 -17.086 -20.569  0.00  0.00    +0.004 C 
ATOM      7  C   UNL     1      34.864 -17.644 -24.294  0.00  0.00    +0.004 C 
ATOM      8  C   UNL     1      33.874 -15.869 -20.418  0.00  0.00    +0.004 C 
ATOM      9  C   UNL     1      35.591 -18.916 -23.822  0.00  0.00    +0.044 C 
ATOM     10  C   UNL     1      33.891 -14.657 -24.126  0.00  0.00    +0.005 C 
ATOM     11  C   UNL     1      33.215 -18.514 -21.892  0.00  0.00    +0.004 C 
ATOM     12  C   UNL     1      32.979 -13.700 -21.532  0.00  0.00    -0.026 C 
ATOM     13  C   UNL     1      32.748 -13.646 -24.080  0.00  0.00    +0.026 C 
ATOM     14  C   UNL     1      32.467 -13.099 -22.703  0.00  0.00    -0.023 C 
ATOM     15  C   UNL     1      32.663 -13.115 -20.292  0.00  0.00    -0.001 C 
ATOM     16  C   UNL     1      31.622 -11.979 -22.604  0.00  0.00    +0.032 C 
ATOM     17  C   UNL     1      31.831 -11.997 -20.208  0.00  0.00    +0.036 C 
ATOM     18  C   UNL     1      31.305 -11.432 -21.364  0.00  0.00    +0.133 C 
ENDROOT
BRANCH  18  19
ATOM     19  O   UNL     1      30.492 -10.345 -21.285  0.00  0.00    -0.506 OA
ATOM     20  H   UNL     1      29.673 -10.339 -21.739  0.00  0.00    +0.292 HD
ENDBRANCH  18  19
BRANCH   5  21
ATOM     21  O   UNL     1      35.559 -20.062 -21.660  0.00  0.00    -0.452 OA
BRANCH  21  23
ATOM     22  O   UNL     1      37.141 -19.533 -20.067  0.00  0.00    -0.250 OA
ATOM     23  C   UNL     1      36.203 -20.216 -20.455  0.00  0.00    +0.317 C 
BRANCH  23  24
ATOM     24  C   UNL     1      35.571 -21.357 -19.689  0.00  0.00    +0.121 C 
BRANCH  24  25
ATOM     25  C   UNL     1      34.056 -21.237 -19.580  0.00  0.00    +0.121 C 
BRANCH  25  27
ATOM     26  O   UNL     1      32.498 -22.481 -18.213  0.00  0.00    -0.250 OA
ATOM     27  C   UNL     1      33.450 -22.484 -18.982  0.00  0.00    +0.314 C 
BRANCH  27  28
ATOM     28  O   UNL     1      34.063 -23.617 -19.407  0.00  0.00    -0.480 OA
ATOM     29  H   UNL     1      33.864 -24.438 -19.002  0.00  0.00    +0.295 HD
ENDBRANCH  27  28
ENDBRANCH  25  27
ENDBRANCH  24  25
ENDBRANCH  23  24
ENDBRANCH  21  23
ENDBRANCH   5  21
TORSDOF 7
ENDMDL
MODEL 9
REMARK VINA RESULT:      -8.6      3.248      5.278
REMARK  Name = 66440
REMARK  7 active torsions:
REMARK  status: ('A' for Active; 'I' for Inactive)
REMARK    1  A    between atoms: C_5  and  O_21
REMARK    2  A    between atoms: C_18  and  O_19
REMARK    3  A    between atoms: O_21  and  C_23
REMARK    4  A    between atoms: C_23  and  C_24
REMARK    5  A    between atoms: C_24  and  C_25
REMARK    6  A    between atoms: C_25  and  C_27
REMARK    7  A    between atoms: C_27  and  O_28
REMARK                            x       y       z     vdW  Elec       q    Type
REMARK                         _______ _______ _______ _____ _____    ______ ____
ROOT
ATOM      1  C   UNL     1      36.087 -23.782 -14.827  0.00  0.00    +0.037 C 
ATOM      2  C   UNL     1      35.324 -22.773 -15.709  0.00  0.00    +0.004 C 
ATOM      3  C   UNL     1      33.906 -23.245 -16.030  0.00  0.00    +0.004 C 
ATOM      4  C   UNL     1      33.114 -23.387 -14.695  0.00  0.00    +0.022 C 
ATOM      5  C   UNL     1      37.449 -23.065 -14.749  0.00  0.00    +0.169 C 
ATOM      6  C   UNL     1      35.345 -23.904 -13.491  0.00  0.00    +0.004 C 
ATOM      7  C   UNL     1      36.297 -22.493 -16.851  0.00  0.00    +0.004 C 
ATOM      8  C   UNL     1      33.868 -24.296 -13.688  0.00  0.00    +0.004 C 
ATOM      9  C   UNL     1      37.683 -22.554 -16.184  0.00  0.00    +0.044 C 
ATOM     10  C   UNL     1      33.160 -22.278 -16.950  0.00  0.00    +0.005 C 
ATOM     11  C   UNL     1      36.255 -25.192 -15.449  0.00  0.00    +0.004 C 
ATOM     12  C   UNL     1      31.661 -23.776 -14.954  0.00  0.00    -0.026 C 
ATOM     13  C   UNL     1      31.812 -22.875 -17.345  0.00  0.00    +0.026 C 
ATOM     14  C   UNL     1      31.051 -23.487 -16.195  0.00  0.00    -0.023 C 
ATOM     15  C   UNL     1      30.868 -24.344 -13.940  0.00  0.00    -0.001 C 
ATOM     16  C   UNL     1      29.701 -23.820 -16.407  0.00  0.00    +0.032 C 
ATOM     17  C   UNL     1      29.526 -24.661 -14.161  0.00  0.00    +0.036 C 
ATOM     18  C   UNL     1      28.943 -24.404 -15.396  0.00  0.00    +0.133 C 
ENDROOT
BRANCH  18  19
ATOM     19  O   UNL     1      27.637 -24.714 -15.614  0.00  0.00    -0.506 OA
ATOM     20  H   UNL     1      27.273 -25.493 -15.243  0.00  0.00    +0.292 HD
ENDBRANCH  18  19
BRANCH   5  21
ATOM     21  O   UNL     1      38.496 -23.911 -14.317  0.00  0.00    -0.452 OA
BRANCH  21  23
ATOM     22  O   UNL     1      38.412 -23.370 -12.076  0.00  0.00    -0.250 OA
ATOM     23  C   UNL     1      38.531 -24.195 -12.973  0.00  0.00    +0.317 C 
BRANCH  23  24
ATOM     24  C   UNL     1      38.739 -25.681 -12.777  0.00  0.00    +0.121 C 
BRANCH  24  25
ATOM     25  C   UNL     1      38.926 -26.435 -14.088  0.00  0.00    +0.121 C 
BRANCH  25  27
ATOM     26  O   UNL     1      41.332 -26.637 -13.973  0.00  0.00    -0.250 OA
ATOM     27  C   UNL     1      40.339 -26.297 -14.602  0.00  0.00    +0.314 C 
BRANCH  27  28
ATOM     28  O   UNL     1      40.390 -25.773 -15.852  0.00  0.00    -0.480 OA
ATOM     29  H   UNL     1      41.103 -25.216 -16.099  0.00  0.00    +0.295 HD
ENDBRANCH  27  28
ENDBRANCH  25  27
ENDBRANCH  24  25
ENDBRANCH  23  24
ENDBRANCH  21  23
ENDBRANCH   5  21
TORSDOF 7
ENDMDL
