MODEL 1
REMARK VINA RESULT:     -10.2      0.000      0.000
REMARK  Name = 153948
REMARK  2 active torsions:
REMARK  status: ('A' for Active; 'I' for Inactive)
REMARK    1  A    between atoms: N_6  and  C_19
REMARK    2  A    between atoms: C_19  and  C_22
REMARK                            x       y       z     vdW  Elec       q    Type
REMARK                         _______ _______ _______ _____ _____    ______ ____
ROOT
ATOM      1  O   UNL     1      31.011  -9.843 -20.742  0.00  0.00    -0.272 OA
ATOM      2  O   UNL     1      33.339  -7.771 -19.939  0.00  0.00    -0.272 OA
ATOM      3  O   UNL     1      30.050  -5.419 -22.125  0.00  0.00    -0.275 OA
ATOM      4  O   UNL     1      33.452 -11.628 -24.267  0.00  0.00    -0.268 OA
ATOM      5  N   UNL     1      33.452  -8.305 -22.909  0.00  0.00    -0.270 N 
ATOM      6  N   UNL     1      32.091 -10.719 -22.608  0.00  0.00    -0.219 N 
ATOM      7  N   UNL     1      31.695  -6.381 -20.801  0.00  0.00    -0.254 N 
ATOM      8  C   UNL     1      32.257  -8.272 -22.069  0.00  0.00    +0.209 C 
ATOM      9  C   UNL     1      31.120  -7.490 -22.768  0.00  0.00    +0.122 C 
ATOM     10  C   UNL     1      31.736  -9.678 -21.729  0.00  0.00    +0.257 C 
ATOM     11  C   UNL     1      32.523  -7.474 -20.801  0.00  0.00    +0.254 C 
ATOM     12  C   UNL     1      33.829  -9.412 -23.622  0.00  0.00    +0.107 C 
ATOM     13  C   UNL     1      30.867  -6.296 -21.889  0.00  0.00    +0.231 C 
ATOM     14  C   UNL     1      33.133 -10.671 -23.562  0.00  0.00    +0.269 C 
ATOM     15  C   UNL     1      34.296  -7.260 -23.184  0.00  0.00    +0.066 C 
ATOM     16  C   UNL     1      34.949  -9.065 -24.354  0.00  0.00    +0.021 C 
ATOM     17  C   UNL     1      35.245  -7.709 -24.074  0.00  0.00    +0.018 C 
ATOM     18  H   UNL     1      31.695  -5.712 -20.078  0.00  0.00    +0.158 HD
ENDROOT
BRANCH   6  19
ATOM     19  C   UNL     1      31.318 -11.953 -22.527  0.00  0.00    +0.130 C 
BRANCH  19  22
ATOM     20 BR   UNL     1      34.852 -16.789 -21.042  0.00  0.00    -0.049 Br
ATOM     21  F   UNL     1      32.066 -12.540 -19.868  0.00  0.00    -0.204 F 
ATOM     22  C   UNL     1      32.180 -13.133 -22.164  0.00  0.00    +0.026 C 
ATOM     23  C   UNL     1      32.507 -13.357 -20.834  0.00  0.00    +0.138 C 
ATOM     24  C   UNL     1      32.635 -13.979 -23.165  0.00  0.00    +0.000 C 
ATOM     25  C   UNL     1      33.305 -14.452 -20.498  0.00  0.00    +0.036 C 
ATOM     26  C   UNL     1      33.434 -15.072 -22.830  0.00  0.00    +0.007 C 
ATOM     27  C   UNL     1      33.769 -15.308 -21.497  0.00  0.00    +0.037 C 
ENDBRANCH  19  22
ENDBRANCH   6  19
TORSDOF 2
ENDMDL
MODEL 2
REMARK VINA RESULT:      -9.3      6.326      8.179
REMARK  Name = 153948
REMARK  2 active torsions:
REMARK  status: ('A' for Active; 'I' for Inactive)
REMARK    1  A    between atoms: N_6  and  C_19
REMARK    2  A    between atoms: C_19  and  C_22
REMARK                            x       y       z     vdW  Elec       q    Type
REMARK                         _______ _______ _______ _____ _____    ______ ____
ROOT
ATOM      1  O   UNL     1      35.754 -17.197 -20.255  0.00  0.00    -0.272 OA
ATOM      2  O   UNL     1      35.509 -14.207 -21.419  0.00  0.00    -0.272 OA
ATOM      3  O   UNL     1      31.434 -15.364 -19.635  0.00  0.00    -0.275 OA
ATOM      4  O   UNL     1      35.568 -19.136 -24.471  0.00  0.00    -0.268 OA
ATOM      5  N   UNL     1      34.056 -16.118 -23.250  0.00  0.00    -0.270 N 
ATOM      6  N   UNL     1      35.540 -18.279 -22.304  0.00  0.00    -0.219 N 
ATOM      7  N   UNL     1      33.465 -14.513 -20.368  0.00  0.00    -0.254 N 
ATOM      8  C   UNL     1      34.188 -16.225 -21.799  0.00  0.00    +0.209 C 
ATOM      9  C   UNL     1      32.838 -16.615 -21.155  0.00  0.00    +0.122 C 
ATOM     10  C   UNL     1      35.242 -17.262 -21.377  0.00  0.00    +0.257 C 
ATOM     11  C   UNL     1      34.501 -14.863 -21.195  0.00  0.00    +0.254 C 
ATOM     12  C   UNL     1      34.514 -17.080 -24.111  0.00  0.00    +0.107 C 
ATOM     13  C   UNL     1      32.462 -15.444 -20.291  0.00  0.00    +0.231 C 
ATOM     14  C   UNL     1      35.230 -18.253 -23.683  0.00  0.00    +0.269 C 
ATOM     15  C   UNL     1      33.402 -15.136 -23.949  0.00  0.00    +0.066 C 
ATOM     16  C   UNL     1      34.155 -16.691 -25.388  0.00  0.00    +0.021 C 
ATOM     17  C   UNL     1      33.457 -15.463 -25.285  0.00  0.00    +0.018 C 
ATOM     18  H   UNL     1      33.443 -13.664 -19.870  0.00  0.00    +0.158 HD
ENDROOT
BRANCH   6  19
ATOM     19  C   UNL     1      36.229 -19.461 -21.798  0.00  0.00    +0.130 C 
BRANCH  19  22
ATOM     20 BR   UNL     1      32.705 -22.672 -17.879  0.00  0.00    -0.049 Br
ATOM     21  F   UNL     1      37.287 -21.362 -19.997  0.00  0.00    -0.204 F 
ATOM     22  C   UNL     1      35.371 -20.245 -20.841  0.00  0.00    +0.026 C 
ATOM     23  C   UNL     1      35.962 -21.163 -19.985  0.00  0.00    +0.138 C 
ATOM     24  C   UNL     1      33.999 -20.037 -20.830  0.00  0.00    +0.000 C 
ATOM     25  C   UNL     1      35.165 -21.888 -19.099  0.00  0.00    +0.036 C 
ATOM     26  C   UNL     1      33.201 -20.763 -19.945  0.00  0.00    +0.007 C 
ATOM     27  C   UNL     1      33.785 -21.689 -19.079  0.00  0.00    +0.037 C 
ENDBRANCH  19  22
ENDBRANCH   6  19
TORSDOF 2
ENDMDL
MODEL 3
REMARK VINA RESULT:      -9.2     11.143     14.671
REMARK  Name = 153948
REMARK  2 active torsions:
REMARK  status: ('A' for Active; 'I' for Inactive)
REMARK    1  A    between atoms: N_6  and  C_19
REMARK    2  A    between atoms: C_19  and  C_22
REMARK                            x       y       z     vdW  Elec       q    Type
REMARK                         _______ _______ _______ _____ _____    ______ ____
ROOT
ATOM      1  O   UNL     1      36.287 -22.945 -17.423  0.00  0.00    -0.272 OA
ATOM      2  O   UNL     1      36.127 -21.698 -14.460  0.00  0.00    -0.272 OA
ATOM      3  O   UNL     1      37.019 -26.190 -14.054  0.00  0.00    -0.275 OA
ATOM      4  O   UNL     1      31.675 -22.904 -17.974  0.00  0.00    -0.268 OA
ATOM      5  N   UNL     1      33.640 -23.324 -15.000  0.00  0.00    -0.270 N 
ATOM      6  N   UNL     1      33.988 -23.090 -17.755  0.00  0.00    -0.219 N 
ATOM      7  N   UNL     1      36.809 -23.878 -14.059  0.00  0.00    -0.254 N 
ATOM      8  C   UNL     1      34.985 -23.587 -15.505  0.00  0.00    +0.209 C 
ATOM      9  C   UNL     1      35.328 -25.090 -15.390  0.00  0.00    +0.122 C 
ATOM     10  C   UNL     1      35.157 -23.165 -16.974  0.00  0.00    +0.257 C 
ATOM     11  C   UNL     1      36.024 -22.907 -14.624  0.00  0.00    +0.254 C 
ATOM     12  C   UNL     1      32.567 -23.102 -15.822  0.00  0.00    +0.107 C 
ATOM     13  C   UNL     1      36.480 -25.157 -14.426  0.00  0.00    +0.231 C 
ATOM     14  C   UNL     1      32.666 -23.034 -17.256  0.00  0.00    +0.269 C 
ATOM     15  C   UNL     1      33.231 -23.350 -13.691  0.00  0.00    +0.066 C 
ATOM     16  C   UNL     1      31.454 -22.968 -15.013  0.00  0.00    +0.021 C 
ATOM     17  C   UNL     1      31.874 -23.121 -13.670  0.00  0.00    +0.018 C 
ATOM     18  H   UNL     1      37.548 -23.675 -13.442  0.00  0.00    +0.158 HD
ENDROOT
BRANCH   6  19
ATOM     19  C   UNL     1      34.154 -23.069 -19.204  0.00  0.00    +0.130 C 
BRANCH  19  22
ATOM     20 BR   UNL     1      34.365 -17.309 -21.409  0.00  0.00    -0.049 Br
ATOM     21  F   UNL     1      36.575 -21.773 -19.866  0.00  0.00    -0.204 F 
ATOM     22  C   UNL     1      34.207 -21.664 -19.742  0.00  0.00    +0.026 C 
ATOM     23  C   UNL     1      35.435 -21.092 -20.045  0.00  0.00    +0.138 C 
ATOM     24  C   UNL     1      33.025 -20.960 -19.928  0.00  0.00    +0.000 C 
ATOM     25  C   UNL     1      35.482 -19.790 -20.544  0.00  0.00    +0.036 C 
ATOM     26  C   UNL     1      33.072 -19.658 -20.426  0.00  0.00    +0.007 C 
ATOM     27  C   UNL     1      34.301 -19.072 -20.734  0.00  0.00    +0.037 C 
ENDBRANCH  19  22
ENDBRANCH   6  19
TORSDOF 2
ENDMDL
MODEL 4
REMARK VINA RESULT:      -8.5      6.157      8.044
REMARK  Name = 153948
REMARK  2 active torsions:
REMARK  status: ('A' for Active; 'I' for Inactive)
REMARK    1  A    between atoms: N_6  and  C_19
REMARK    2  A    between atoms: C_19  and  C_22
REMARK                            x       y       z     vdW  Elec       q    Type
REMARK                         _______ _______ _______ _____ _____    ______ ____
ROOT
ATOM      1  O   UNL     1      35.742 -17.213 -20.274  0.00  0.00    -0.272 OA
ATOM      2  O   UNL     1      35.465 -14.185 -21.328  0.00  0.00    -0.272 OA
ATOM      3  O   UNL     1      31.399 -15.453 -19.600  0.00  0.00    -0.275 OA
ATOM      4  O   UNL     1      35.588 -18.999 -24.559  0.00  0.00    -0.268 OA
ATOM      5  N   UNL     1      34.039 -16.045 -23.233  0.00  0.00    -0.270 N 
ATOM      6  N   UNL     1      35.546 -18.222 -22.362  0.00  0.00    -0.219 N 
ATOM      7  N   UNL     1      33.422 -14.553 -20.295  0.00  0.00    -0.254 N 
ATOM      8  C   UNL     1      34.169 -16.203 -21.786  0.00  0.00    +0.209 C 
ATOM      9  C   UNL     1      32.821 -16.632 -21.161  0.00  0.00    +0.122 C 
ATOM     10  C   UNL     1      35.233 -17.243 -21.399  0.00  0.00    +0.257 C 
ATOM     11  C   UNL     1      34.464 -14.861 -21.132  0.00  0.00    +0.254 C 
ATOM     12  C   UNL     1      34.510 -16.970 -24.127  0.00  0.00    +0.107 C 
ATOM     13  C   UNL     1      32.430 -15.497 -20.255  0.00  0.00    +0.231 C 
ATOM     14  C   UNL     1      35.239 -18.149 -23.740  0.00  0.00    +0.269 C 
ATOM     15  C   UNL     1      33.375 -15.046 -23.897  0.00  0.00    +0.066 C 
ATOM     16  C   UNL     1      34.149 -16.538 -25.390  0.00  0.00    +0.021 C 
ATOM     17  C   UNL     1      33.438 -15.323 -25.244  0.00  0.00    +0.018 C 
ATOM     18  H   UNL     1      33.389 -13.723 -19.767  0.00  0.00    +0.158 HD
ENDROOT
BRANCH   6  19
ATOM     19  C   UNL     1      36.247 -19.414 -21.897  0.00  0.00    +0.130 C 
BRANCH  19  22
ATOM     20 BR   UNL     1      32.879 -22.643 -17.859  0.00  0.00    -0.049 Br
ATOM     21  F   UNL     1      33.434 -19.613 -22.066  0.00  0.00    -0.204 F 
ATOM     22  C   UNL     1      35.424 -20.202 -20.913  0.00  0.00    +0.026 C 
ATOM     23  C   UNL     1      34.045 -20.253 -21.060  0.00  0.00    +0.138 C 
ATOM     24  C   UNL     1      36.057 -20.865 -19.872  0.00  0.00    +0.000 C 
ATOM     25  C   UNL     1      33.284 -20.984 -20.147  0.00  0.00    +0.036 C 
ATOM     26  C   UNL     1      35.297 -21.595 -18.958  0.00  0.00    +0.007 C 
ATOM     27  C   UNL     1      33.910 -21.655 -19.096  0.00  0.00    +0.037 C 
ENDBRANCH  19  22
ENDBRANCH   6  19
TORSDOF 2
ENDMDL
MODEL 5
REMARK VINA RESULT:      -8.2      4.195      6.323
REMARK  Name = 153948
REMARK  2 active torsions:
REMARK  status: ('A' for Active; 'I' for Inactive)
REMARK    1  A    between atoms: N_6  and  C_19
REMARK    2  A    between atoms: C_19  and  C_22
REMARK                            x       y       z     vdW  Elec       q    Type
REMARK                         _______ _______ _______ _____ _____    ______ ____
ROOT
ATOM      1  O   UNL     1      35.296 -14.023 -21.704  0.00  0.00    -0.272 OA
ATOM      2  O   UNL     1      34.631 -11.936 -24.062  0.00  0.00    -0.272 OA
ATOM      3  O   UNL     1      30.868 -12.369 -21.458  0.00  0.00    -0.275 OA
ATOM      4  O   UNL     1      34.975 -17.706 -24.517  0.00  0.00    -0.268 OA
ATOM      5  N   UNL     1      33.249 -14.561 -24.627  0.00  0.00    -0.270 N 
ATOM      6  N   UNL     1      35.033 -15.944 -22.992  0.00  0.00    -0.219 N 
ATOM      7  N   UNL     1      32.726 -11.839 -22.742  0.00  0.00    -0.254 N 
ATOM      8  C   UNL     1      33.511 -13.974 -23.315  0.00  0.00    +0.209 C 
ATOM      9  C   UNL     1      32.270 -14.099 -22.402  0.00  0.00    +0.122 C 
ATOM     10  C   UNL     1      34.703 -14.633 -22.601  0.00  0.00    +0.257 C 
ATOM     11  C   UNL     1      33.722 -12.471 -23.441  0.00  0.00    +0.254 C 
ATOM     12  C   UNL     1      33.736 -15.784 -25.004  0.00  0.00    +0.107 C 
ATOM     13  C   UNL     1      31.841 -12.684 -22.127  0.00  0.00    +0.231 C 
ATOM     14  C   UNL     1      34.610 -16.580 -24.182  0.00  0.00    +0.269 C 
ATOM     15  C   UNL     1      32.436 -14.056 -25.608  0.00  0.00    +0.066 C 
ATOM     16  C   UNL     1      33.233 -16.054 -26.263  0.00  0.00    +0.021 C 
ATOM     17  C   UNL     1      32.416 -14.963 -26.644  0.00  0.00    +0.018 C 
ATOM     18  H   UNL     1      32.652 -10.859 -22.687  0.00  0.00    +0.158 HD
ENDROOT
BRANCH   6  19
ATOM     19  C   UNL     1      35.887 -16.713 -22.093  0.00  0.00    +0.130 C 
BRANCH  19  22
ATOM     20 BR   UNL     1      32.904 -21.540 -19.666  0.00  0.00    -0.049 Br
ATOM     21  F   UNL     1      37.205 -19.079 -21.290  0.00  0.00    -0.204 F 
ATOM     22  C   UNL     1      35.160 -17.892 -21.501  0.00  0.00    +0.026 C 
ATOM     23  C   UNL     1      35.876 -19.021 -21.130  0.00  0.00    +0.138 C 
ATOM     24  C   UNL     1      33.784 -17.830 -21.334  0.00  0.00    +0.000 C 
ATOM     25  C   UNL     1      35.201 -20.112 -20.580  0.00  0.00    +0.036 C 
ATOM     26  C   UNL     1      33.109 -18.921 -20.786  0.00  0.00    +0.007 C 
ATOM     27  C   UNL     1      33.818 -20.062 -20.409  0.00  0.00    +0.037 C 
ENDBRANCH  19  22
ENDBRANCH   6  19
TORSDOF 2
ENDMDL
MODEL 6
REMARK VINA RESULT:      -7.5      5.280      9.090
REMARK  Name = 153948
REMARK  2 active torsions:
REMARK  status: ('A' for Active; 'I' for Inactive)
REMARK    1  A    between atoms: N_6  and  C_19
REMARK    2  A    between atoms: C_19  and  C_22
REMARK                            x       y       z     vdW  Elec       q    Type
REMARK                         _______ _______ _______ _____ _____    ______ ____
ROOT
ATOM      1  O   UNL     1      34.456 -16.872 -19.962  0.00  0.00    -0.272 OA
ATOM      2  O   UNL     1      32.673 -19.353 -20.974  0.00  0.00    -0.272 OA
ATOM      3  O   UNL     1      36.876 -20.940 -20.002  0.00  0.00    -0.275 OA
ATOM      4  O   UNL     1      35.011 -15.181 -24.253  0.00  0.00    -0.268 OA
ATOM      5  N   UNL     1      34.626 -18.572 -23.141  0.00  0.00    -0.270 N 
ATOM      6  N   UNL     1      34.905 -16.011 -22.077  0.00  0.00    -0.219 N 
ATOM      7  N   UNL     1      34.646 -20.379 -20.317  0.00  0.00    -0.254 N 
ATOM      8  C   UNL     1      34.840 -18.492 -21.697  0.00  0.00    +0.209 C 
ATOM      9  C   UNL     1      36.246 -19.015 -21.324  0.00  0.00    +0.122 C 
ATOM     10  C   UNL     1      34.701 -17.058 -21.159  0.00  0.00    +0.257 C 
ATOM     11  C   UNL     1      33.894 -19.436 -20.969  0.00  0.00    +0.254 C 
ATOM     12  C   UNL     1      34.685 -17.478 -23.963  0.00  0.00    +0.107 C 
ATOM     13  C   UNL     1      36.000 -20.229 -20.471  0.00  0.00    +0.231 C 
ATOM     14  C   UNL     1      34.892 -16.136 -23.486  0.00  0.00    +0.269 C 
ATOM     15  C   UNL     1      34.437 -19.709 -23.884  0.00  0.00    +0.066 C 
ATOM     16  C   UNL     1      34.513 -17.931 -25.258  0.00  0.00    +0.021 C 
ATOM     17  C   UNL     1      34.352 -19.336 -25.206  0.00  0.00    +0.018 C 
ATOM     18  H   UNL     1      34.248 -21.102 -19.782  0.00  0.00    +0.158 HD
ENDROOT
BRANCH   6  19
ATOM     19  C   UNL     1      35.153 -14.682 -21.529  0.00  0.00    +0.130 C 
BRANCH  19  22
ATOM     20 BR   UNL     1      30.324 -10.925 -22.336  0.00  0.00    -0.049 Br
ATOM     21  F   UNL     1      32.921 -14.667 -19.797  0.00  0.00    -0.204 F 
ATOM     22  C   UNL     1      33.974 -13.766 -21.725  0.00  0.00    +0.026 C 
ATOM     23  C   UNL     1      32.913 -13.816 -20.832  0.00  0.00    +0.138 C 
ATOM     24  C   UNL     1      33.967 -12.884 -22.796  0.00  0.00    +0.000 C 
ATOM     25  C   UNL     1      31.821 -12.965 -21.014  0.00  0.00    +0.036 C 
ATOM     26  C   UNL     1      32.876 -12.034 -22.979  0.00  0.00    +0.007 C 
ATOM     27  C   UNL     1      31.802 -12.075 -22.088  0.00  0.00    +0.037 C 
ENDBRANCH  19  22
ENDBRANCH   6  19
TORSDOF 2
ENDMDL
MODEL 7
REMARK VINA RESULT:      -7.4      3.798      6.510
REMARK  Name = 153948
REMARK  2 active torsions:
REMARK  status: ('A' for Active; 'I' for Inactive)
REMARK    1  A    between atoms: N_6  and  C_19
REMARK    2  A    between atoms: C_19  and  C_22
REMARK                            x       y       z     vdW  Elec       q    Type
REMARK                         _______ _______ _______ _____ _____    ______ ____
ROOT
ATOM      1  O   UNL     1      31.788  -8.107 -21.765  0.00  0.00    -0.272 OA
ATOM      2  O   UNL     1      29.831 -10.440 -22.807  0.00  0.00    -0.272 OA
ATOM      3  O   UNL     1      31.416 -11.670 -18.671  0.00  0.00    -0.275 OA
ATOM      4  O   UNL     1      35.255  -9.400 -24.572  0.00  0.00    -0.268 OA
ATOM      5  N   UNL     1      32.697 -11.371 -23.006  0.00  0.00    -0.270 N 
ATOM      6  N   UNL     1      33.632  -8.746 -23.033  0.00  0.00    -0.219 N 
ATOM      7  N   UNL     1      30.329 -11.120 -20.646  0.00  0.00    -0.254 N 
ATOM      8  C   UNL     1      32.135 -10.475 -21.998  0.00  0.00    +0.209 C 
ATOM      9  C   UNL     1      32.644 -10.852 -20.587  0.00  0.00    +0.122 C 
ATOM     10  C   UNL     1      32.484  -9.000 -22.258  0.00  0.00    +0.257 C 
ATOM     11  C   UNL     1      30.627 -10.663 -21.905  0.00  0.00    +0.254 C 
ATOM     12  C   UNL     1      33.718 -11.003 -23.841  0.00  0.00    +0.107 C 
ATOM     13  C   UNL     1      31.417 -11.272 -19.826  0.00  0.00    +0.231 C 
ATOM     14  C   UNL     1      34.291  -9.683 -23.861  0.00  0.00    +0.269 C 
ATOM     15  C   UNL     1      32.378 -12.689 -23.207  0.00  0.00    +0.066 C 
ATOM     16  C   UNL     1      34.043 -12.111 -24.601  0.00  0.00    +0.021 C 
ATOM     17  C   UNL     1      33.195 -13.172 -24.203  0.00  0.00    +0.018 C 
ATOM     18  H   UNL     1      29.411 -11.321 -20.355  0.00  0.00    +0.158 HD
ENDROOT
BRANCH   6  19
ATOM     19  C   UNL     1      34.190  -7.399 -22.975  0.00  0.00    +0.130 C 
BRANCH  19  22
ATOM     20 BR   UNL     1      32.829  -4.128 -28.029  0.00  0.00    -0.049 Br
ATOM     21  F   UNL     1      31.702  -6.113 -23.340  0.00  0.00    -0.204 F 
ATOM     22  C   UNL     1      33.857  -6.600 -24.208  0.00  0.00    +0.026 C 
ATOM     23  C   UNL     1      32.612  -5.997 -24.316  0.00  0.00    +0.138 C 
ATOM     24  C   UNL     1      34.800  -6.480 -25.218  0.00  0.00    +0.000 C 
ATOM     25  C   UNL     1      32.305  -5.257 -25.459  0.00  0.00    +0.036 C 
ATOM     26  C   UNL     1      34.494  -5.741 -26.360  0.00  0.00    +0.007 C 
ATOM     27  C   UNL     1      33.245  -5.129 -26.481  0.00  0.00    +0.037 C 
ENDBRANCH  19  22
ENDBRANCH   6  19
TORSDOF 2
ENDMDL
MODEL 8
REMARK VINA RESULT:      -7.3      4.371      7.244
REMARK  Name = 153948
REMARK  2 active torsions:
REMARK  status: ('A' for Active; 'I' for Inactive)
REMARK    1  A    between atoms: N_6  and  C_19
REMARK    2  A    between atoms: C_19  and  C_22
REMARK                            x       y       z     vdW  Elec       q    Type
REMARK                         _______ _______ _______ _____ _____    ______ ____
ROOT
ATOM      1  O   UNL     1      32.007 -13.482 -22.792  0.00  0.00    -0.272 OA
ATOM      2  O   UNL     1      31.817 -16.364 -21.374  0.00  0.00    -0.272 OA
ATOM      3  O   UNL     1      35.444 -14.160 -19.608  0.00  0.00    -0.275 OA
ATOM      4  O   UNL     1      33.744 -15.238 -26.725  0.00  0.00    -0.268 OA
ATOM      5  N   UNL     1      34.112 -16.361 -23.336  0.00  0.00    -0.270 N 
ATOM      6  N   UNL     1      33.001 -14.237 -24.757  0.00  0.00    -0.219 N 
ATOM      7  N   UNL     1      33.530 -15.331 -20.200  0.00  0.00    -0.254 N 
ATOM      8  C   UNL     1      33.638 -15.231 -22.541  0.00  0.00    +0.209 C 
ATOM      9  C   UNL     1      34.828 -14.457 -21.927  0.00  0.00    +0.122 C 
ATOM     10  C   UNL     1      32.794 -14.244 -23.364  0.00  0.00    +0.257 C 
ATOM     11  C   UNL     1      32.860 -15.726 -21.330  0.00  0.00    +0.254 C 
ATOM     12  C   UNL     1      34.140 -16.347 -24.705  0.00  0.00    +0.107 C 
ATOM     13  C   UNL     1      34.672 -14.613 -20.440  0.00  0.00    +0.231 C 
ATOM     14  C   UNL     1      33.642 -15.254 -25.499  0.00  0.00    +0.269 C 
ATOM     15  C   UNL     1      34.669 -17.523 -22.867  0.00  0.00    +0.066 C 
ATOM     16  C   UNL     1      34.714 -17.537 -25.115  0.00  0.00    +0.021 C 
ATOM     17  C   UNL     1      35.043 -18.279 -23.955  0.00  0.00    +0.018 C 
ATOM     18  H   UNL     1      33.216 -15.545 -19.292  0.00  0.00    +0.158 HD
ENDROOT
BRANCH   6  19
ATOM     19  C   UNL     1      32.510 -13.080 -25.498  0.00  0.00    +0.130 C 
BRANCH  19  22
ATOM     20 BR   UNL     1      35.010  -7.817 -23.464  0.00  0.00    -0.049 Br
ATOM     21  F   UNL     1      34.822 -11.940 -26.652  0.00  0.00    -0.204 F 
ATOM     22  C   UNL     1      33.121 -11.796 -25.003  0.00  0.00    +0.026 C 
ATOM     23  C   UNL     1      34.259 -11.296 -25.620  0.00  0.00    +0.138 C 
ATOM     24  C   UNL     1      32.536 -11.130 -23.935  0.00  0.00    +0.000 C 
ATOM     25  C   UNL     1      34.824 -10.106 -25.161  0.00  0.00    +0.036 C 
ATOM     26  C   UNL     1      33.101  -9.941 -23.474  0.00  0.00    +0.007 C 
ATOM     27  C   UNL     1      34.245  -9.428 -24.087  0.00  0.00    +0.037 C 
ENDBRANCH  19  22
ENDBRANCH   6  19
TORSDOF 2
ENDMDL
MODEL 9
REMARK VINA RESULT:      -7.2      4.636      6.604
REMARK  Name = 153948
REMARK  2 active torsions:
REMARK  status: ('A' for Active; 'I' for Inactive)
REMARK    1  A    between atoms: N_6  and  C_19
REMARK    2  A    between atoms: C_19  and  C_22
REMARK                            x       y       z     vdW  Elec       q    Type
REMARK                         _______ _______ _______ _____ _____    ______ ____
ROOT
ATOM      1  O   UNL     1      34.587 -15.837 -24.640  0.00  0.00    -0.272 OA
ATOM      2  O   UNL     1      31.656 -14.512 -24.734  0.00  0.00    -0.272 OA
ATOM      3  O   UNL     1      34.727 -11.205 -25.605  0.00  0.00    -0.275 OA
ATOM      4  O   UNL     1      34.638 -16.030 -19.999  0.00  0.00    -0.268 OA
ATOM      5  N   UNL     1      33.055 -13.672 -22.193  0.00  0.00    -0.270 N 
ATOM      6  N   UNL     1      34.773 -15.863 -22.320  0.00  0.00    -0.219 N 
ATOM      7  N   UNL     1      33.024 -12.771 -25.422  0.00  0.00    -0.254 N 
ATOM      8  C   UNL     1      33.675 -13.932 -23.490  0.00  0.00    +0.209 C 
ATOM      9  C   UNL     1      34.720 -12.842 -23.824  0.00  0.00    +0.122 C 
ATOM     10  C   UNL     1      34.372 -15.301 -23.547  0.00  0.00    +0.257 C 
ATOM     11  C   UNL     1      32.645 -13.804 -24.604  0.00  0.00    +0.254 C 
ATOM     12  C   UNL     1      33.381 -14.369 -21.060  0.00  0.00    +0.107 C 
ATOM     13  C   UNL     1      34.189 -12.151 -25.050  0.00  0.00    +0.231 C 
ATOM     14  C   UNL     1      34.310 -15.468 -21.044  0.00  0.00    +0.269 C 
ATOM     15  C   UNL     1      32.162 -12.677 -21.891  0.00  0.00    +0.066 C 
ATOM     16  C   UNL     1      32.665 -13.811 -20.017  0.00  0.00    +0.021 C 
ATOM     17  C   UNL     1      31.894 -12.747 -20.543  0.00  0.00    +0.018 C 
ATOM     18  H   UNL     1      32.503 -12.496 -26.210  0.00  0.00    +0.158 HD
ENDROOT
BRANCH   6  19
ATOM     19  C   UNL     1      35.749 -16.945 -22.369  0.00  0.00    +0.130 C 
BRANCH  19  22
ATOM     20 BR   UNL     1      33.729 -21.996 -19.456  0.00  0.00    -0.049 Br
ATOM     21  F   UNL     1      37.489 -18.804 -21.146  0.00  0.00    -0.204 F 
ATOM     22  C   UNL     1      35.258 -18.178 -21.658  0.00  0.00    +0.026 C 
ATOM     23  C   UNL     1      36.173 -19.046 -21.081  0.00  0.00    +0.138 C 
ATOM     24  C   UNL     1      33.894 -18.428 -21.589  0.00  0.00    +0.000 C 
ATOM     25  C   UNL     1      35.716 -20.188 -20.421  0.00  0.00    +0.036 C 
ATOM     26  C   UNL     1      33.437 -19.569 -20.932  0.00  0.00    +0.007 C 
ATOM     27  C   UNL     1      34.348 -20.450 -20.347  0.00  0.00    +0.037 C 
ENDBRANCH  19  22
ENDBRANCH   6  19
TORSDOF 2
ENDMDL
