MODEL 1
REMARK VINA RESULT:      -7.0      0.000      0.000
REMARK  Name = 120231
REMARK  2 active torsions:
REMARK  status: ('A' for Active; 'I' for Inactive)
REMARK    1  A    between atoms: C_2  and  S_8
REMARK    2  A    between atoms: S_8  and  N_11
REMARK                            x       y       z     vdW  Elec       q    Type
REMARK                         _______ _______ _______ _____ _____    ______ ____
ROOT
ATOM      1  F   UNL     1      35.411 -18.089 -21.891  0.00  0.00    -0.204 F 
ATOM      2  C   UNL     1      34.256 -21.367 -19.663  0.00  0.00    +0.122 C 
ATOM      3  C   UNL     1      35.611 -21.081 -19.833  0.00  0.00    +0.022 C 
ATOM      4  C   UNL     1      33.291 -20.545 -20.246  0.00  0.00    +0.022 C 
ATOM      5  C   UNL     1      36.001 -19.973 -20.585  0.00  0.00    +0.031 C 
ATOM      6  C   UNL     1      33.681 -19.437 -20.998  0.00  0.00    +0.031 C 
ATOM      7  C   UNL     1      35.036 -19.152 -21.168  0.00  0.00    +0.140 C 
ENDROOT
BRANCH   2   8
ATOM      8  S   UNL     1      33.767 -22.754 -18.721  0.00  0.00    +0.057 S 
ATOM      9  O   UNL     1      32.462 -22.477 -18.139  0.00  0.00    -0.153 OA
ATOM     10  O   UNL     1      33.961 -23.951 -19.527  0.00  0.00    -0.153 OA
BRANCH   8  11
ATOM     11  N   UNL     1      34.941 -22.733 -17.479  0.00  0.00    -0.203 NA
ATOM     12  H   UNL     1      34.504 -22.440 -16.605  0.00  0.00    +0.144 HD
ATOM     13  H   UNL     1      35.684 -22.078 -17.724  0.00  0.00    +0.144 HD
ENDBRANCH   8  11
ENDBRANCH   2   8
TORSDOF 2
ENDMDL
MODEL 2
REMARK VINA RESULT:      -7.0      0.068      1.458
REMARK  Name = 120231
REMARK  2 active torsions:
REMARK  status: ('A' for Active; 'I' for Inactive)
REMARK    1  A    between atoms: C_2  and  S_8
REMARK    2  A    between atoms: S_8  and  N_11
REMARK                            x       y       z     vdW  Elec       q    Type
REMARK                         _______ _______ _______ _____ _____    ______ ____
ROOT
ATOM      1  F   UNL     1      35.490 -18.174 -21.914  0.00  0.00    -0.204 F 
ATOM      2  C   UNL     1      34.262 -21.402 -19.651  0.00  0.00    +0.122 C 
ATOM      3  C   UNL     1      33.316 -20.567 -20.247  0.00  0.00    +0.022 C 
ATOM      4  C   UNL     1      35.623 -21.146 -19.820  0.00  0.00    +0.022 C 
ATOM      5  C   UNL     1      33.731 -19.478 -21.012  0.00  0.00    +0.031 C 
ATOM      6  C   UNL     1      36.038 -20.056 -20.585  0.00  0.00    +0.031 C 
ATOM      7  C   UNL     1      35.092 -19.222 -21.180  0.00  0.00    +0.140 C 
ENDROOT
BRANCH   2   8
ATOM      8  S   UNL     1      33.742 -22.767 -18.694  0.00  0.00    +0.057 S 
ATOM      9  O   UNL     1      32.438 -22.459 -18.126  0.00  0.00    -0.153 OA
ATOM     10  O   UNL     1      33.921 -23.979 -19.481  0.00  0.00    -0.153 OA
BRANCH   8  11
ATOM     11  N   UNL     1      34.906 -22.748 -17.443  0.00  0.00    -0.203 NA
ATOM     12  H   UNL     1      35.838 -22.858 -17.845  0.00  0.00    +0.144 HD
ATOM     13  H   UNL     1      34.722 -23.514 -16.795  0.00  0.00    +0.144 HD
ENDBRANCH   8  11
ENDBRANCH   2   8
TORSDOF 2
ENDMDL
MODEL 3
REMARK VINA RESULT:      -6.5      4.302      4.591
REMARK  Name = 120231
REMARK  2 active torsions:
REMARK  status: ('A' for Active; 'I' for Inactive)
REMARK    1  A    between atoms: C_2  and  S_8
REMARK    2  A    between atoms: S_8  and  N_11
REMARK                            x       y       z     vdW  Elec       q    Type
REMARK                         _______ _______ _______ _____ _____    ______ ____
ROOT
ATOM      1  F   UNL     1      33.476 -22.924 -18.624  0.00  0.00    -0.204 F 
ATOM      2  C   UNL     1      34.966 -19.744 -20.797  0.00  0.00    +0.122 C 
ATOM      3  C   UNL     1      35.840 -20.659 -20.208  0.00  0.00    +0.022 C 
ATOM      4  C   UNL     1      33.588 -19.905 -20.651  0.00  0.00    +0.022 C 
ATOM      5  C   UNL     1      35.336 -21.733 -19.475  0.00  0.00    +0.031 C 
ATOM      6  C   UNL     1      33.084 -20.979 -19.918  0.00  0.00    +0.031 C 
ATOM      7  C   UNL     1      33.959 -21.893 -19.330  0.00  0.00    +0.140 C 
ENDROOT
BRANCH   2   8
ATOM      8  S   UNL     1      35.596 -18.400 -21.714  0.00  0.00    +0.057 S 
ATOM      9  O   UNL     1      37.038 -18.562 -21.836  0.00  0.00    -0.153 OA
ATOM     10  O   UNL     1      34.784 -18.235 -22.911  0.00  0.00    -0.153 OA
BRANCH   8  11
ATOM     11  N   UNL     1      35.275 -17.101 -20.650  0.00  0.00    -0.203 NA
ATOM     12  H   UNL     1      34.775 -16.367 -21.152  0.00  0.00    +0.144 HD
ATOM     13  H   UNL     1      36.155 -16.729 -20.292  0.00  0.00    +0.144 HD
ENDBRANCH   8  11
ENDBRANCH   2   8
TORSDOF 2
ENDMDL
MODEL 4
REMARK VINA RESULT:      -6.5      4.301      4.817
REMARK  Name = 120231
REMARK  2 active torsions:
REMARK  status: ('A' for Active; 'I' for Inactive)
REMARK    1  A    between atoms: C_2  and  S_8
REMARK    2  A    between atoms: S_8  and  N_11
REMARK                            x       y       z     vdW  Elec       q    Type
REMARK                         _______ _______ _______ _____ _____    ______ ____
ROOT
ATOM      1  F   UNL     1      33.529 -22.937 -18.608  0.00  0.00    -0.204 F 
ATOM      2  C   UNL     1      34.961 -19.740 -20.795  0.00  0.00    +0.122 C 
ATOM      3  C   UNL     1      33.586 -19.928 -20.651  0.00  0.00    +0.022 C 
ATOM      4  C   UNL     1      35.852 -20.633 -20.200  0.00  0.00    +0.022 C 
ATOM      5  C   UNL     1      33.103 -21.007 -19.912  0.00  0.00    +0.031 C 
ATOM      6  C   UNL     1      35.369 -21.712 -19.460  0.00  0.00    +0.031 C 
ATOM      7  C   UNL     1      33.995 -21.899 -19.317  0.00  0.00    +0.140 C 
ENDROOT
BRANCH   2   8
ATOM      8  S   UNL     1      35.566 -18.389 -21.721  0.00  0.00    +0.057 S 
ATOM      9  O   UNL     1      37.004 -18.548 -21.880  0.00  0.00    -0.153 OA
ATOM     10  O   UNL     1      34.723 -18.218 -22.895  0.00  0.00    -0.153 OA
BRANCH   8  11
ATOM     11  N   UNL     1      35.271 -17.097 -20.641  0.00  0.00    -0.203 NA
ATOM     12  H   UNL     1      35.591 -16.224 -21.061  0.00  0.00    +0.144 HD
ATOM     13  H   UNL     1      35.775 -17.261 -19.769  0.00  0.00    +0.144 HD
ENDBRANCH   8  11
ENDBRANCH   2   8
TORSDOF 2
ENDMDL
MODEL 5
REMARK VINA RESULT:      -6.3      5.610      6.197
REMARK  Name = 120231
REMARK  2 active torsions:
REMARK  status: ('A' for Active; 'I' for Inactive)
REMARK    1  A    between atoms: C_2  and  S_8
REMARK    2  A    between atoms: S_8  and  N_11
REMARK                            x       y       z     vdW  Elec       q    Type
REMARK                         _______ _______ _______ _____ _____    ______ ____
ROOT
ATOM      1  F   UNL     1      35.021 -20.168 -24.768  0.00  0.00    -0.204 F 
ATOM      2  C   UNL     1      34.486 -16.777 -22.473  0.00  0.00    +0.122 C 
ATOM      3  C   UNL     1      34.603 -16.671 -23.859  0.00  0.00    +0.022 C 
ATOM      4  C   UNL     1      34.550 -18.030 -21.862  0.00  0.00    +0.022 C 
ATOM      5  C   UNL     1      34.783 -17.816 -24.634  0.00  0.00    +0.031 C 
ATOM      6  C   UNL     1      34.730 -19.175 -22.637  0.00  0.00    +0.031 C 
ATOM      7  C   UNL     1      34.847 -19.069 -24.023  0.00  0.00    +0.140 C 
ENDROOT
BRANCH   2   8
ATOM      8  S   UNL     1      34.260 -15.343 -21.503  0.00  0.00    +0.057 S 
ATOM      9  O   UNL     1      34.942 -15.537 -20.231  0.00  0.00    -0.153 OA
ATOM     10  O   UNL     1      34.570 -14.179 -22.320  0.00  0.00    -0.153 OA
BRANCH   8  11
ATOM     11  N   UNL     1      32.573 -15.393 -21.237  0.00  0.00    -0.203 NA
ATOM     12  H   UNL     1      32.086 -15.111 -22.089  0.00  0.00    +0.144 HD
ATOM     13  H   UNL     1      32.329 -14.756 -20.479  0.00  0.00    +0.144 HD
ENDBRANCH   8  11
ENDBRANCH   2   8
TORSDOF 2
ENDMDL
MODEL 6
REMARK VINA RESULT:      -6.2      6.812      7.651
REMARK  Name = 120231
REMARK  2 active torsions:
REMARK  status: ('A' for Active; 'I' for Inactive)
REMARK    1  A    between atoms: C_2  and  S_8
REMARK    2  A    between atoms: S_8  and  N_11
REMARK                            x       y       z     vdW  Elec       q    Type
REMARK                         _______ _______ _______ _____ _____    ______ ____
ROOT
ATOM      1  F   UNL     1      33.255 -24.765 -13.829  0.00  0.00    -0.204 F 
ATOM      2  C   UNL     1      29.722 -23.549 -15.586  0.00  0.00    +0.122 C 
ATOM      3  C   UNL     1      30.934 -22.997 -16.001  0.00  0.00    +0.022 C 
ATOM      4  C   UNL     1      29.704 -24.512 -14.577  0.00  0.00    +0.022 C 
ATOM      5  C   UNL     1      32.128 -23.409 -15.408  0.00  0.00    +0.031 C 
ATOM      6  C   UNL     1      30.897 -24.923 -13.984  0.00  0.00    +0.031 C 
ATOM      7  C   UNL     1      32.109 -24.372 -14.399  0.00  0.00    +0.140 C 
ENDROOT
BRANCH   2   8
ATOM      8  S   UNL     1      28.228 -23.033 -16.329  0.00  0.00    +0.057 S 
ATOM      9  O   UNL     1      27.208 -22.941 -15.294  0.00  0.00    -0.153 OA
ATOM     10  O   UNL     1      28.506 -21.882 -17.176  0.00  0.00    -0.153 OA
BRANCH   8  11
ATOM     11  N   UNL     1      27.881 -24.377 -17.326  0.00  0.00    -0.203 NA
ATOM     12  H   UNL     1      28.449 -24.327 -18.172  0.00  0.00    +0.144 HD
ATOM     13  H   UNL     1      26.893 -24.366 -17.579  0.00  0.00    +0.144 HD
ENDBRANCH   8  11
ENDBRANCH   2   8
TORSDOF 2
ENDMDL
MODEL 7
REMARK VINA RESULT:      -6.1      5.129      5.868
REMARK  Name = 120231
REMARK  2 active torsions:
REMARK  status: ('A' for Active; 'I' for Inactive)
REMARK    1  A    between atoms: C_2  and  S_8
REMARK    2  A    between atoms: S_8  and  N_11
REMARK                            x       y       z     vdW  Elec       q    Type
REMARK                         _______ _______ _______ _____ _____    ______ ____
ROOT
ATOM      1  F   UNL     1      33.502 -15.351 -26.413  0.00  0.00    -0.204 F 
ATOM      2  C   UNL     1      34.768 -17.054 -22.871  0.00  0.00    +0.122 C 
ATOM      3  C   UNL     1      34.212 -15.775 -22.871  0.00  0.00    +0.022 C 
ATOM      4  C   UNL     1      34.897 -17.758 -24.069  0.00  0.00    +0.022 C 
ATOM      5  C   UNL     1      33.784 -15.200 -24.067  0.00  0.00    +0.031 C 
ATOM      6  C   UNL     1      34.469 -17.183 -25.265  0.00  0.00    +0.031 C 
ATOM      7  C   UNL     1      33.912 -15.904 -25.264  0.00  0.00    +0.140 C 
ENDROOT
BRANCH   2   8
ATOM      8  S   UNL     1      35.304 -17.774 -21.373  0.00  0.00    +0.057 S 
ATOM      9  O   UNL     1      36.543 -18.495 -21.628  0.00  0.00    -0.153 OA
ATOM     10  O   UNL     1      35.259 -16.759 -20.330  0.00  0.00    -0.153 OA
BRANCH   8  11
ATOM     11  N   UNL     1      34.056 -18.906 -21.092  0.00  0.00    -0.203 NA
ATOM     12  H   UNL     1      33.251 -18.430 -20.683  0.00  0.00    +0.144 HD
ATOM     13  H   UNL     1      34.388 -19.626 -20.450  0.00  0.00    +0.144 HD
ENDBRANCH   8  11
ENDBRANCH   2   8
TORSDOF 2
ENDMDL
MODEL 8
REMARK VINA RESULT:      -6.0      7.004      7.602
REMARK  Name = 120231
REMARK  2 active torsions:
REMARK  status: ('A' for Active; 'I' for Inactive)
REMARK    1  A    between atoms: C_2  and  S_8
REMARK    2  A    between atoms: S_8  and  N_11
REMARK                            x       y       z     vdW  Elec       q    Type
REMARK                         _______ _______ _______ _____ _____    ______ ____
ROOT
ATOM      1  F   UNL     1      34.003 -23.078 -16.627  0.00  0.00    -0.204 F 
ATOM      2  C   UNL     1      35.913 -23.873 -13.053  0.00  0.00    +0.122 C 
ATOM      3  C   UNL     1      36.613 -23.274 -14.100  0.00  0.00    +0.022 C 
ATOM      4  C   UNL     1      34.567 -24.204 -13.213  0.00  0.00    +0.022 C 
ATOM      5  C   UNL     1      35.967 -23.005 -15.307  0.00  0.00    +0.031 C 
ATOM      6  C   UNL     1      33.921 -23.934 -14.420  0.00  0.00    +0.031 C 
ATOM      7  C   UNL     1      34.622 -23.335 -15.467  0.00  0.00    +0.140 C 
ENDROOT
BRANCH   2   8
ATOM      8  S   UNL     1      36.720 -24.210 -11.542  0.00  0.00    +0.057 S 
ATOM      9  O   UNL     1      37.677 -25.285 -11.762  0.00  0.00    -0.153 OA
ATOM     10  O   UNL     1      37.168 -22.950 -10.966  0.00  0.00    -0.153 OA
BRANCH   8  11
ATOM     11  N   UNL     1      35.422 -24.811 -10.607  0.00  0.00    -0.203 NA
ATOM     12  H   UNL     1      35.420 -24.351  -9.695  0.00  0.00    +0.144 HD
ATOM     13  H   UNL     1      35.532 -25.817 -10.480  0.00  0.00    +0.144 HD
ENDBRANCH   8  11
ENDBRANCH   2   8
TORSDOF 2
ENDMDL
MODEL 9
REMARK VINA RESULT:      -6.0      6.927      7.526
REMARK  Name = 120231
REMARK  2 active torsions:
REMARK  status: ('A' for Active; 'I' for Inactive)
REMARK    1  A    between atoms: C_2  and  S_8
REMARK    2  A    between atoms: S_8  and  N_11
REMARK                            x       y       z     vdW  Elec       q    Type
REMARK                         _______ _______ _______ _____ _____    ______ ____
ROOT
ATOM      1  F   UNL     1      34.129 -22.745 -16.617  0.00  0.00    -0.204 F 
ATOM      2  C   UNL     1      35.654 -24.185 -13.059  0.00  0.00    +0.122 C 
ATOM      3  C   UNL     1      36.509 -23.632 -14.013  0.00  0.00    +0.022 C 
ATOM      4  C   UNL     1      34.283 -24.251 -13.309  0.00  0.00    +0.022 C 
ATOM      5  C   UNL     1      35.994 -23.145 -15.214  0.00  0.00    +0.031 C 
ATOM      6  C   UNL     1      33.767 -23.764 -14.510  0.00  0.00    +0.031 C 
ATOM      7  C   UNL     1      34.623 -23.211 -15.462  0.00  0.00    +0.140 C 
ENDROOT
BRANCH   2   8
ATOM      8  S   UNL     1      36.299 -24.794 -11.556  0.00  0.00    +0.057 S 
ATOM      9  O   UNL     1      37.441 -23.974 -11.180  0.00  0.00    -0.153 OA
ATOM     10  O   UNL     1      35.198 -24.975 -10.620  0.00  0.00    -0.153 OA
BRANCH   8  11
ATOM     11  N   UNL     1      36.862 -26.332 -12.044  0.00  0.00    -0.203 NA
ATOM     12  H   UNL     1      37.287 -26.260 -12.969  0.00  0.00    +0.144 HD
ATOM     13  H   UNL     1      36.079 -26.985 -12.080  0.00  0.00    +0.144 HD
ENDBRANCH   8  11
ENDBRANCH   2   8
TORSDOF 2
ENDMDL
