MODEL 1
REMARK VINA RESULT:      -9.5      0.000      0.000
REMARK  Name = 11608401
REMARK  3 active torsions:
REMARK  status: ('A' for Active; 'I' for Inactive)
REMARK    1  A    between atoms: C_1  and  C_11
REMARK    2  A    between atoms: C_2  and  C_18
REMARK    3  A    between atoms: C_18  and  N_19
REMARK                            x       y       z     vdW  Elec       q    Type
REMARK                         _______ _______ _______ _____ _____    ______ ____
ROOT
ATOM      1  C   UNL     1      34.461 -19.319 -21.331  0.00  0.00    +0.015 C 
ATOM      2  C   UNL     1      34.196 -21.415 -19.492  0.00  0.00    -0.044 C 
ATOM      3  C   UNL     1      35.593 -19.995 -20.858  0.00  0.00    +0.001 C 
ATOM      4  C   UNL     1      33.195 -19.703 -20.873  0.00  0.00    +0.001 C 
ATOM      5  C   UNL     1      35.460 -21.039 -19.942  0.00  0.00    -0.006 C 
ATOM      6  C   UNL     1      33.062 -20.746 -19.956  0.00  0.00    -0.006 C 
ENDROOT
BRANCH   1  11
ATOM      7  N   UNL     1      34.420 -16.232 -20.746  0.00  0.00    -0.271 NA
ATOM      8  N   UNL     1      34.764 -18.550 -23.580  0.00  0.00    -0.247 NA
ATOM      9  N   UNL     1      34.644 -14.670 -22.320  0.00  0.00    -0.307 N 
ATOM     10  N   UNL     1      34.872 -16.193 -24.201  0.00  0.00    -0.232 NA
ATOM     11  C   UNL     1      34.597 -18.245 -22.274  0.00  0.00    +0.077 C 
ATOM     12  C   UNL     1      34.566 -16.909 -21.923  0.00  0.00    +0.150 C 
ATOM     13  C   UNL     1      34.704 -15.917 -22.884  0.00  0.00    +0.123 C 
ATOM     14  C   UNL     1      34.474 -14.894 -21.035  0.00  0.00    +0.163 C 
ATOM     15  C   UNL     1      34.889 -17.520 -24.450  0.00  0.00    +0.251 C 
ATOM     16  H   UNL     1      34.300 -16.631 -19.854  0.00  0.00    +0.125 HD
ATOM     17  H   UNL     1      34.714 -13.799 -22.775  0.00  0.00    +0.149 HD
ENDBRANCH   1  11
BRANCH   2  18
ATOM     18  C   UNL     1      34.053 -22.531 -18.513  0.00  0.00    -0.054 C 
BRANCH  18  19
ATOM     19  N   UNL     1      32.670 -22.680 -18.140  0.00  0.00    +0.385 N 
ATOM     20  C   UNL     1      32.533 -23.260 -16.804  0.00  0.00    -0.105 C 
ATOM     21  H   UNL     1      32.209 -23.289 -18.815  0.00  0.00    -0.084 HD
ATOM     22  H   UNL     1      32.240 -21.754 -18.133  0.00  0.00    -0.084 HD
ENDBRANCH  18  19
ENDBRANCH   2  18
TORSDOF 3
ENDMDL
MODEL 2
REMARK VINA RESULT:      -9.4      0.664      2.448
REMARK  Name = 11608401
REMARK  3 active torsions:
REMARK  status: ('A' for Active; 'I' for Inactive)
REMARK    1  A    between atoms: C_1  and  C_11
REMARK    2  A    between atoms: C_2  and  C_18
REMARK    3  A    between atoms: C_18  and  N_19
REMARK                            x       y       z     vdW  Elec       q    Type
REMARK                         _______ _______ _______ _____ _____    ______ ____
ROOT
ATOM      1  C   UNL     1      34.401 -19.029 -21.019  0.00  0.00    +0.015 C 
ATOM      2  C   UNL     1      34.108 -21.431 -19.608  0.00  0.00    -0.044 C 
ATOM      3  C   UNL     1      33.127 -19.501 -20.679  0.00  0.00    +0.001 C 
ATOM      4  C   UNL     1      35.527 -19.773 -20.645  0.00  0.00    +0.001 C 
ATOM      5  C   UNL     1      32.981 -20.697 -19.976  0.00  0.00    -0.006 C 
ATOM      6  C   UNL     1      35.382 -20.969 -19.943  0.00  0.00    -0.006 C 
ENDROOT
BRANCH   1  11
ATOM      7  N   UNL     1      34.561 -18.636 -24.132  0.00  0.00    -0.271 NA
ATOM      8  N   UNL     1      34.638 -16.645 -21.040  0.00  0.00    -0.247 NA
ATOM      9  N   UNL     1      34.797 -16.651 -25.119  0.00  0.00    -0.307 N 
ATOM     10  N   UNL     1      34.850 -15.326 -23.082  0.00  0.00    -0.232 NA
ATOM     11  C   UNL     1      34.551 -17.798 -21.741  0.00  0.00    +0.077 C 
ATOM     12  C   UNL     1      34.613 -17.721 -23.119  0.00  0.00    +0.150 C 
ATOM     13  C   UNL     1      34.759 -16.497 -23.758  0.00  0.00    +0.123 C 
ATOM     14  C   UNL     1      34.676 -17.948 -25.311  0.00  0.00    +0.163 C 
ATOM     15  C   UNL     1      34.780 -15.496 -21.745  0.00  0.00    +0.251 C 
ATOM     16  H   UNL     1      34.460 -19.610 -24.033  0.00  0.00    +0.125 HD
ATOM     17  H   UNL     1      34.893 -15.949 -25.802  0.00  0.00    +0.149 HD
ENDBRANCH   1  11
BRANCH   2  18
ATOM     18  C   UNL     1      33.953 -22.710 -18.857  0.00  0.00    -0.054 C 
BRANCH  18  19
ATOM     19  N   UNL     1      32.693 -22.718 -18.160  0.00  0.00    +0.385 N 
ATOM     20  C   UNL     1      32.828 -23.271 -16.812  0.00  0.00    -0.105 C 
ATOM     21  H   UNL     1      32.027 -23.284 -18.685  0.00  0.00    -0.084 HD
ATOM     22  H   UNL     1      32.368 -21.754 -18.079  0.00  0.00    -0.084 HD
ENDBRANCH  18  19
ENDBRANCH   2  18
TORSDOF 3
ENDMDL
MODEL 3
REMARK VINA RESULT:      -9.0      1.738      2.178
REMARK  Name = 11608401
REMARK  3 active torsions:
REMARK  status: ('A' for Active; 'I' for Inactive)
REMARK    1  A    between atoms: C_1  and  C_11
REMARK    2  A    between atoms: C_2  and  C_18
REMARK    3  A    between atoms: C_18  and  N_19
REMARK                            x       y       z     vdW  Elec       q    Type
REMARK                         _______ _______ _______ _____ _____    ______ ____
ROOT
ATOM      1  C   UNL     1      35.115 -18.869 -21.851  0.00  0.00    +0.015 C 
ATOM      2  C   UNL     1      35.635 -20.731 -19.824  0.00  0.00    -0.044 C 
ATOM      3  C   UNL     1      34.075 -19.631 -21.303  0.00  0.00    +0.001 C 
ATOM      4  C   UNL     1      36.418 -19.050 -21.373  0.00  0.00    +0.001 C 
ATOM      5  C   UNL     1      34.334 -20.558 -20.294  0.00  0.00    -0.006 C 
ATOM      6  C   UNL     1      36.678 -19.978 -20.364  0.00  0.00    -0.006 C 
ENDROOT
BRANCH   1  11
ATOM      7  N   UNL     1      34.668 -15.774 -21.546  0.00  0.00    -0.271 NA
ATOM      8  N   UNL     1      34.770 -18.354 -24.165  0.00  0.00    -0.247 NA
ATOM      9  N   UNL     1      34.259 -14.407 -23.258  0.00  0.00    -0.307 N 
ATOM     10  N   UNL     1      34.323 -16.104 -24.997  0.00  0.00    -0.232 NA
ATOM     11  C   UNL     1      34.848 -17.915 -22.889  0.00  0.00    +0.077 C 
ATOM     12  C   UNL     1      34.663 -16.565 -22.659  0.00  0.00    +0.150 C 
ATOM     13  C   UNL     1      34.408 -15.693 -23.709  0.00  0.00    +0.123 C 
ATOM     14  C   UNL     1      34.421 -14.490 -21.955  0.00  0.00    +0.163 C 
ATOM     15  C   UNL     1      34.516 -17.434 -25.127  0.00  0.00    +0.251 C 
ATOM     16  H   UNL     1      34.821 -16.071 -20.620  0.00  0.00    +0.125 HD
ATOM     17  H   UNL     1      34.073 -13.600 -23.791  0.00  0.00    +0.149 HD
ENDBRANCH   1  11
BRANCH   2  18
ATOM     18  C   UNL     1      35.914 -21.722 -18.745  0.00  0.00    -0.054 C 
BRANCH  18  19
ATOM     19  N   UNL     1      36.877 -21.181 -17.821  0.00  0.00    +0.385 N 
ATOM     20  C   UNL     1      36.993 -22.009 -16.620  0.00  0.00    -0.105 C 
ATOM     21  H   UNL     1      36.584 -20.243 -17.549  0.00  0.00    -0.084 HD
ATOM     22  H   UNL     1      37.786 -21.159 -18.284  0.00  0.00    -0.084 HD
ENDBRANCH  18  19
ENDBRANCH   2  18
TORSDOF 3
ENDMDL
MODEL 4
REMARK VINA RESULT:      -8.5      1.584      2.674
REMARK  Name = 11608401
REMARK  3 active torsions:
REMARK  status: ('A' for Active; 'I' for Inactive)
REMARK    1  A    between atoms: C_1  and  C_11
REMARK    2  A    between atoms: C_2  and  C_18
REMARK    3  A    between atoms: C_18  and  N_19
REMARK                            x       y       z     vdW  Elec       q    Type
REMARK                         _______ _______ _______ _____ _____    ______ ____
ROOT
ATOM      1  C   UNL     1      34.903 -18.210 -21.301  0.00  0.00    +0.015 C 
ATOM      2  C   UNL     1      35.354 -20.738 -20.182  0.00  0.00    -0.044 C 
ATOM      3  C   UNL     1      36.209 -18.665 -21.079  0.00  0.00    +0.001 C 
ATOM      4  C   UNL     1      33.825 -19.035 -20.956  0.00  0.00    +0.001 C 
ATOM      5  C   UNL     1      36.433 -19.923 -20.522  0.00  0.00    -0.006 C 
ATOM      6  C   UNL     1      34.049 -20.293 -20.398  0.00  0.00    -0.006 C 
ENDROOT
BRANCH   1  11
ATOM      7  N   UNL     1      34.455 -17.504 -24.330  0.00  0.00    -0.271 NA
ATOM      8  N   UNL     1      34.634 -15.842 -21.054  0.00  0.00    -0.247 NA
ATOM      9  N   UNL     1      34.105 -15.435 -25.081  0.00  0.00    -0.307 N 
ATOM     10  N   UNL     1      34.223 -14.326 -22.920  0.00  0.00    -0.232 NA
ATOM     11  C   UNL     1      34.671 -16.915 -21.875  0.00  0.00    +0.077 C 
ATOM     12  C   UNL     1      34.484 -16.699 -23.227  0.00  0.00    +0.150 C 
ATOM     13  C   UNL     1      34.265 -15.420 -23.719  0.00  0.00    +0.123 C 
ATOM     14  C   UNL     1      34.225 -16.702 -25.416  0.00  0.00    +0.163 C 
ATOM     15  C   UNL     1      34.415 -14.631 -21.619  0.00  0.00    +0.251 C 
ATOM     16  H   UNL     1      34.576 -18.481 -24.342  0.00  0.00    +0.125 HD
ATOM     17  H   UNL     1      33.939 -14.668 -25.676  0.00  0.00    +0.149 HD
ENDBRANCH   1  11
BRANCH   2  18
ATOM     18  C   UNL     1      35.594 -22.084 -19.586  0.00  0.00    -0.054 C 
BRANCH  18  19
ATOM     19  N   UNL     1      35.445 -22.017 -18.154  0.00  0.00    +0.385 N 
ATOM     20  C   UNL     1      36.740 -21.891 -17.485  0.00  0.00    -0.105 C 
ATOM     21  H   UNL     1      34.985 -22.867 -17.829  0.00  0.00    -0.084 HD
ATOM     22  H   UNL     1      34.887 -21.193 -17.930  0.00  0.00    -0.084 HD
ENDBRANCH  18  19
ENDBRANCH   2  18
TORSDOF 3
ENDMDL
MODEL 5
REMARK VINA RESULT:      -8.5      7.171      9.019
REMARK  Name = 11608401
REMARK  3 active torsions:
REMARK  status: ('A' for Active; 'I' for Inactive)
REMARK    1  A    between atoms: C_1  and  C_11
REMARK    2  A    between atoms: C_2  and  C_18
REMARK    3  A    between atoms: C_18  and  N_19
REMARK                            x       y       z     vdW  Elec       q    Type
REMARK                         _______ _______ _______ _____ _____    ______ ____
ROOT
ATOM      1  C   UNL     1      33.992 -23.421 -15.528  0.00  0.00    +0.015 C 
ATOM      2  C   UNL     1      31.197 -23.260 -15.622  0.00  0.00    -0.044 C 
ATOM      3  C   UNL     1      33.332 -23.241 -16.751  0.00  0.00    +0.001 C 
ATOM      4  C   UNL     1      33.236 -23.521 -14.354  0.00  0.00    +0.001 C 
ATOM      5  C   UNL     1      31.941 -23.160 -16.797  0.00  0.00    -0.006 C 
ATOM      6  C   UNL     1      31.844 -23.442 -14.400  0.00  0.00    -0.006 C 
ENDROOT
BRANCH   1  11
ATOM      7  N   UNL     1      35.748 -25.910 -14.761  0.00  0.00    -0.271 NA
ATOM      8  N   UNL     1      36.144 -22.403 -15.794  0.00  0.00    -0.247 NA
ATOM      9  N   UNL     1      37.977 -25.891 -14.729  0.00  0.00    -0.307 N 
ATOM     10  N   UNL     1      38.250 -23.573 -15.410  0.00  0.00    -0.232 NA
ATOM     11  C   UNL     1      35.424 -23.503 -15.480  0.00  0.00    +0.077 C 
ATOM     12  C   UNL     1      36.114 -24.647 -15.129  0.00  0.00    +0.150 C 
ATOM     13  C   UNL     1      37.502 -24.661 -15.102  0.00  0.00    +0.123 C 
ATOM     14  C   UNL     1      36.898 -26.619 -14.532  0.00  0.00    +0.163 C 
ATOM     15  C   UNL     1      37.494 -22.505 -15.740  0.00  0.00    +0.251 C 
ATOM     16  H   UNL     1      34.828 -26.250 -14.677  0.00  0.00    +0.125 HD
ATOM     17  H   UNL     1      38.916 -26.169 -14.630  0.00  0.00    +0.149 HD
ENDBRANCH   1  11
BRANCH   2  18
ATOM     18  C   UNL     1      29.709 -23.175 -15.671  0.00  0.00    -0.054 C 
BRANCH  18  19
ATOM     19  N   UNL     1      29.288 -22.720 -16.972  0.00  0.00    +0.385 N 
ATOM     20  C   UNL     1      27.830 -22.674 -17.078  0.00  0.00    -0.105 C 
ATOM     21  H   UNL     1      29.652 -23.357 -17.679  0.00  0.00    -0.084 HD
ATOM     22  H   UNL     1      29.649 -21.776 -17.111  0.00  0.00    -0.084 HD
ENDBRANCH  18  19
ENDBRANCH   2  18
TORSDOF 3
ENDMDL
MODEL 6
REMARK VINA RESULT:      -8.3      5.180      9.700
REMARK  Name = 11608401
REMARK  3 active torsions:
REMARK  status: ('A' for Active; 'I' for Inactive)
REMARK    1  A    between atoms: C_1  and  C_11
REMARK    2  A    between atoms: C_2  and  C_18
REMARK    3  A    between atoms: C_18  and  N_19
REMARK                            x       y       z     vdW  Elec       q    Type
REMARK                         _______ _______ _______ _____ _____    ______ ____
ROOT
ATOM      1  C   UNL     1      36.328 -23.074 -15.718  0.00  0.00    +0.015 C 
ATOM      2  C   UNL     1      35.461 -22.015 -18.162  0.00  0.00    -0.044 C 
ATOM      3  C   UNL     1      35.026 -23.317 -16.175  0.00  0.00    +0.001 C 
ATOM      4  C   UNL     1      37.190 -22.295 -16.499  0.00  0.00    +0.001 C 
ATOM      5  C   UNL     1      34.595 -22.790 -17.391  0.00  0.00    -0.006 C 
ATOM      6  C   UNL     1      36.759 -21.766 -17.715  0.00  0.00    -0.006 C 
ENDROOT
BRANCH   1  11
ATOM      7  N   UNL     1      38.663 -25.120 -15.233  0.00  0.00    -0.271 NA
ATOM      8  N   UNL     1      36.141 -23.232 -13.335  0.00  0.00    -0.247 NA
ATOM      9  N   UNL     1      39.245 -25.882 -13.221  0.00  0.00    -0.307 N 
ATOM     10  N   UNL     1      37.581 -24.639 -11.956  0.00  0.00    -0.232 NA
ATOM     11  C   UNL     1      36.773 -23.618 -14.466  0.00  0.00    +0.077 C 
ATOM     12  C   UNL     1      37.814 -24.518 -14.349  0.00  0.00    +0.150 C 
ATOM     13  C   UNL     1      38.196 -25.006 -13.107  0.00  0.00    +0.123 C 
ATOM     14  C   UNL     1      39.501 -25.928 -14.510  0.00  0.00    +0.163 C 
ATOM     15  C   UNL     1      36.578 -23.760 -12.166  0.00  0.00    +0.251 C 
ATOM     16  H   UNL     1      38.671 -24.997 -16.210  0.00  0.00    +0.125 HD
ATOM     17  H   UNL     1      39.704 -26.368 -12.498  0.00  0.00    +0.149 HD
ENDBRANCH   1  11
BRANCH   2  18
ATOM     18  C   UNL     1      35.000 -21.450 -19.463  0.00  0.00    -0.054 C 
BRANCH  18  19
ATOM     19  N   UNL     1      33.561 -21.465 -19.519  0.00  0.00    +0.385 N 
ATOM     20  C   UNL     1      33.042 -20.329 -20.281  0.00  0.00    -0.105 C 
ATOM     21  H   UNL     1      33.192 -21.424 -18.570  0.00  0.00    -0.084 HD
ATOM     22  H   UNL     1      33.268 -22.324 -19.987  0.00  0.00    -0.084 HD
ENDBRANCH  18  19
ENDBRANCH   2  18
TORSDOF 3
ENDMDL
MODEL 7
REMARK VINA RESULT:      -8.3      3.950      7.009
REMARK  Name = 11608401
REMARK  3 active torsions:
REMARK  status: ('A' for Active; 'I' for Inactive)
REMARK    1  A    between atoms: C_1  and  C_11
REMARK    2  A    between atoms: C_2  and  C_18
REMARK    3  A    between atoms: C_18  and  N_19
REMARK                            x       y       z     vdW  Elec       q    Type
REMARK                         _______ _______ _______ _____ _____    ______ ____
ROOT
ATOM      1  C   UNL     1      33.477 -13.521 -23.756  0.00  0.00    +0.015 C 
ATOM      2  C   UNL     1      34.287 -16.085 -24.539  0.00  0.00    -0.044 C 
ATOM      3  C   UNL     1      34.271 -14.304 -22.909  0.00  0.00    +0.001 C 
ATOM      4  C   UNL     1      33.092 -14.037 -25.000  0.00  0.00    +0.001 C 
ATOM      5  C   UNL     1      34.675 -15.580 -23.299  0.00  0.00    -0.006 C 
ATOM      6  C   UNL     1      33.495 -15.313 -25.390  0.00  0.00    -0.006 C 
ENDROOT
BRANCH   1  11
ATOM      7  N   UNL     1      34.795 -10.774 -24.522  0.00  0.00    -0.271 NA
ATOM      8  N   UNL     1      31.981 -12.088 -22.552  0.00  0.00    -0.247 NA
ATOM      9  N   UNL     1      34.038  -8.798 -23.820  0.00  0.00    -0.307 N 
ATOM     10  N   UNL     1      32.176  -9.656 -22.514  0.00  0.00    -0.232 NA
ATOM     11  C   UNL     1      33.062 -12.206 -23.355  0.00  0.00    +0.077 C 
ATOM     12  C   UNL     1      33.707 -11.048 -23.743  0.00  0.00    +0.150 C 
ATOM     13  C   UNL     1      33.255  -9.806 -23.320  0.00  0.00    +0.123 C 
ATOM     14  C   UNL     1      34.953  -9.413 -24.538  0.00  0.00    +0.163 C 
ATOM     15  C   UNL     1      31.610 -10.837 -22.186  0.00  0.00    +0.251 C 
ATOM     16  H   UNL     1      35.360 -11.431 -24.987  0.00  0.00    +0.125 HD
ATOM     17  H   UNL     1      33.937  -7.829 -23.675  0.00  0.00    +0.149 HD
ENDBRANCH   1  11
BRANCH   2  18
ATOM     18  C   UNL     1      34.718 -17.450 -24.957  0.00  0.00    -0.054 C 
BRANCH  18  19
ATOM     19  N   UNL     1      35.519 -18.048 -23.921  0.00  0.00    +0.385 N 
ATOM     20  C   UNL     1      34.888 -19.254 -23.383  0.00  0.00    -0.105 C 
ATOM     21  H   UNL     1      35.642 -17.374 -23.166  0.00  0.00    -0.084 HD
ATOM     22  H   UNL     1      36.419 -18.311 -24.324  0.00  0.00    -0.084 HD
ENDBRANCH  18  19
ENDBRANCH   2  18
TORSDOF 3
ENDMDL
MODEL 8
REMARK VINA RESULT:      -8.3      2.187      6.722
REMARK  Name = 11608401
REMARK  3 active torsions:
REMARK  status: ('A' for Active; 'I' for Inactive)
REMARK    1  A    between atoms: C_1  and  C_11
REMARK    2  A    between atoms: C_2  and  C_18
REMARK    3  A    between atoms: C_18  and  N_19
REMARK                            x       y       z     vdW  Elec       q    Type
REMARK                         _______ _______ _______ _____ _____    ______ ____
ROOT
ATOM      1  C   UNL     1      34.950 -17.671 -21.889  0.00  0.00    +0.015 C 
ATOM      2  C   UNL     1      34.148 -15.426 -23.359  0.00  0.00    -0.044 C 
ATOM      3  C   UNL     1      34.468 -16.530 -21.235  0.00  0.00    +0.001 C 
ATOM      4  C   UNL     1      35.027 -17.675 -23.287  0.00  0.00    +0.001 C 
ATOM      5  C   UNL     1      34.068 -15.412 -21.967  0.00  0.00    -0.006 C 
ATOM      6  C   UNL     1      34.629 -16.557 -24.019  0.00  0.00    -0.006 C 
ENDROOT
BRANCH   1  11
ATOM      7  N   UNL     1      33.127 -19.934 -20.694  0.00  0.00    -0.271 NA
ATOM      8  N   UNL     1      36.678 -18.994 -20.886  0.00  0.00    -0.247 NA
ATOM      9  N   UNL     1      33.908 -21.673 -19.538  0.00  0.00    -0.307 N 
ATOM     10  N   UNL     1      36.257 -21.060 -19.658  0.00  0.00    -0.232 NA
ATOM     11  C   UNL     1      35.360 -18.822 -21.136  0.00  0.00    +0.077 C 
ATOM     12  C   UNL     1      34.482 -19.770 -20.647  0.00  0.00    +0.150 C 
ATOM     13  C   UNL     1      34.943 -20.862 -19.924  0.00  0.00    +0.123 C 
ATOM     14  C   UNL     1      32.830 -21.087 -20.016  0.00  0.00    +0.163 C 
ATOM     15  C   UNL     1      37.039 -20.087 -20.172  0.00  0.00    +0.251 C 
ATOM     16  H   UNL     1      32.482 -19.335 -21.134  0.00  0.00    +0.125 HD
ATOM     17  H   UNL     1      33.958 -22.507 -19.018  0.00  0.00    +0.149 HD
ENDBRANCH   1  11
BRANCH   2  18
ATOM     18  C   UNL     1      33.722 -14.230 -24.142  0.00  0.00    -0.054 C 
BRANCH  18  19
ATOM     19  N   UNL     1      34.178 -13.030 -23.489  0.00  0.00    +0.385 N 
ATOM     20  C   UNL     1      33.737 -11.831 -24.202  0.00  0.00    -0.105 C 
ATOM     21  H   UNL     1      35.197 -13.039 -23.454  0.00  0.00    -0.084 HD
ATOM     22  H   UNL     1      33.781 -13.008 -22.549  0.00  0.00    -0.084 HD
ENDBRANCH  18  19
ENDBRANCH   2  18
TORSDOF 3
ENDMDL
MODEL 9
REMARK VINA RESULT:      -8.2      3.866      6.781
REMARK  Name = 11608401
REMARK  3 active torsions:
REMARK  status: ('A' for Active; 'I' for Inactive)
REMARK    1  A    between atoms: C_1  and  C_11
REMARK    2  A    between atoms: C_2  and  C_18
REMARK    3  A    between atoms: C_18  and  N_19
REMARK                            x       y       z     vdW  Elec       q    Type
REMARK                         _______ _______ _______ _____ _____    ______ ____
ROOT
ATOM      1  C   UNL     1      33.663 -13.525 -23.978  0.00  0.00    +0.015 C 
ATOM      2  C   UNL     1      34.225 -16.204 -24.575  0.00  0.00    -0.044 C 
ATOM      3  C   UNL     1      34.380 -14.318 -23.073  0.00  0.00    +0.001 C 
ATOM      4  C   UNL     1      33.230 -14.089 -25.185  0.00  0.00    +0.001 C 
ATOM      5  C   UNL     1      34.660 -15.652 -23.370  0.00  0.00    -0.006 C 
ATOM      6  C   UNL     1      33.509 -15.422 -25.482  0.00  0.00    -0.006 C 
ENDROOT
BRANCH   1  11
ATOM      7  N   UNL     1      31.564 -12.415 -21.920  0.00  0.00    -0.271 NA
ATOM      8  N   UNL     1      34.064 -11.188 -24.323  0.00  0.00    -0.247 NA
ATOM      9  N   UNL     1      31.223 -10.244 -21.548  0.00  0.00    -0.307 N 
ATOM     10  N   UNL     1      32.872  -9.422 -23.135  0.00  0.00    -0.232 NA
ATOM     11  C   UNL     1      33.375 -12.153 -23.672  0.00  0.00    +0.077 C 
ATOM     12  C   UNL     1      32.429 -11.756 -22.747  0.00  0.00    +0.150 C 
ATOM     13  C   UNL     1      32.198 -10.410 -22.497  0.00  0.00    +0.123 C 
ATOM     14  C   UNL     1      30.864 -11.467 -21.222  0.00  0.00    +0.163 C 
ATOM     15  C   UNL     1      33.774  -9.901 -24.018  0.00  0.00    +0.251 C 
ATOM     16  H   UNL     1      31.464 -13.390 -21.839  0.00  0.00    +0.125 HD
ATOM     17  H   UNL     1      30.870  -9.397 -21.190  0.00  0.00    +0.149 HD
ENDBRANCH   1  11
BRANCH   2  18
ATOM     18  C   UNL     1      34.524 -17.630 -24.893  0.00  0.00    -0.054 C 
BRANCH  18  19
ATOM     19  N   UNL     1      35.460 -18.159 -23.934  0.00  0.00    +0.385 N 
ATOM     20  C   UNL     1      34.879 -19.263 -23.171  0.00  0.00    -0.105 C 
ATOM     21  H   UNL     1      35.729 -17.416 -23.290  0.00  0.00    -0.084 HD
ATOM     22  H   UNL     1      36.271 -18.512 -24.442  0.00  0.00    -0.084 HD
ENDBRANCH  18  19
ENDBRANCH   2  18
TORSDOF 3
ENDMDL
