MODEL 1
REMARK VINA RESULT:      -9.5      0.000      0.000
REMARK  Name = 92786
REMARK  2 active torsions:
REMARK  status: ('A' for Active; 'I' for Inactive)
REMARK    1  A    between atoms: C_10  and  C_21
REMARK    2  A    between atoms: C_19  and  O_23
REMARK                            x       y       z     vdW  Elec       q    Type
REMARK                         _______ _______ _______ _____ _____    ______ ____
ROOT
ATOM      1  C   UNL     1      34.727 -24.580 -14.501  0.00  0.00    +0.000 C 
ATOM      2  C   UNL     1      34.361 -23.360 -15.409  0.00  0.00    +0.000 C 
ATOM      3  C   UNL     1      32.978 -23.605 -16.023  0.00  0.00    +0.000 C 
ATOM      4  C   UNL     1      31.869 -23.773 -14.961  0.00  0.00    +0.007 C 
ATOM      5  C   UNL     1      36.161 -24.434 -13.870  0.00  0.00    +0.000 C 
ATOM      6  C   UNL     1      37.170 -24.243 -15.048  0.00  0.00    +0.002 C 
ATOM      7  C   UNL     1      33.604 -24.897 -13.478  0.00  0.00    +0.000 C 
ATOM      8  C   UNL     1      32.209 -25.011 -14.118  0.00  0.00    +0.000 C 
ATOM      9  C   UNL     1      35.425 -23.134 -16.493  0.00  0.00    +0.000 C 
ATOM     10  C   UNL     1      30.652 -23.939 -15.897  0.00  0.00    +0.058 C 
ATOM     11  C   UNL     1      32.399 -22.570 -16.980  0.00  0.00    +0.000 C 
ATOM     12  C   UNL     1      36.834 -23.023 -15.914  0.00  0.00    +0.000 C 
ATOM     13  C   UNL     1      36.563 -25.731 -13.112  0.00  0.00    +0.002 C 
ATOM     14  C   UNL     1      30.898 -22.909 -17.022  0.00  0.00    +0.007 C 
ATOM     15  C   UNL     1      38.637 -24.214 -14.584  0.00  0.00    +0.029 C 
ATOM     16  C   UNL     1      31.692 -22.540 -14.037  0.00  0.00    +0.000 C 
ATOM     17  C   UNL     1      36.204 -23.250 -12.870  0.00  0.00    +0.000 C 
ATOM     18  C   UNL     1      38.026 -25.749 -12.655  0.00  0.00    +0.029 C 
ATOM     19  C   UNL     1      39.004 -25.472 -13.796  0.00  0.00    +0.111 C 
ENDROOT
BRANCH  10  21
ATOM     20  O   UNL     1      28.843 -24.607 -14.492  0.00  0.00    -0.296 OA
ATOM     21  C   UNL     1      29.319 -23.753 -15.239  0.00  0.00    +0.151 C 
ATOM     22  C   UNL     1      28.591 -22.471 -15.538  0.00  0.00    +0.072 C 
ENDBRANCH  10  21
BRANCH  19  23
ATOM     23  O   UNL     1      39.015 -26.582 -14.693  0.00  0.00    -0.384 OA
ATOM     24  H   UNL     1      38.781 -26.279 -15.585  0.00  0.00    +0.210 HD
ENDBRANCH  19  23
TORSDOF 2
ENDMDL
MODEL 2
REMARK VINA RESULT:      -8.2     10.482     13.186
REMARK  Name = 92786
REMARK  2 active torsions:
REMARK  status: ('A' for Active; 'I' for Inactive)
REMARK    1  A    between atoms: C_10  and  C_21
REMARK    2  A    between atoms: C_19  and  O_23
REMARK                            x       y       z     vdW  Elec       q    Type
REMARK                         _______ _______ _______ _____ _____    ______ ____
ROOT
ATOM      1  C   UNL     1      34.436 -14.972 -23.275  0.00  0.00    +0.000 C 
ATOM      2  C   UNL     1      33.943 -16.258 -24.015  0.00  0.00    +0.000 C 
ATOM      3  C   UNL     1      34.794 -17.445 -23.551  0.00  0.00    +0.000 C 
ATOM      4  C   UNL     1      34.703 -17.692 -22.029  0.00  0.00    +0.007 C 
ATOM      5  C   UNL     1      33.646 -13.690 -23.735  0.00  0.00    +0.000 C 
ATOM      6  C   UNL     1      33.799 -13.582 -25.287  0.00  0.00    +0.002 C 
ATOM      7  C   UNL     1      34.493 -15.174 -21.738  0.00  0.00    +0.000 C 
ATOM      8  C   UNL     1      35.249 -16.446 -21.317  0.00  0.00    +0.000 C 
ATOM      9  C   UNL     1      34.006 -16.084 -25.539  0.00  0.00    +0.000 C 
ATOM     10  C   UNL     1      35.601 -18.945 -21.926  0.00  0.00    +0.058 C 
ATOM     11  C   UNL     1      34.533 -18.822 -24.149  0.00  0.00    +0.000 C 
ATOM     12  C   UNL     1      33.277 -14.828 -26.014  0.00  0.00    +0.000 C 
ATOM     13  C   UNL     1      34.268 -12.409 -23.111  0.00  0.00    +0.002 C 
ATOM     14  C   UNL     1      35.217 -19.786 -23.163  0.00  0.00    +0.007 C 
ATOM     15  C   UNL     1      33.180 -12.297 -25.863  0.00  0.00    +0.029 C 
ATOM     16  C   UNL     1      33.269 -17.998 -21.526  0.00  0.00    +0.000 C 
ATOM     17  C   UNL     1      32.161 -13.774 -23.301  0.00  0.00    +0.000 C 
ATOM     18  C   UNL     1      33.692 -11.106 -23.680  0.00  0.00    +0.029 C 
ATOM     19  C   UNL     1      33.762 -11.046 -25.204  0.00  0.00    +0.111 C 
ENDROOT
BRANCH  10  21
ATOM     20  O   UNL     1      36.357 -19.725 -19.802  0.00  0.00    -0.296 OA
ATOM     21  C   UNL     1      35.466 -19.717 -20.650  0.00  0.00    +0.151 C 
ATOM     22  C   UNL     1      34.185 -20.483 -20.457  0.00  0.00    +0.072 C 
ENDBRANCH  10  21
BRANCH  19  23
ATOM     23  O   UNL     1      35.124 -10.910 -25.613  0.00  0.00    -0.384 OA
ATOM     24  H   UNL     1      35.221 -11.231 -26.524  0.00  0.00    +0.210 HD
ENDBRANCH  19  23
TORSDOF 2
ENDMDL
MODEL 3
REMARK VINA RESULT:      -8.2      3.504      6.657
REMARK  Name = 92786
REMARK  2 active torsions:
REMARK  status: ('A' for Active; 'I' for Inactive)
REMARK    1  A    between atoms: C_10  and  C_21
REMARK    2  A    between atoms: C_19  and  O_23
REMARK                            x       y       z     vdW  Elec       q    Type
REMARK                         _______ _______ _______ _____ _____    ______ ____
ROOT
ATOM      1  C   UNL     1      34.591 -22.014 -17.532  0.00  0.00    +0.000 C 
ATOM      2  C   UNL     1      36.059 -22.481 -17.268  0.00  0.00    +0.000 C 
ATOM      3  C   UNL     1      36.278 -22.573 -15.754  0.00  0.00    +0.000 C 
ATOM      4  C   UNL     1      35.318 -23.568 -15.065  0.00  0.00    +0.007 C 
ATOM      5  C   UNL     1      34.296 -21.842 -19.069  0.00  0.00    +0.000 C 
ATOM      6  C   UNL     1      35.352 -20.839 -19.635  0.00  0.00    +0.002 C 
ATOM      7  C   UNL     1      33.559 -22.891 -16.774  0.00  0.00    +0.000 C 
ATOM      8  C   UNL     1      33.884 -23.062 -15.279  0.00  0.00    +0.000 C 
ATOM      9  C   UNL     1      37.073 -21.534 -17.926  0.00  0.00    +0.000 C 
ATOM     10  C   UNL     1      35.838 -23.452 -13.616  0.00  0.00    +0.058 C 
ATOM     11  C   UNL     1      37.649 -22.981 -15.226  0.00  0.00    +0.000 C 
ATOM     12  C   UNL     1      36.792 -21.319 -19.412  0.00  0.00    +0.000 C 
ATOM     13  C   UNL     1      32.889 -21.219 -19.292  0.00  0.00    +0.002 C 
ATOM     14  C   UNL     1      37.374 -23.393 -13.769  0.00  0.00    +0.007 C 
ATOM     15  C   UNL     1      35.105 -20.477 -21.110  0.00  0.00    +0.029 C 
ATOM     16  C   UNL     1      35.444 -25.024 -15.584  0.00  0.00    +0.000 C 
ATOM     17  C   UNL     1      34.345 -23.211 -19.795  0.00  0.00    +0.000 C 
ATOM     18  C   UNL     1      32.616 -20.821 -20.747  0.00  0.00    +0.029 C 
ATOM     19  C   UNL     1      33.700 -19.913 -21.324  0.00  0.00    +0.111 C 
ENDROOT
BRANCH  10  21
ATOM     20  O   UNL     1      34.229 -24.674 -12.346  0.00  0.00    -0.296 OA
ATOM     21  C   UNL     1      35.402 -24.554 -12.698  0.00  0.00    +0.151 C 
ATOM     22  C   UNL     1      36.469 -25.505 -12.231  0.00  0.00    +0.072 C 
ENDBRANCH  10  21
BRANCH  19  23
ATOM     23  O   UNL     1      33.626 -18.630 -20.703  0.00  0.00    -0.384 OA
ATOM     24  H   UNL     1      32.736 -18.498 -20.340  0.00  0.00    +0.210 HD
ENDBRANCH  19  23
TORSDOF 2
ENDMDL
MODEL 4
REMARK VINA RESULT:      -8.2      1.331      6.848
REMARK  Name = 92786
REMARK  2 active torsions:
REMARK  status: ('A' for Active; 'I' for Inactive)
REMARK    1  A    between atoms: C_10  and  C_21
REMARK    2  A    between atoms: C_19  and  O_23
REMARK                            x       y       z     vdW  Elec       q    Type
REMARK                         _______ _______ _______ _____ _____    ______ ____
ROOT
ATOM      1  C   UNL     1      32.696 -23.546 -14.751  0.00  0.00    +0.000 C 
ATOM      2  C   UNL     1      33.702 -23.466 -15.945  0.00  0.00    +0.000 C 
ATOM      3  C   UNL     1      35.069 -23.031 -15.405  0.00  0.00    +0.000 C 
ATOM      4  C   UNL     1      35.638 -24.008 -14.352  0.00  0.00    +0.007 C 
ATOM      5  C   UNL     1      31.248 -23.937 -15.227  0.00  0.00    +0.000 C 
ATOM      6  C   UNL     1      30.814 -22.889 -16.303  0.00  0.00    +0.002 C 
ATOM      7  C   UNL     1      33.246 -24.415 -13.588  0.00  0.00    +0.000 C 
ATOM      8  C   UNL     1      34.672 -24.028 -13.158  0.00  0.00    +0.000 C 
ATOM      9  C   UNL     1      33.198 -22.508 -17.035  0.00  0.00    +0.000 C 
ATOM     10  C   UNL     1      36.993 -23.317 -14.080  0.00  0.00    +0.058 C 
ATOM     11  C   UNL     1      36.226 -22.847 -16.379  0.00  0.00    +0.000 C 
ATOM     12  C   UNL     1      31.779 -22.841 -17.494  0.00  0.00    +0.000 C 
ATOM     13  C   UNL     1      30.238 -23.845 -14.048  0.00  0.00    +0.002 C 
ATOM     14  C   UNL     1      37.472 -22.864 -15.477  0.00  0.00    +0.007 C 
ATOM     15  C   UNL     1      29.359 -23.074 -16.769  0.00  0.00    +0.029 C 
ATOM     16  C   UNL     1      35.850 -25.450 -14.882  0.00  0.00    +0.000 C 
ATOM     17  C   UNL     1      31.222 -25.384 -15.781  0.00  0.00    +0.000 C 
ATOM     18  C   UNL     1      28.774 -24.000 -14.478  0.00  0.00    +0.029 C 
ATOM     19  C   UNL     1      28.382 -23.033 -15.594  0.00  0.00    +0.111 C 
ENDROOT
BRANCH  10  21
ATOM     20  O   UNL     1      38.951 -24.677 -13.986  0.00  0.00    -0.296 OA
ATOM     21  C   UNL     1      38.007 -24.169 -13.381  0.00  0.00    +0.151 C 
ATOM     22  C   UNL     1      37.815 -24.373 -11.903  0.00  0.00    +0.072 C 
ENDBRANCH  10  21
BRANCH  19  23
ATOM     23  O   UNL     1      28.346 -21.702 -15.079  0.00  0.00    -0.384 OA
ATOM     24  H   UNL     1      27.891 -21.124 -15.712  0.00  0.00    +0.210 HD
ENDBRANCH  19  23
TORSDOF 2
ENDMDL
MODEL 5
REMARK VINA RESULT:      -8.0     13.903     16.137
REMARK  Name = 92786
REMARK  2 active torsions:
REMARK  status: ('A' for Active; 'I' for Inactive)
REMARK    1  A    between atoms: C_10  and  C_21
REMARK    2  A    between atoms: C_19  and  O_23
REMARK                            x       y       z     vdW  Elec       q    Type
REMARK                         _______ _______ _______ _____ _____    ______ ____
ROOT
ATOM      1  C   UNL     1      33.446 -11.588 -22.705  0.00  0.00    +0.000 C 
ATOM      2  C   UNL     1      32.278 -10.724 -22.126  0.00  0.00    +0.000 C 
ATOM      3  C   UNL     1      32.708  -9.253 -22.136  0.00  0.00    +0.000 C 
ATOM      4  C   UNL     1      33.045  -8.733 -23.551  0.00  0.00    +0.007 C 
ATOM      5  C   UNL     1      33.107 -13.125 -22.682  0.00  0.00    +0.000 C 
ATOM      6  C   UNL     1      32.760 -13.502 -21.205  0.00  0.00    +0.002 C 
ATOM      7  C   UNL     1      33.932 -11.058 -24.080  0.00  0.00    +0.000 C 
ATOM      8  C   UNL     1      34.233  -9.549 -24.081  0.00  0.00    +0.000 C 
ATOM      9  C   UNL     1      31.890 -11.186 -20.714  0.00  0.00    +0.000 C 
ATOM     10  C   UNL     1      33.369  -7.263 -23.205  0.00  0.00    +0.058 C 
ATOM     11  C   UNL     1      31.753  -8.198 -21.589  0.00  0.00    +0.000 C 
ATOM     12  C   UNL     1      31.588 -12.683 -20.652  0.00  0.00    +0.000 C 
ATOM     13  C   UNL     1      34.344 -13.967 -23.104  0.00  0.00    +0.002 C 
ATOM     14  C   UNL     1      32.299  -6.877 -22.159  0.00  0.00    +0.007 C 
ATOM     15  C   UNL     1      32.530 -15.011 -21.010  0.00  0.00    +0.029 C 
ATOM     16  C   UNL     1      31.862  -8.818 -24.550  0.00  0.00    +0.000 C 
ATOM     17  C   UNL     1      31.943 -13.446 -23.653  0.00  0.00    +0.000 C 
ATOM     18  C   UNL     1      34.161 -15.476 -22.900  0.00  0.00    +0.029 C 
ATOM     19  C   UNL     1      33.734 -15.830 -21.477  0.00  0.00    +0.111 C 
ENDROOT
BRANCH  10  21
ATOM     20  O   UNL     1      34.302  -6.327 -25.191  0.00  0.00    -0.296 OA
ATOM     21  C   UNL     1      33.382  -6.327 -24.374  0.00  0.00    +0.151 C 
ATOM     22  C   UNL     1      32.214  -5.387 -24.500  0.00  0.00    +0.072 C 
ENDBRANCH  10  21
BRANCH  19  23
ATOM     23  O   UNL     1      34.820 -15.592 -20.581  0.00  0.00    -0.384 OA
ATOM     24  H   UNL     1      35.280 -14.778 -20.841  0.00  0.00    +0.210 HD
ENDBRANCH  19  23
TORSDOF 2
ENDMDL
MODEL 6
REMARK VINA RESULT:      -7.4     14.450     17.164
REMARK  Name = 92786
REMARK  2 active torsions:
REMARK  status: ('A' for Active; 'I' for Inactive)
REMARK    1  A    between atoms: C_10  and  C_21
REMARK    2  A    between atoms: C_19  and  O_23
REMARK                            x       y       z     vdW  Elec       q    Type
REMARK                         _______ _______ _______ _____ _____    ______ ____
ROOT
ATOM      1  C   UNL     1      32.354  -9.494 -23.147  0.00  0.00    +0.000 C 
ATOM      2  C   UNL     1      32.566 -10.418 -21.904  0.00  0.00    +0.000 C 
ATOM      3  C   UNL     1      32.189 -11.852 -22.291  0.00  0.00    +0.000 C 
ATOM      4  C   UNL     1      33.037 -12.403 -23.459  0.00  0.00    +0.007 C 
ATOM      5  C   UNL     1      32.669  -7.987 -22.820  0.00  0.00    +0.000 C 
ATOM      6  C   UNL     1      31.768  -7.576 -21.611  0.00  0.00    +0.002 C 
ATOM      7  C   UNL     1      33.077 -10.042 -24.406  0.00  0.00    +0.000 C 
ATOM      8  C   UNL     1      32.770 -11.524 -24.689  0.00  0.00    +0.000 C 
ATOM      9  C   UNL     1      31.748  -9.928 -20.700  0.00  0.00    +0.000 C 
ATOM     10  C   UNL     1      32.450 -13.830 -23.540  0.00  0.00    +0.058 C 
ATOM     11  C   UNL     1      32.278 -12.951 -21.239  0.00  0.00    +0.000 C 
ATOM     12  C   UNL     1      32.006  -8.457 -20.379  0.00  0.00    +0.000 C 
ATOM     13  C   UNL     1      32.290  -7.073 -24.020  0.00  0.00    +0.002 C 
ATOM     14  C   UNL     1      32.275 -14.250 -22.064  0.00  0.00    +0.007 C 
ATOM     15  C   UNL     1      31.878  -6.082 -21.261  0.00  0.00    +0.029 C 
ATOM     16  C   UNL     1      34.559 -12.447 -23.164  0.00  0.00    +0.000 C 
ATOM     17  C   UNL     1      34.176  -7.793 -22.515  0.00  0.00    +0.000 C 
ATOM     18  C   UNL     1      32.365  -5.575 -23.701  0.00  0.00    +0.029 C 
ATOM     19  C   UNL     1      31.554  -5.195 -22.463  0.00  0.00    +0.111 C 
ENDROOT
BRANCH  10  21
ATOM     20  O   UNL     1      34.073 -15.565 -23.758  0.00  0.00    -0.296 OA
ATOM     21  C   UNL     1      33.277 -14.809 -24.315  0.00  0.00    +0.151 C 
ATOM     22  C   UNL     1      33.086 -14.824 -25.807  0.00  0.00    +0.072 C 
ENDBRANCH  10  21
BRANCH  19  23
ATOM     23  O   UNL     1      30.161  -5.315 -22.752  0.00  0.00    -0.384 OA
ATOM     24  H   UNL     1      29.795  -6.074 -22.271  0.00  0.00    +0.210 HD
ENDBRANCH  19  23
TORSDOF 2
ENDMDL
MODEL 7
REMARK VINA RESULT:      -7.3     19.867     22.140
REMARK  Name = 92786
REMARK  2 active torsions:
REMARK  status: ('A' for Active; 'I' for Inactive)
REMARK    1  A    between atoms: C_10  and  C_21
REMARK    2  A    between atoms: C_19  and  O_23
REMARK                            x       y       z     vdW  Elec       q    Type
REMARK                         _______ _______ _______ _____ _____    ______ ____
ROOT
ATOM      1  C   UNL     1      33.077  -5.607 -24.291  0.00  0.00    +0.000 C 
ATOM      2  C   UNL     1      32.081  -4.494 -24.753  0.00  0.00    +0.000 C 
ATOM      3  C   UNL     1      32.836  -3.500 -25.642  0.00  0.00    +0.000 C 
ATOM      4  C   UNL     1      33.448  -4.160 -26.898  0.00  0.00    +0.007 C 
ATOM      5  C   UNL     1      32.393  -6.645 -23.326  0.00  0.00    +0.000 C 
ATOM      6  C   UNL     1      31.798  -5.841 -22.125  0.00  0.00    +0.002 C 
ATOM      7  C   UNL     1      33.831  -6.243 -25.489  0.00  0.00    +0.000 C 
ATOM      8  C   UNL     1      34.470  -5.206 -26.429  0.00  0.00    +0.000 C 
ATOM      9  C   UNL     1      31.433  -3.792 -23.551  0.00  0.00    +0.000 C 
ATOM     10  C   UNL     1      34.059  -2.908 -27.564  0.00  0.00    +0.058 C 
ATOM     11  C   UNL     1      32.093  -2.294 -26.202  0.00  0.00    +0.000 C 
ATOM     12  C   UNL     1      30.790  -4.777 -22.576  0.00  0.00    +0.000 C 
ATOM     13  C   UNL     1      33.444  -7.638 -22.753  0.00  0.00    +0.002 C 
ATOM     14  C   UNL     1      32.992  -1.810 -27.354  0.00  0.00    +0.007 C 
ATOM     15  C   UNL     1      31.205  -6.746 -21.032  0.00  0.00    +0.029 C 
ATOM     16  C   UNL     1      32.402  -4.827 -27.829  0.00  0.00    +0.000 C 
ATOM     17  C   UNL     1      31.308  -7.461 -24.075  0.00  0.00    +0.000 C 
ATOM     18  C   UNL     1      32.895  -8.541 -21.641  0.00  0.00    +0.029 C 
ATOM     19  C   UNL     1      32.233  -7.752 -20.513  0.00  0.00    +0.111 C 
ENDROOT
BRANCH  10  21
ATOM     20  O   UNL     1      35.314  -3.846 -29.363  0.00  0.00    -0.296 OA
ATOM     21  C   UNL     1      34.424  -3.074 -29.007  0.00  0.00    +0.151 C 
ATOM     22  C   UNL     1      33.649  -2.251 -30.000  0.00  0.00    +0.072 C 
ENDBRANCH  10  21
BRANCH  19  23
ATOM     23  O   UNL     1      33.232  -7.042 -19.780  0.00  0.00    -0.384 OA
ATOM     24  H   UNL     1      33.901  -6.700 -20.394  0.00  0.00    +0.210 HD
ENDBRANCH  19  23
TORSDOF 2
ENDMDL
MODEL 8
REMARK VINA RESULT:      -6.8     11.538     14.219
REMARK  Name = 92786
REMARK  2 active torsions:
REMARK  status: ('A' for Active; 'I' for Inactive)
REMARK    1  A    between atoms: C_10  and  C_21
REMARK    2  A    between atoms: C_19  and  O_23
REMARK                            x       y       z     vdW  Elec       q    Type
REMARK                         _______ _______ _______ _____ _____    ______ ____
ROOT
ATOM      1  C   UNL     1      33.096 -12.507 -21.229  0.00  0.00    +0.000 C 
ATOM      2  C   UNL     1      33.102 -13.042 -22.698  0.00  0.00    +0.000 C 
ATOM      3  C   UNL     1      34.125 -14.178 -22.800  0.00  0.00    +0.000 C 
ATOM      4  C   UNL     1      33.813 -15.358 -21.853  0.00  0.00    +0.007 C 
ATOM      5  C   UNL     1      32.106 -11.297 -21.047  0.00  0.00    +0.000 C 
ATOM      6  C   UNL     1      32.519 -10.199 -22.080  0.00  0.00    +0.002 C 
ATOM      7  C   UNL     1      32.909 -13.651 -20.197  0.00  0.00    +0.000 C 
ATOM      8  C   UNL     1      33.873 -14.831 -20.411  0.00  0.00    +0.000 C 
ATOM      9  C   UNL     1      33.408 -11.918 -23.699  0.00  0.00    +0.000 C 
ATOM     10  C   UNL     1      34.966 -16.305 -22.247  0.00  0.00    +0.058 C 
ATOM     11  C   UNL     1      34.348 -14.856 -24.147  0.00  0.00    +0.000 C 
ATOM     12  C   UNL     1      32.485 -10.714 -23.524  0.00  0.00    +0.000 C 
ATOM     13  C   UNL     1      32.245 -10.682 -19.626  0.00  0.00    +0.002 C 
ATOM     14  C   UNL     1      35.055 -16.173 -23.783  0.00  0.00    +0.007 C 
ATOM     15  C   UNL     1      31.711  -8.899 -21.929  0.00  0.00    +0.029 C 
ATOM     16  C   UNL     1      32.436 -16.024 -22.112  0.00  0.00    +0.000 C 
ATOM     17  C   UNL     1      30.637 -11.754 -21.240  0.00  0.00    +0.000 C 
ATOM     18  C   UNL     1      31.473  -9.369 -19.445  0.00  0.00    +0.029 C 
ATOM     19  C   UNL     1      31.815  -8.332 -20.513  0.00  0.00    +0.111 C 
ENDROOT
BRANCH  10  21
ATOM     20  O   UNL     1      34.808 -18.043 -20.621  0.00  0.00    -0.296 OA
ATOM     21  C   UNL     1      34.793 -17.728 -21.809  0.00  0.00    +0.151 C 
ATOM     22  C   UNL     1      34.600 -18.750 -22.896  0.00  0.00    +0.072 C 
ENDBRANCH  10  21
BRANCH  19  23
ATOM     23  O   UNL     1      33.147  -7.861 -20.309  0.00  0.00    -0.384 OA
ATOM     24  H   UNL     1      33.568  -8.379 -19.604  0.00  0.00    +0.210 HD
ENDBRANCH  19  23
TORSDOF 2
ENDMDL
MODEL 9
REMARK VINA RESULT:      -6.7     17.208     19.404
REMARK  Name = 92786
REMARK  2 active torsions:
REMARK  status: ('A' for Active; 'I' for Inactive)
REMARK    1  A    between atoms: C_10  and  C_21
REMARK    2  A    between atoms: C_19  and  O_23
REMARK                            x       y       z     vdW  Elec       q    Type
REMARK                         _______ _______ _______ _____ _____    ______ ____
ROOT
ATOM      1  C   UNL     1      31.819  -8.265 -23.676  0.00  0.00    +0.000 C 
ATOM      2  C   UNL     1      33.117  -7.499 -24.093  0.00  0.00    +0.000 C 
ATOM      3  C   UNL     1      32.732  -6.378 -25.066  0.00  0.00    +0.000 C 
ATOM      4  C   UNL     1      31.741  -5.364 -24.454  0.00  0.00    +0.007 C 
ATOM      5  C   UNL     1      32.132  -9.471 -22.715  0.00  0.00    +0.000 C 
ATOM      6  C   UNL     1      33.161 -10.393 -23.445  0.00  0.00    +0.002 C 
ATOM      7  C   UNL     1      30.718  -7.301 -23.161  0.00  0.00    +0.000 C 
ATOM      8  C   UNL     1      30.449  -6.118 -24.108  0.00  0.00    +0.000 C 
ATOM      9  C   UNL     1      34.151  -8.450 -24.712  0.00  0.00    +0.000 C 
ATOM     10  C   UNL     1      31.624  -4.384 -25.642  0.00  0.00    +0.058 C 
ATOM     11  C   UNL     1      33.829  -5.495 -25.649  0.00  0.00    +0.000 C 
ATOM     12  C   UNL     1      34.450  -9.650 -23.816  0.00  0.00    +0.000 C 
ATOM     13  C   UNL     1      30.849 -10.312 -22.453  0.00  0.00    +0.002 C 
ATOM     14  C   UNL     1      33.067  -4.267 -26.179  0.00  0.00    +0.007 C 
ATOM     15  C   UNL     1      33.463 -11.687 -22.669  0.00  0.00    +0.029 C 
ATOM     16  C   UNL     1      32.281  -4.640 -23.193  0.00  0.00    +0.000 C 
ATOM     17  C   UNL     1      32.669  -8.963 -21.352  0.00  0.00    +0.000 C 
ATOM     18  C   UNL     1      31.116 -11.623 -21.703  0.00  0.00    +0.029 C 
ATOM     19  C   UNL     1      32.189 -12.478 -22.374  0.00  0.00    +0.111 C 
ENDROOT
BRANCH  10  21
ATOM     20  O   UNL     1      29.840  -2.920 -25.038  0.00  0.00    -0.296 OA
ATOM     21  C   UNL     1      31.034  -3.049 -25.305  0.00  0.00    +0.151 C 
ATOM     22  C   UNL     1      31.974  -1.875 -25.309  0.00  0.00    +0.072 C 
ENDBRANCH  10  21
BRANCH  19  23
ATOM     23  O   UNL     1      31.682 -12.999 -23.603  0.00  0.00    -0.384 OA
ATOM     24  H   UNL     1      30.731 -13.169 -23.514  0.00  0.00    +0.210 HD
ENDBRANCH  19  23
TORSDOF 2
ENDMDL
