MODEL 1
REMARK VINA RESULT:     -10.1      0.000      0.000
REMARK  Name = 445958
REMARK  8 active torsions:
REMARK  status: ('A' for Active; 'I' for Inactive)
REMARK    1  A    between atoms: N_2  and  C_15
REMARK    2  A    between atoms: N_3  and  C_28
REMARK    3  A    between atoms: C_12  and  O_18
REMARK    4  A    between atoms: O_18  and  C_19
REMARK    5  A    between atoms: C_19  and  C_20
REMARK    6  A    between atoms: C_20  and  O_21
REMARK    7  A    between atoms: C_20  and  C_23
REMARK    8  A    between atoms: C_23  and  N_24
REMARK                            x       y       z     vdW  Elec       q    Type
REMARK                         _______ _______ _______ _____ _____    ______ ____
ROOT
ATOM      1 BR   UNL     1      36.378 -25.413 -12.495  0.00  0.00    -0.043 Br
ATOM      2  N   UNL     1      37.314 -22.071 -17.367  0.00  0.00    -0.247 N 
ATOM      3  N   UNL     1      34.289 -24.415 -14.623  0.00  0.00    -0.287 N 
ATOM      4  N   UNL     1      35.802 -23.238 -16.003  0.00  0.00    -0.321 NA
ATOM      5  N   UNL     1      38.150 -23.155 -15.462  0.00  0.00    -0.169 NA
ATOM      6  C   UNL     1      37.078 -22.859 -16.224  0.00  0.00    +0.150 C 
ATOM      7  C   UNL     1      35.613 -23.990 -14.899  0.00  0.00    +0.204 C 
ATOM      8  C   UNL     1      36.627 -24.362 -14.041  0.00  0.00    +0.099 C 
ATOM      9  C   UNL     1      37.887 -23.912 -14.375  0.00  0.00    +0.122 C 
ATOM     10  H   UNL     1      38.258 -21.821 -17.487  0.00  0.00    +0.165 HD
ATOM     11  H   UNL     1      34.240 -25.276 -14.148  0.00  0.00    +0.155 HD
ENDROOT
BRANCH   2  15
ATOM     12  C   UNL     1      34.785 -20.590 -20.364  0.00  0.00    +0.139 C 
ATOM     13  C   UNL     1      36.097 -20.134 -20.282  0.00  0.00    +0.038 C 
ATOM     14  C   UNL     1      34.305 -21.532 -19.462  0.00  0.00    +0.038 C 
ATOM     15  C   UNL     1      36.463 -21.572 -18.376  0.00  0.00    +0.058 C 
ATOM     16  C   UNL     1      36.938 -20.627 -19.285  0.00  0.00    +0.018 C 
ATOM     17  C   UNL     1      35.146 -22.025 -18.465  0.00  0.00    +0.018 C 
BRANCH  12  18
ATOM     18  O   UNL     1      33.959 -20.104 -21.344  0.00  0.00    -0.473 OA
BRANCH  18  19
ATOM     19  C   UNL     1      34.588 -19.513 -22.477  0.00  0.00    +0.232 C 
BRANCH  19  20
ATOM     20  C   UNL     1      34.290 -18.016 -22.480  0.00  0.00    +0.133 C 
BRANCH  20  21
ATOM     21  O   UNL     1      33.779 -17.648 -21.195  0.00  0.00    -0.383 OA
ATOM     22  H   UNL     1      34.213 -18.180 -20.510  0.00  0.00    +0.210 HD
ENDBRANCH  20  21
BRANCH  20  23
ATOM     23  C   UNL     1      35.521 -17.154 -22.770  0.00  0.00    -0.044 C 
BRANCH  23  24
ATOM     24  N   UNL     1      35.300 -16.241 -23.884  0.00  0.00    +0.386 N 
ATOM     25  C   UNL     1      34.511 -15.084 -23.456  0.00  0.00    -0.101 C 
ATOM     26  C   UNL     1      34.630 -16.929 -24.989  0.00  0.00    -0.101 C 
ATOM     27  H   UNL     1      36.209 -15.913 -24.209  0.00  0.00    -0.080 HD
ENDBRANCH  23  24
ENDBRANCH  20  23
ENDBRANCH  19  20
ENDBRANCH  18  19
ENDBRANCH  12  18
ENDBRANCH   2  15
BRANCH   3  28
ATOM     28  C   UNL     1      33.035 -23.845 -14.896  0.00  0.00    +0.050 C 
ATOM     29  C   UNL     1      32.694 -23.488 -16.203  0.00  0.00    +0.015 C 
ATOM     30  C   UNL     1      32.119 -23.632 -13.861  0.00  0.00    +0.015 C 
ATOM     31  C   UNL     1      31.449 -22.922 -16.475  0.00  0.00    +0.001 C 
ATOM     32  C   UNL     1      30.874 -23.067 -14.132  0.00  0.00    +0.001 C 
ATOM     33  C   UNL     1      30.538 -22.712 -15.439  0.00  0.00    +0.000 C 
ENDBRANCH   3  28
TORSDOF 8
ENDMDL
MODEL 2
REMARK VINA RESULT:      -9.6      1.920      4.105
REMARK  Name = 445958
REMARK  8 active torsions:
REMARK  status: ('A' for Active; 'I' for Inactive)
REMARK    1  A    between atoms: N_2  and  C_15
REMARK    2  A    between atoms: N_3  and  C_28
REMARK    3  A    between atoms: C_12  and  O_18
REMARK    4  A    between atoms: O_18  and  C_19
REMARK    5  A    between atoms: C_19  and  C_20
REMARK    6  A    between atoms: C_20  and  O_21
REMARK    7  A    between atoms: C_20  and  C_23
REMARK    8  A    between atoms: C_23  and  N_24
REMARK                            x       y       z     vdW  Elec       q    Type
REMARK                         _______ _______ _______ _____ _____    ______ ____
ROOT
ATOM      1 BR   UNL     1      31.930 -24.860 -13.168  0.00  0.00    -0.043 Br
ATOM      2  N   UNL     1      32.101 -22.166 -18.505  0.00  0.00    -0.247 N 
ATOM      3  N   UNL     1      34.364 -23.464 -14.586  0.00  0.00    -0.287 N 
ATOM      4  N   UNL     1      33.234 -22.811 -16.554  0.00  0.00    -0.321 NA
ATOM      5  N   UNL     1      30.899 -23.326 -16.858  0.00  0.00    -0.169 NA
ATOM      6  C   UNL     1      32.076 -22.797 -17.247  0.00  0.00    +0.150 C 
ATOM      7  C   UNL     1      33.173 -23.423 -15.353  0.00  0.00    +0.204 C 
ATOM      8  C   UNL     1      32.029 -24.001 -14.843  0.00  0.00    +0.099 C 
ATOM      9  C   UNL     1      30.911 -23.922 -15.647  0.00  0.00    +0.122 C 
ATOM     10  H   UNL     1      31.235 -22.180 -18.972  0.00  0.00    +0.165 HD
ATOM     11  H   UNL     1      34.208 -23.472 -13.613  0.00  0.00    +0.155 HD
ENDROOT
BRANCH   2  15
ATOM     12  C   UNL     1      35.140 -20.237 -20.653  0.00  0.00    +0.139 C 
ATOM     13  C   UNL     1      33.827 -19.792 -20.766  0.00  0.00    +0.038 C 
ATOM     14  C   UNL     1      35.454 -21.315 -19.834  0.00  0.00    +0.038 C 
ATOM     15  C   UNL     1      33.124 -21.517 -19.229  0.00  0.00    +0.058 C 
ATOM     16  C   UNL     1      32.816 -20.434 -20.052  0.00  0.00    +0.018 C 
ATOM     17  C   UNL     1      34.443 -21.958 -19.119  0.00  0.00    +0.018 C 
BRANCH  12  18
ATOM     18  O   UNL     1      36.133 -19.606 -21.355  0.00  0.00    -0.473 OA
BRANCH  18  19
ATOM     19  C   UNL     1      36.126 -18.182 -21.337  0.00  0.00    +0.232 C 
BRANCH  19  20
ATOM     20  C   UNL     1      35.833 -17.673 -22.747  0.00  0.00    +0.133 C 
BRANCH  20  21
ATOM     21  O   UNL     1      35.650 -18.798 -23.611  0.00  0.00    -0.383 OA
ATOM     22  H   UNL     1      36.156 -18.663 -24.428  0.00  0.00    +0.210 HD
ENDBRANCH  20  21
BRANCH  20  23
ATOM     23  C   UNL     1      34.580 -16.798 -22.827  0.00  0.00    -0.044 C 
BRANCH  23  24
ATOM     24  N   UNL     1      34.728 -15.718 -23.792  0.00  0.00    +0.386 N 
ATOM     25  C   UNL     1      34.286 -14.446 -23.216  0.00  0.00    -0.101 C 
ATOM     26  C   UNL     1      33.975 -16.009 -25.013  0.00  0.00    -0.101 C 
ATOM     27  H   UNL     1      35.717 -15.640 -24.032  0.00  0.00    -0.080 HD
ENDBRANCH  23  24
ENDBRANCH  20  23
ENDBRANCH  19  20
ENDBRANCH  18  19
ENDBRANCH  12  18
ENDBRANCH   2  15
BRANCH   3  28
ATOM     28  C   UNL     1      35.721 -23.496 -14.943  0.00  0.00    +0.050 C 
ATOM     29  C   UNL     1      36.540 -24.540 -14.505  0.00  0.00    +0.015 C 
ATOM     30  C   UNL     1      36.263 -22.483 -15.740  0.00  0.00    +0.015 C 
ATOM     31  C   UNL     1      37.889 -24.573 -14.858  0.00  0.00    +0.001 C 
ATOM     32  C   UNL     1      37.611 -22.515 -16.094  0.00  0.00    +0.001 C 
ATOM     33  C   UNL     1      38.424 -23.560 -15.654  0.00  0.00    +0.000 C 
ENDBRANCH   3  28
TORSDOF 8
ENDMDL
MODEL 3
REMARK VINA RESULT:      -9.0      1.479      2.112
REMARK  Name = 445958
REMARK  8 active torsions:
REMARK  status: ('A' for Active; 'I' for Inactive)
REMARK    1  A    between atoms: N_2  and  C_15
REMARK    2  A    between atoms: N_3  and  C_28
REMARK    3  A    between atoms: C_12  and  O_18
REMARK    4  A    between atoms: O_18  and  C_19
REMARK    5  A    between atoms: C_19  and  C_20
REMARK    6  A    between atoms: C_20  and  O_21
REMARK    7  A    between atoms: C_20  and  C_23
REMARK    8  A    between atoms: C_23  and  N_24
REMARK                            x       y       z     vdW  Elec       q    Type
REMARK                         _______ _______ _______ _____ _____    ______ ____
ROOT
ATOM      1 BR   UNL     1      35.551 -25.026 -10.733  0.00  0.00    -0.043 Br
ATOM      2  N   UNL     1      36.982 -22.370 -15.898  0.00  0.00    -0.247 N 
ATOM      3  N   UNL     1      33.766 -24.607 -13.287  0.00  0.00    -0.287 N 
ATOM      4  N   UNL     1      35.375 -23.485 -14.602  0.00  0.00    -0.321 NA
ATOM      5  N   UNL     1      37.583 -23.052 -13.735  0.00  0.00    -0.169 NA
ATOM      6  C   UNL     1      36.631 -22.998 -14.688  0.00  0.00    +0.150 C 
ATOM      7  C   UNL     1      35.073 -24.079 -13.429  0.00  0.00    +0.204 C 
ATOM      8  C   UNL     1      35.959 -24.198 -12.378  0.00  0.00    +0.099 C 
ATOM      9  C   UNL     1      37.212 -23.661 -12.589  0.00  0.00    +0.122 C 
ATOM     10  H   UNL     1      37.907 -22.033 -15.915  0.00  0.00    +0.165 HD
ATOM     11  H   UNL     1      33.715 -25.387 -12.688  0.00  0.00    +0.155 HD
ENDROOT
BRANCH   2  15
ATOM     12  C   UNL     1      34.865 -21.654 -19.445  0.00  0.00    +0.139 C 
ATOM     13  C   UNL     1      34.272 -22.392 -18.426  0.00  0.00    +0.038 C 
ATOM     14  C   UNL     1      36.153 -21.152 -19.298  0.00  0.00    +0.038 C 
ATOM     15  C   UNL     1      36.270 -22.130 -17.092  0.00  0.00    +0.058 C 
ATOM     16  C   UNL     1      34.977 -22.630 -17.246  0.00  0.00    +0.018 C 
ATOM     17  C   UNL     1      36.858 -21.390 -18.118  0.00  0.00    +0.018 C 
BRANCH  12  18
ATOM     18  O   UNL     1      34.173 -21.421 -20.604  0.00  0.00    -0.473 OA
BRANCH  18  19
ATOM     19  C   UNL     1      33.067 -20.528 -20.520  0.00  0.00    +0.232 C 
BRANCH  19  20
ATOM     20  C   UNL     1      33.299 -19.365 -21.483  0.00  0.00    +0.133 C 
BRANCH  20  21
ATOM     21  O   UNL     1      33.402 -18.156 -20.726  0.00  0.00    -0.383 OA
ATOM     22  H   UNL     1      33.056 -18.305 -19.831  0.00  0.00    +0.210 HD
ENDBRANCH  20  21
BRANCH  20  23
ATOM     23  C   UNL     1      34.572 -19.516 -22.319  0.00  0.00    -0.044 C 
BRANCH  23  24
ATOM     24  N   UNL     1      35.337 -18.278 -22.380  0.00  0.00    +0.386 N 
ATOM     25  C   UNL     1      35.306 -17.718 -23.733  0.00  0.00    -0.101 C 
ATOM     26  C   UNL     1      36.721 -18.505 -21.959  0.00  0.00    -0.101 C 
ATOM     27  H   UNL     1      34.908 -17.609 -21.741  0.00  0.00    -0.080 HD
ENDBRANCH  23  24
ENDBRANCH  20  23
ENDBRANCH  19  20
ENDBRANCH  18  19
ENDBRANCH  12  18
ENDBRANCH   2  15
BRANCH   3  28
ATOM     28  C   UNL     1      32.528 -24.233 -13.836  0.00  0.00    +0.050 C 
ATOM     29  C   UNL     1      32.251 -22.888 -14.093  0.00  0.00    +0.015 C 
ATOM     30  C   UNL     1      31.566 -25.204 -14.130  0.00  0.00    +0.015 C 
ATOM     31  C   UNL     1      31.022 -22.515 -14.637  0.00  0.00    +0.001 C 
ATOM     32  C   UNL     1      30.338 -24.832 -14.674  0.00  0.00    +0.001 C 
ATOM     33  C   UNL     1      30.065 -23.488 -14.929  0.00  0.00    +0.000 C 
ENDBRANCH   3  28
TORSDOF 8
ENDMDL
MODEL 4
REMARK VINA RESULT:      -8.8      4.079      7.373
REMARK  Name = 445958
REMARK  8 active torsions:
REMARK  status: ('A' for Active; 'I' for Inactive)
REMARK    1  A    between atoms: N_2  and  C_15
REMARK    2  A    between atoms: N_3  and  C_28
REMARK    3  A    between atoms: C_12  and  O_18
REMARK    4  A    between atoms: O_18  and  C_19
REMARK    5  A    between atoms: C_19  and  C_20
REMARK    6  A    between atoms: C_20  and  O_21
REMARK    7  A    between atoms: C_20  and  C_23
REMARK    8  A    between atoms: C_23  and  N_24
REMARK                            x       y       z     vdW  Elec       q    Type
REMARK                         _______ _______ _______ _____ _____    ______ ____
ROOT
ATOM      1 BR   UNL     1      39.724 -24.096 -15.382  0.00  0.00    -0.043 Br
ATOM      2  N   UNL     1      34.165 -24.961 -13.351  0.00  0.00    -0.247 N 
ATOM      3  N   UNL     1      37.046 -22.772 -16.363  0.00  0.00    -0.287 N 
ATOM      4  N   UNL     1      35.596 -23.867 -14.855  0.00  0.00    -0.321 NA
ATOM      5  N   UNL     1      36.459 -25.443 -13.247  0.00  0.00    -0.169 NA
ATOM      6  C   UNL     1      35.468 -24.747 -13.840  0.00  0.00    +0.150 C 
ATOM      7  C   UNL     1      36.858 -23.687 -15.298  0.00  0.00    +0.204 C 
ATOM      8  C   UNL     1      37.956 -24.338 -14.774  0.00  0.00    +0.099 C 
ATOM      9  C   UNL     1      37.694 -25.213 -13.740  0.00  0.00    +0.122 C 
ATOM     10  H   UNL     1      34.121 -25.609 -12.612  0.00  0.00    +0.165 HD
ATOM     11  H   UNL     1      37.924 -22.324 -16.351  0.00  0.00    +0.155 HD
ENDROOT
BRANCH   2  15
ATOM     12  C   UNL     1      30.435 -23.378 -14.423  0.00  0.00    +0.139 C 
ATOM     13  C   UNL     1      30.509 -24.652 -13.870  0.00  0.00    +0.038 C 
ATOM     14  C   UNL     1      31.586 -22.625 -14.624  0.00  0.00    +0.038 C 
ATOM     15  C   UNL     1      32.909 -24.429 -13.713  0.00  0.00    +0.058 C 
ATOM     16  C   UNL     1      31.750 -25.179 -13.514  0.00  0.00    +0.018 C 
ATOM     17  C   UNL     1      32.827 -23.151 -14.268  0.00  0.00    +0.018 C 
BRANCH  12  18
ATOM     18  O   UNL     1      29.216 -22.861 -14.774  0.00  0.00    -0.473 OA
BRANCH  18  19
ATOM     19  C   UNL     1      28.321 -23.736 -15.455  0.00  0.00    +0.232 C 
BRANCH  19  20
ATOM     20  C   UNL     1      28.309 -23.371 -16.938  0.00  0.00    +0.133 C 
BRANCH  20  21
ATOM     21  O   UNL     1      27.499 -24.321 -17.637  0.00  0.00    -0.383 OA
ATOM     22  H   UNL     1      27.001 -23.868 -18.336  0.00  0.00    +0.210 HD
ENDBRANCH  20  21
BRANCH  20  23
ATOM     23  C   UNL     1      27.751 -21.973 -17.212  0.00  0.00    -0.044 C 
BRANCH  23  24
ATOM     24  N   UNL     1      26.296 -21.968 -17.287  0.00  0.00    +0.386 N 
ATOM     25  C   UNL     1      25.833 -20.996 -18.280  0.00  0.00    -0.101 C 
ATOM     26  C   UNL     1      25.713 -21.671 -15.978  0.00  0.00    -0.101 C 
ATOM     27  H   UNL     1      25.991 -22.898 -17.575  0.00  0.00    -0.080 HD
ENDBRANCH  23  24
ENDBRANCH  20  23
ENDBRANCH  19  20
ENDBRANCH  18  19
ENDBRANCH  12  18
ENDBRANCH   2  15
BRANCH   3  28
ATOM     28  C   UNL     1      36.225 -22.380 -17.432  0.00  0.00    +0.050 C 
ATOM     29  C   UNL     1      34.880 -22.757 -17.461  0.00  0.00    +0.015 C 
ATOM     30  C   UNL     1      36.747 -21.609 -18.475  0.00  0.00    +0.015 C 
ATOM     31  C   UNL     1      34.063 -22.369 -18.522  0.00  0.00    +0.001 C 
ATOM     32  C   UNL     1      35.931 -21.220 -19.537  0.00  0.00    +0.001 C 
ATOM     33  C   UNL     1      34.588 -21.600 -19.561  0.00  0.00    +0.000 C 
ENDBRANCH   3  28
TORSDOF 8
ENDMDL
MODEL 5
REMARK VINA RESULT:      -8.5      8.395     12.441
REMARK  Name = 445958
REMARK  8 active torsions:
REMARK  status: ('A' for Active; 'I' for Inactive)
REMARK    1  A    between atoms: N_2  and  C_15
REMARK    2  A    between atoms: N_3  and  C_28
REMARK    3  A    between atoms: C_12  and  O_18
REMARK    4  A    between atoms: O_18  and  C_19
REMARK    5  A    between atoms: C_19  and  C_20
REMARK    6  A    between atoms: C_20  and  O_21
REMARK    7  A    between atoms: C_20  and  C_23
REMARK    8  A    between atoms: C_23  and  N_24
REMARK                            x       y       z     vdW  Elec       q    Type
REMARK                         _______ _______ _______ _____ _____    ______ ____
ROOT
ATOM      1 BR   UNL     1      34.265 -17.692 -22.302  0.00  0.00    -0.043 Br
ATOM      2  N   UNL     1      31.971 -12.585 -20.196  0.00  0.00    -0.247 N 
ATOM      3  N   UNL     1      34.096 -14.887 -23.711  0.00  0.00    -0.287 N 
ATOM      4  N   UNL     1      33.030 -13.727 -21.952  0.00  0.00    -0.321 NA
ATOM      5  N   UNL     1      32.467 -14.859 -19.899  0.00  0.00    -0.169 NA
ATOM      6  C   UNL     1      32.515 -13.780 -20.706  0.00  0.00    +0.150 C 
ATOM      7  C   UNL     1      33.542 -14.890 -22.407  0.00  0.00    +0.204 C 
ATOM      8  C   UNL     1      33.554 -16.061 -21.679  0.00  0.00    +0.099 C 
ATOM      9  C   UNL     1      32.998 -15.986 -20.419  0.00  0.00    +0.122 C 
ATOM     10  H   UNL     1      31.609 -12.672 -19.285  0.00  0.00    +0.165 HD
ATOM     11  H   UNL     1      34.829 -15.534 -23.832  0.00  0.00    +0.155 HD
ENDROOT
BRANCH   2  15
ATOM     12  C   UNL     1      31.595  -8.730 -21.798  0.00  0.00    +0.139 C 
ATOM     13  C   UNL     1      31.967  -8.890 -20.467  0.00  0.00    +0.038 C 
ATOM     14  C   UNL     1      31.347  -9.837 -22.602  0.00  0.00    +0.038 C 
ATOM     15  C   UNL     1      31.844 -11.288 -20.735  0.00  0.00    +0.058 C 
ATOM     16  C   UNL     1      32.092 -10.173 -19.934  0.00  0.00    +0.018 C 
ATOM     17  C   UNL     1      31.472 -11.120 -22.069  0.00  0.00    +0.018 C 
BRANCH  12  18
ATOM     18  O   UNL     1      31.471  -7.470 -22.321  0.00  0.00    -0.473 OA
BRANCH  18  19
ATOM     19  C   UNL     1      30.780  -7.356 -23.561  0.00  0.00    +0.232 C 
BRANCH  19  20
ATOM     20  C   UNL     1      31.365  -6.184 -24.345  0.00  0.00    +0.133 C 
BRANCH  20  21
ATOM     21  O   UNL     1      30.577  -5.019 -24.083  0.00  0.00    -0.383 OA
ATOM     22  H   UNL     1      31.111  -4.371 -23.595  0.00  0.00    +0.210 HD
ENDBRANCH  20  21
BRANCH  20  23
ATOM     23  C   UNL     1      32.817  -5.873 -23.976  0.00  0.00    -0.044 C 
BRANCH  23  24
ATOM     24  N   UNL     1      33.747  -6.832 -24.557  0.00  0.00    +0.386 N 
ATOM     25  C   UNL     1      34.625  -7.390 -23.526  0.00  0.00    -0.101 C 
ATOM     26  C   UNL     1      34.543  -6.205 -25.614  0.00  0.00    -0.101 C 
ATOM     27  H   UNL     1      33.203  -7.591 -24.967  0.00  0.00    -0.080 HD
ENDBRANCH  23  24
ENDBRANCH  20  23
ENDBRANCH  19  20
ENDBRANCH  18  19
ENDBRANCH  12  18
ENDBRANCH   2  15
BRANCH   3  28
ATOM     28  C   UNL     1      33.802 -14.141 -24.864  0.00  0.00    +0.050 C 
ATOM     29  C   UNL     1      33.295 -14.775 -26.002  0.00  0.00    +0.015 C 
ATOM     30  C   UNL     1      34.014 -12.760 -24.882  0.00  0.00    +0.015 C 
ATOM     31  C   UNL     1      33.004 -14.036 -27.148  0.00  0.00    +0.001 C 
ATOM     32  C   UNL     1      33.722 -12.020 -26.027  0.00  0.00    +0.001 C 
ATOM     33  C   UNL     1      33.217 -12.657 -27.160  0.00  0.00    +0.000 C 
ENDBRANCH   3  28
TORSDOF 8
ENDMDL
MODEL 6
REMARK VINA RESULT:      -8.4      8.678     12.990
REMARK  Name = 445958
REMARK  8 active torsions:
REMARK  status: ('A' for Active; 'I' for Inactive)
REMARK    1  A    between atoms: N_2  and  C_15
REMARK    2  A    between atoms: N_3  and  C_28
REMARK    3  A    between atoms: C_12  and  O_18
REMARK    4  A    between atoms: O_18  and  C_19
REMARK    5  A    between atoms: C_19  and  C_20
REMARK    6  A    between atoms: C_20  and  O_21
REMARK    7  A    between atoms: C_20  and  C_23
REMARK    8  A    between atoms: C_23  and  N_24
REMARK                            x       y       z     vdW  Elec       q    Type
REMARK                         _______ _______ _______ _____ _____    ______ ____
ROOT
ATOM      1 BR   UNL     1      34.134 -17.382 -21.963  0.00  0.00    -0.043 Br
ATOM      2  N   UNL     1      31.886 -12.103 -20.272  0.00  0.00    -0.247 N 
ATOM      3  N   UNL     1      34.038 -14.683 -23.571  0.00  0.00    -0.287 N 
ATOM      4  N   UNL     1      32.959 -13.384 -21.920  0.00  0.00    -0.321 NA
ATOM      5  N   UNL     1      32.338 -14.358 -19.804  0.00  0.00    -0.169 NA
ATOM      6  C   UNL     1      32.419 -13.340 -20.684  0.00  0.00    +0.150 C 
ATOM      7  C   UNL     1      33.460 -14.584 -22.281  0.00  0.00    +0.204 C 
ATOM      8  C   UNL     1      33.438 -15.700 -21.471  0.00  0.00    +0.099 C 
ATOM      9  C   UNL     1      32.859 -15.527 -20.231  0.00  0.00    +0.122 C 
ATOM     10  H   UNL     1      31.505 -12.119 -19.365  0.00  0.00    +0.165 HD
ATOM     11  H   UNL     1      34.762 -15.348 -23.631  0.00  0.00    +0.155 HD
ENDROOT
BRANCH   2  15
ATOM     12  C   UNL     1      31.602  -8.366 -22.149  0.00  0.00    +0.139 C 
ATOM     13  C   UNL     1      31.335  -9.523 -22.874  0.00  0.00    +0.038 C 
ATOM     14  C   UNL     1      31.963  -8.438 -20.809  0.00  0.00    +0.038 C 
ATOM     15  C   UNL     1      31.791 -10.845 -20.904  0.00  0.00    +0.058 C 
ATOM     16  C   UNL     1      31.429 -10.766 -22.249  0.00  0.00    +0.018 C 
ATOM     17  C   UNL     1      32.057  -9.681 -20.184  0.00  0.00    +0.018 C 
BRANCH  12  18
ATOM     18  O   UNL     1      31.510  -7.145 -22.763  0.00  0.00    -0.473 OA
BRANCH  18  19
ATOM     19  C   UNL     1      31.203  -6.031 -21.930  0.00  0.00    +0.232 C 
BRANCH  19  20
ATOM     20  C   UNL     1      30.819  -4.847 -22.814  0.00  0.00    +0.133 C 
BRANCH  20  21
ATOM     21  O   UNL     1      31.670  -3.742 -22.495  0.00  0.00    -0.383 OA
ATOM     22  H   UNL     1      31.951  -3.304 -23.314  0.00  0.00    +0.210 HD
ENDBRANCH  20  21
BRANCH  20  23
ATOM     23  C   UNL     1      30.955  -5.138 -24.310  0.00  0.00    -0.044 C 
BRANCH  23  24
ATOM     24  N   UNL     1      32.148  -4.527 -24.881  0.00  0.00    +0.386 N 
ATOM     25  C   UNL     1      31.786  -3.550 -25.910  0.00  0.00    -0.101 C 
ATOM     26  C   UNL     1      33.033  -5.549 -25.444  0.00  0.00    -0.101 C 
ATOM     27  H   UNL     1      32.645  -4.044 -24.133  0.00  0.00    -0.080 HD
ENDBRANCH  23  24
ENDBRANCH  20  23
ENDBRANCH  19  20
ENDBRANCH  18  19
ENDBRANCH  12  18
ENDBRANCH   2  15
BRANCH   3  28
ATOM     28  C   UNL     1      33.779 -14.016 -24.780  0.00  0.00    +0.050 C 
ATOM     29  C   UNL     1      33.288 -14.723 -25.881  0.00  0.00    +0.015 C 
ATOM     30  C   UNL     1      34.010 -12.642 -24.890  0.00  0.00    +0.015 C 
ATOM     31  C   UNL     1      33.030 -14.063 -27.082  0.00  0.00    +0.001 C 
ATOM     32  C   UNL     1      33.753 -11.981 -26.090  0.00  0.00    +0.001 C 
ATOM     33  C   UNL     1      33.263 -12.691 -27.187  0.00  0.00    +0.000 C 
ENDBRANCH   3  28
TORSDOF 8
ENDMDL
MODEL 7
REMARK VINA RESULT:      -8.3      7.882     11.821
REMARK  Name = 445958
REMARK  8 active torsions:
REMARK  status: ('A' for Active; 'I' for Inactive)
REMARK    1  A    between atoms: N_2  and  C_15
REMARK    2  A    between atoms: N_3  and  C_28
REMARK    3  A    between atoms: C_12  and  O_18
REMARK    4  A    between atoms: O_18  and  C_19
REMARK    5  A    between atoms: C_19  and  C_20
REMARK    6  A    between atoms: C_20  and  O_21
REMARK    7  A    between atoms: C_20  and  C_23
REMARK    8  A    between atoms: C_23  and  N_24
REMARK                            x       y       z     vdW  Elec       q    Type
REMARK                         _______ _______ _______ _____ _____    ______ ____
ROOT
ATOM      1 BR   UNL     1      34.862 -18.219 -23.147  0.00  0.00    -0.043 Br
ATOM      2  N   UNL     1      32.317 -13.653 -20.241  0.00  0.00    -0.247 N 
ATOM      3  N   UNL     1      34.324 -15.295 -24.170  0.00  0.00    -0.287 N 
ATOM      4  N   UNL     1      33.316 -14.466 -22.202  0.00  0.00    -0.321 NA
ATOM      5  N   UNL     1      33.036 -15.886 -20.274  0.00  0.00    -0.169 NA
ATOM      6  C   UNL     1      32.918 -14.719 -20.938  0.00  0.00    +0.150 C 
ATOM      7  C   UNL     1      33.888 -15.509 -22.840  0.00  0.00    +0.204 C 
ATOM      8  C   UNL     1      34.066 -16.753 -22.269  0.00  0.00    +0.099 C 
ATOM      9  C   UNL     1      33.617 -16.885 -20.972  0.00  0.00    +0.122 C 
ATOM     10  H   UNL     1      32.044 -13.883 -19.324  0.00  0.00    +0.165 HD
ATOM     11  H   UNL     1      35.098 -15.848 -24.428  0.00  0.00    +0.155 HD
ENDROOT
BRANCH   2  15
ATOM     12  C   UNL     1      31.460  -9.689 -21.303  0.00  0.00    +0.139 C 
ATOM     13  C   UNL     1      31.650 -10.643 -22.297  0.00  0.00    +0.038 C 
ATOM     14  C   UNL     1      31.552 -10.038 -19.960  0.00  0.00    +0.038 C 
ATOM     15  C   UNL     1      32.029 -12.319 -20.598  0.00  0.00    +0.058 C 
ATOM     16  C   UNL     1      31.935 -11.962 -21.944  0.00  0.00    +0.018 C 
ATOM     17  C   UNL     1      31.837 -11.357 -19.606  0.00  0.00    +0.018 C 
BRANCH  12  18
ATOM     18  O   UNL     1      31.181  -8.394 -21.650  0.00  0.00    -0.473 OA
BRANCH  18  19
ATOM     19  C   UNL     1      31.507  -8.004 -22.981  0.00  0.00    +0.232 C 
BRANCH  19  20
ATOM     20  C   UNL     1      32.649  -6.991 -22.931  0.00  0.00    +0.133 C 
BRANCH  20  21
ATOM     21  O   UNL     1      32.326  -5.983 -21.969  0.00  0.00    -0.383 OA
ATOM     22  H   UNL     1      33.138  -5.527 -21.695  0.00  0.00    +0.210 HD
ENDBRANCH  20  21
BRANCH  20  23
ATOM     23  C   UNL     1      33.992  -7.612 -22.541  0.00  0.00    -0.044 C 
BRANCH  23  24
ATOM     24  N   UNL     1      34.883  -7.756 -23.685  0.00  0.00    +0.386 N 
ATOM     25  C   UNL     1      34.527  -6.803 -24.739  0.00  0.00    -0.101 C 
ATOM     26  C   UNL     1      34.840  -9.124 -24.204  0.00  0.00    -0.101 C 
ATOM     27  H   UNL     1      35.833  -7.556 -23.373  0.00  0.00    -0.080 HD
ENDBRANCH  23  24
ENDBRANCH  20  23
ENDBRANCH  19  20
ENDBRANCH  18  19
ENDBRANCH  12  18
ENDBRANCH   2  15
BRANCH   3  28
ATOM     28  C   UNL     1      33.866 -14.449 -25.193  0.00  0.00    +0.050 C 
ATOM     29  C   UNL     1      33.253 -14.986 -26.329  0.00  0.00    +0.015 C 
ATOM     30  C   UNL     1      34.020 -13.064 -25.083  0.00  0.00    +0.015 C 
ATOM     31  C   UNL     1      32.799 -14.147 -27.346  0.00  0.00    +0.001 C 
ATOM     32  C   UNL     1      33.566 -12.224 -26.099  0.00  0.00    +0.001 C 
ATOM     33  C   UNL     1      32.955 -12.765 -27.230  0.00  0.00    +0.000 C 
ENDBRANCH   3  28
TORSDOF 8
ENDMDL
MODEL 8
REMARK VINA RESULT:      -8.3      4.595      8.612
REMARK  Name = 445958
REMARK  8 active torsions:
REMARK  status: ('A' for Active; 'I' for Inactive)
REMARK    1  A    between atoms: N_2  and  C_15
REMARK    2  A    between atoms: N_3  and  C_28
REMARK    3  A    between atoms: C_12  and  O_18
REMARK    4  A    between atoms: O_18  and  C_19
REMARK    5  A    between atoms: C_19  and  C_20
REMARK    6  A    between atoms: C_20  and  O_21
REMARK    7  A    between atoms: C_20  and  C_23
REMARK    8  A    between atoms: C_23  and  N_24
REMARK                            x       y       z     vdW  Elec       q    Type
REMARK                         _______ _______ _______ _____ _____    ______ ____
ROOT
ATOM      1 BR   UNL     1      28.825 -23.030 -17.222  0.00  0.00    -0.043 Br
ATOM      2  N   UNL     1      33.140 -23.543 -13.112  0.00  0.00    -0.247 N 
ATOM      3  N   UNL     1      31.942 -23.005 -17.633  0.00  0.00    -0.287 N 
ATOM      4  N   UNL     1      32.549 -23.275 -15.367  0.00  0.00    -0.321 NA
ATOM      5  N   UNL     1      30.859 -23.461 -13.657  0.00  0.00    -0.169 NA
ATOM      6  C   UNL     1      32.135 -23.421 -14.091  0.00  0.00    +0.150 C 
ATOM      7  C   UNL     1      31.560 -23.161 -16.278  0.00  0.00    +0.204 C 
ATOM      8  C   UNL     1      30.218 -23.188 -15.961  0.00  0.00    +0.099 C 
ATOM      9  C   UNL     1      29.923 -23.342 -14.622  0.00  0.00    +0.122 C 
ATOM     10  H   UNL     1      32.791 -23.648 -12.198  0.00  0.00    +0.165 HD
ATOM     11  H   UNL     1      31.293 -23.378 -18.273  0.00  0.00    +0.155 HD
ENDROOT
BRANCH   2  15
ATOM     12  C   UNL     1      37.326 -23.549 -13.326  0.00  0.00    +0.139 C 
ATOM     13  C   UNL     1      36.697 -23.897 -12.135  0.00  0.00    +0.038 C 
ATOM     14  C   UNL     1      36.580 -23.199 -14.445  0.00  0.00    +0.038 C 
ATOM     15  C   UNL     1      34.549 -23.544 -13.183  0.00  0.00    +0.058 C 
ATOM     16  C   UNL     1      35.304 -23.895 -12.064  0.00  0.00    +0.018 C 
ATOM     17  C   UNL     1      35.187 -23.196 -14.374  0.00  0.00    +0.018 C 
BRANCH  12  18
ATOM     18  O   UNL     1      38.694 -23.550 -13.396  0.00  0.00    -0.473 OA
BRANCH  18  19
ATOM     19  C   UNL     1      39.340 -24.814 -13.278  0.00  0.00    +0.232 C 
BRANCH  19  20
ATOM     20  C   UNL     1      39.579 -25.376 -14.678  0.00  0.00    +0.133 C 
BRANCH  20  21
ATOM     21  O   UNL     1      40.959 -25.733 -14.799  0.00  0.00    -0.383 OA
ATOM     22  H   UNL     1      41.345 -25.274 -15.562  0.00  0.00    +0.210 HD
ENDBRANCH  20  21
BRANCH  20  23
ATOM     23  C   UNL     1      38.735 -26.616 -14.984  0.00  0.00    -0.044 C 
BRANCH  23  24
ATOM     24  N   UNL     1      37.332 -26.421 -14.643  0.00  0.00    +0.386 N 
ATOM     25  C   UNL     1      36.987 -27.169 -13.432  0.00  0.00    -0.101 C 
ATOM     26  C   UNL     1      36.469 -26.830 -15.752  0.00  0.00    -0.101 C 
ATOM     27  H   UNL     1      37.185 -25.428 -14.465  0.00  0.00    -0.080 HD
ENDBRANCH  23  24
ENDBRANCH  20  23
ENDBRANCH  19  20
ENDBRANCH  18  19
ENDBRANCH  12  18
ENDBRANCH   2  15
BRANCH   3  28
ATOM     28  C   UNL     1      33.066 -22.422 -18.240  0.00  0.00    +0.050 C 
ATOM     29  C   UNL     1      34.352 -22.769 -17.818  0.00  0.00    +0.015 C 
ATOM     30  C   UNL     1      32.906 -21.491 -19.271  0.00  0.00    +0.015 C 
ATOM     31  C   UNL     1      35.470 -22.190 -18.420  0.00  0.00    +0.001 C 
ATOM     32  C   UNL     1      34.022 -20.912 -19.873  0.00  0.00    +0.001 C 
ATOM     33  C   UNL     1      35.305 -21.262 -19.448  0.00  0.00    +0.000 C 
ENDBRANCH   3  28
TORSDOF 8
ENDMDL
MODEL 9
REMARK VINA RESULT:      -8.2     10.954     14.727
REMARK  Name = 445958
REMARK  8 active torsions:
REMARK  status: ('A' for Active; 'I' for Inactive)
REMARK    1  A    between atoms: N_2  and  C_15
REMARK    2  A    between atoms: N_3  and  C_28
REMARK    3  A    between atoms: C_12  and  O_18
REMARK    4  A    between atoms: O_18  and  C_19
REMARK    5  A    between atoms: C_19  and  C_20
REMARK    6  A    between atoms: C_20  and  O_21
REMARK    7  A    between atoms: C_20  and  C_23
REMARK    8  A    between atoms: C_23  and  N_24
REMARK                            x       y       z     vdW  Elec       q    Type
REMARK                         _______ _______ _______ _____ _____    ______ ____
ROOT
ATOM      1 BR   UNL     1      32.317 -14.702 -20.577  0.00  0.00    -0.043 Br
ATOM      2  N   UNL     1      31.762  -8.843 -21.647  0.00  0.00    -0.247 N 
ATOM      3  N   UNL     1      33.308 -13.057 -23.067  0.00  0.00    -0.287 N 
ATOM      4  N   UNL     1      32.535 -10.941 -22.359  0.00  0.00    -0.321 NA
ATOM      5  N   UNL     1      31.384 -10.694 -20.255  0.00  0.00    -0.169 NA
ATOM      6  C   UNL     1      31.900 -10.224 -21.409  0.00  0.00    +0.150 C 
ATOM      7  C   UNL     1      32.649 -12.260 -22.099  0.00  0.00    +0.204 C 
ATOM      8  C   UNL     1      32.165 -12.860 -20.955  0.00  0.00    +0.099 C 
ATOM      9  C   UNL     1      31.536 -12.021 -20.060  0.00  0.00    +0.122 C 
ATOM     10  H   UNL     1      31.294  -8.362 -20.926  0.00  0.00    +0.165 HD
ATOM     11  H   UNL     1      33.773 -13.838 -22.687  0.00  0.00    +0.155 HD
ENDROOT
BRANCH   2  15
ATOM     12  C   UNL     1      32.952  -6.377 -24.820  0.00  0.00    +0.139 C 
ATOM     13  C   UNL     1      33.914  -7.022 -24.052  0.00  0.00    +0.038 C 
ATOM     14  C   UNL     1      31.599  -6.541 -24.546  0.00  0.00    +0.038 C 
ATOM     15  C   UNL     1      32.162  -8.012 -22.714  0.00  0.00    +0.058 C 
ATOM     16  C   UNL     1      33.518  -7.843 -22.995  0.00  0.00    +0.018 C 
ATOM     17  C   UNL     1      31.202  -7.362 -23.490  0.00  0.00    +0.018 C 
BRANCH  12  18
ATOM     18  O   UNL     1      33.341  -5.570 -25.857  0.00  0.00    -0.473 OA
BRANCH  18  19
ATOM     19  C   UNL     1      32.657  -4.328 -25.993  0.00  0.00    +0.232 C 
BRANCH  19  20
ATOM     20  C   UNL     1      32.435  -4.049 -27.478  0.00  0.00    +0.133 C 
BRANCH  20  21
ATOM     21  O   UNL     1      31.709  -2.824 -27.610  0.00  0.00    -0.383 OA
ATOM     22  H   UNL     1      32.267  -2.164 -28.052  0.00  0.00    +0.210 HD
ENDBRANCH  20  21
BRANCH  20  23
ATOM     23  C   UNL     1      33.737  -3.922 -28.272  0.00  0.00    -0.044 C 
BRANCH  23  24
ATOM     24  N   UNL     1      34.870  -3.596 -27.417  0.00  0.00    +0.386 N 
ATOM     25  C   UNL     1      35.217  -2.178 -27.539  0.00  0.00    -0.101 C 
ATOM     26  C   UNL     1      36.026  -4.430 -27.751  0.00  0.00    -0.101 C 
ATOM     27  H   UNL     1      34.602  -3.783 -26.451  0.00  0.00    -0.080 HD
ENDBRANCH  23  24
ENDBRANCH  20  23
ENDBRANCH  19  20
ENDBRANCH  18  19
ENDBRANCH  12  18
ENDBRANCH   2  15
BRANCH   3  28
ATOM     28  C   UNL     1      33.427 -12.949 -24.462  0.00  0.00    +0.050 C 
ATOM     29  C   UNL     1      34.021 -11.820 -25.032  0.00  0.00    +0.015 C 
ATOM     30  C   UNL     1      32.952 -13.971 -25.289  0.00  0.00    +0.015 C 
ATOM     31  C   UNL     1      34.139 -11.712 -26.418  0.00  0.00    +0.001 C 
ATOM     32  C   UNL     1      33.070 -13.864 -26.674  0.00  0.00    +0.001 C 
ATOM     33  C   UNL     1      33.664 -12.735 -27.239  0.00  0.00    +0.000 C 
ENDBRANCH   3  28
TORSDOF 8
ENDMDL
