MODEL 1
REMARK VINA RESULT:     -10.2      0.000      0.000
REMARK  Name = 4369414
REMARK  8 active torsions:
REMARK  status: ('A' for Active; 'I' for Inactive)
REMARK    1  A    between atoms: C_1  and  C_3
REMARK    2  A    between atoms: C_1  and  N_16
REMARK    3  A    between atoms: C_8  and  O_9
REMARK    4  A    between atoms: O_9  and  S_10
REMARK    5  A    between atoms: S_10  and  N_13
REMARK    6  A    between atoms: N_16  and  C_17
REMARK    7  A    between atoms: N_16  and  N_25
REMARK    8  A    between atoms: C_22  and  C_24
REMARK                            x       y       z     vdW  Elec       q    Type
REMARK                         _______ _______ _______ _____ _____    ______ ____
ROOT
ATOM      1  C   UNL     1      35.396 -16.759 -21.614  0.00  0.00    +0.139 C 
ENDROOT
BRANCH   1   3
ATOM      2 BR   UNL     1      33.817 -12.299 -24.078  0.00  0.00    -0.046 Br
ATOM      3  C   UNL     1      34.361 -15.674 -21.732  0.00  0.00    +0.000 C 
ATOM      4  C   UNL     1      34.529 -14.667 -22.673  0.00  0.00    +0.007 C 
ATOM      5  C   UNL     1      33.250 -15.694 -20.900  0.00  0.00    +0.001 C 
ATOM      6  C   UNL     1      33.569 -13.662 -22.784  0.00  0.00    +0.071 C 
ATOM      7  C   UNL     1      32.289 -14.689 -21.011  0.00  0.00    +0.040 C 
ATOM      8  C   UNL     1      32.449 -13.673 -21.953  0.00  0.00    +0.179 C 
BRANCH   8   9
ATOM      9  O   UNL     1      31.493 -12.705 -22.035  0.00  0.00    -0.349 OA
BRANCH   9  10
ATOM     10  S   UNL     1      31.341 -11.492 -20.943  0.00  0.00    +0.086 S 
ATOM     11  O   UNL     1      32.205 -11.782 -19.813  0.00  0.00    -0.046 OA
ATOM     12  O   UNL     1      29.928 -11.227 -20.748  0.00  0.00    -0.046 OA
BRANCH  10  13
ATOM     13  N   UNL     1      32.008 -10.141 -21.766  0.00  0.00    -0.194 NA
ATOM     14  H   UNL     1      32.519 -10.462 -22.589  0.00  0.00    +0.145 HD
ATOM     15  H   UNL     1      32.643  -9.644 -21.143  0.00  0.00    +0.145 HD
ENDBRANCH  10  13
ENDBRANCH   9  10
ENDBRANCH   8   9
ENDBRANCH   1   3
BRANCH   1  16
ATOM     16  N   UNL     1      34.901 -18.020 -22.159  0.00  0.00    -0.227 N 
BRANCH  16  17
ATOM     17  C   UNL     1      34.639 -19.120 -21.317  0.00  0.00    +0.066 C 
ATOM     18  C   UNL     1      33.326 -19.432 -20.964  0.00  0.00    +0.017 C 
ATOM     19  C   UNL     1      35.694 -19.895 -20.836  0.00  0.00    +0.017 C 
ATOM     20  C   UNL     1      33.068 -20.519 -20.130  0.00  0.00    +0.012 C 
ATOM     21  C   UNL     1      35.436 -20.984 -20.001  0.00  0.00    +0.012 C 
ATOM     22  C   UNL     1      34.123 -21.295 -19.648  0.00  0.00    +0.069 C 
BRANCH  22  24
ATOM     23  N   UNL     1      33.642 -23.318 -18.102  0.00  0.00    -0.191 NA
ATOM     24  C   UNL     1      33.858 -22.410 -18.795  0.00  0.00    +0.100 C 
ENDBRANCH  22  24
ENDBRANCH  16  17
BRANCH  16  25
ATOM     25  N   UNL     1      34.722 -18.024 -23.540  0.00  0.00    -0.174 N 
ATOM     26  N   UNL     1      34.675 -17.375 -25.607  0.00  0.00    -0.127 NA
ATOM     27  N   UNL     1      34.243 -18.685 -25.547  0.00  0.00    -0.127 NA
ATOM     28  C   UNL     1      34.958 -16.997 -24.382  0.00  0.00    +0.210 C 
ATOM     29  C   UNL     1      34.280 -19.056 -24.287  0.00  0.00    +0.210 C 
ENDBRANCH  16  25
ENDBRANCH   1  16
TORSDOF 8
ENDMDL
MODEL 2
REMARK VINA RESULT:      -8.9      7.482     10.956
REMARK  Name = 4369414
REMARK  8 active torsions:
REMARK  status: ('A' for Active; 'I' for Inactive)
REMARK    1  A    between atoms: C_1  and  C_3
REMARK    2  A    between atoms: C_1  and  N_16
REMARK    3  A    between atoms: C_8  and  O_9
REMARK    4  A    between atoms: O_9  and  S_10
REMARK    5  A    between atoms: S_10  and  N_13
REMARK    6  A    between atoms: N_16  and  C_17
REMARK    7  A    between atoms: N_16  and  N_25
REMARK    8  A    between atoms: C_22  and  C_24
REMARK                            x       y       z     vdW  Elec       q    Type
REMARK                         _______ _______ _______ _____ _____    ______ ____
ROOT
ATOM      1  C   UNL     1      34.319 -24.168 -13.476  0.00  0.00    +0.139 C 
ENDROOT
BRANCH   1   3
ATOM      2 BR   UNL     1      29.586 -26.096 -15.003  0.00  0.00    -0.046 Br
ATOM      3  C   UNL     1      32.907 -23.873 -13.900  0.00  0.00    +0.000 C 
ATOM      4  C   UNL     1      32.050 -24.922 -14.204  0.00  0.00    +0.007 C 
ATOM      5  C   UNL     1      32.477 -22.555 -13.978  0.00  0.00    +0.001 C 
ATOM      6  C   UNL     1      30.739 -24.648 -14.595  0.00  0.00    +0.071 C 
ATOM      7  C   UNL     1      31.166 -22.281 -14.369  0.00  0.00    +0.040 C 
ATOM      8  C   UNL     1      30.298 -23.328 -14.677  0.00  0.00    +0.179 C 
BRANCH   8   9
ATOM      9  O   UNL     1      29.024 -23.027 -15.057  0.00  0.00    -0.349 OA
BRANCH   9  10
ATOM     10  S   UNL     1      28.613 -22.609 -16.588  0.00  0.00    +0.086 S 
ATOM     11  O   UNL     1      29.832 -22.353 -17.335  0.00  0.00    -0.046 OA
ATOM     12  O   UNL     1      27.560 -21.613 -16.523  0.00  0.00    -0.046 OA
BRANCH  10  13
ATOM     13  N   UNL     1      27.921 -24.049 -17.214  0.00  0.00    -0.194 NA
ATOM     14  H   UNL     1      28.653 -24.623 -17.635  0.00  0.00    +0.145 HD
ATOM     15  H   UNL     1      27.225 -23.814 -17.919  0.00  0.00    +0.145 HD
ENDBRANCH  10  13
ENDBRANCH   9  10
ENDBRANCH   8   9
ENDBRANCH   1   3
BRANCH   1  16
ATOM     16  N   UNL     1      35.173 -24.424 -14.632  0.00  0.00    -0.227 N 
BRANCH  16  17
ATOM     17  C   UNL     1      35.028 -23.675 -15.819  0.00  0.00    +0.066 C 
ATOM     18  C   UNL     1      33.912 -23.867 -16.634  0.00  0.00    +0.017 C 
ATOM     19  C   UNL     1      36.003 -22.744 -16.178  0.00  0.00    +0.017 C 
ATOM     20  C   UNL     1      33.770 -23.127 -17.807  0.00  0.00    +0.012 C 
ATOM     21  C   UNL     1      35.861 -22.003 -17.352  0.00  0.00    +0.012 C 
ATOM     22  C   UNL     1      34.745 -22.196 -18.167  0.00  0.00    +0.069 C 
BRANCH  22  24
ATOM     23  N   UNL     1      34.479 -20.822 -20.347  0.00  0.00    -0.191 NA
ATOM     24  C   UNL     1      34.599 -21.437 -19.368  0.00  0.00    +0.100 C 
ENDBRANCH  22  24
ENDBRANCH  16  17
BRANCH  16  25
ATOM     25  N   UNL     1      36.105 -25.441 -14.451  0.00  0.00    -0.174 N 
ATOM     26  N   UNL     1      37.593 -26.726 -13.538  0.00  0.00    -0.127 NA
ATOM     27  N   UNL     1      37.368 -27.162 -14.828  0.00  0.00    -0.127 NA
ATOM     28  C   UNL     1      36.819 -25.685 -13.333  0.00  0.00    +0.210 C 
ATOM     29  C   UNL     1      36.464 -26.370 -15.361  0.00  0.00    +0.210 C 
ENDBRANCH  16  25
ENDBRANCH   1  16
TORSDOF 8
ENDMDL
MODEL 3
REMARK VINA RESULT:      -8.7      4.675      7.623
REMARK  Name = 4369414
REMARK  8 active torsions:
REMARK  status: ('A' for Active; 'I' for Inactive)
REMARK    1  A    between atoms: C_1  and  C_3
REMARK    2  A    between atoms: C_1  and  N_16
REMARK    3  A    between atoms: C_8  and  O_9
REMARK    4  A    between atoms: O_9  and  S_10
REMARK    5  A    between atoms: S_10  and  N_13
REMARK    6  A    between atoms: N_16  and  C_17
REMARK    7  A    between atoms: N_16  and  N_25
REMARK    8  A    between atoms: C_22  and  C_24
REMARK                            x       y       z     vdW  Elec       q    Type
REMARK                         _______ _______ _______ _____ _____    ______ ____
ROOT
ATOM      1  C   UNL     1      35.319 -16.600 -21.540  0.00  0.00    +0.139 C 
ENDROOT
BRANCH   1   3
ATOM      2 BR   UNL     1      36.707 -21.616 -20.373  0.00  0.00    -0.046 Br
ATOM      3  C   UNL     1      34.869 -17.991 -21.189  0.00  0.00    +0.000 C 
ATOM      4  C   UNL     1      35.816 -18.985 -20.982  0.00  0.00    +0.007 C 
ATOM      5  C   UNL     1      33.512 -18.263 -21.074  0.00  0.00    +0.001 C 
ATOM      6  C   UNL     1      35.398 -20.275 -20.654  0.00  0.00    +0.071 C 
ATOM      7  C   UNL     1      33.094 -19.553 -20.746  0.00  0.00    +0.040 C 
ATOM      8  C   UNL     1      34.038 -20.558 -20.536  0.00  0.00    +0.179 C 
BRANCH   8   9
ATOM      9  O   UNL     1      33.597 -21.809 -20.218  0.00  0.00    -0.349 OA
BRANCH   9  10
ATOM     10  S   UNL     1      33.525 -22.377 -18.682  0.00  0.00    +0.086 S 
ATOM     11  O   UNL     1      32.189 -22.135 -18.167  0.00  0.00    -0.046 OA
ATOM     12  O   UNL     1      34.695 -21.905 -17.965  0.00  0.00    -0.046 OA
BRANCH  10  13
ATOM     13  N   UNL     1      33.697 -24.073 -18.885  0.00  0.00    -0.194 NA
ATOM     14  H   UNL     1      33.819 -24.514 -17.974  0.00  0.00    +0.145 HD
ATOM     15  H   UNL     1      34.510 -24.265 -19.468  0.00  0.00    +0.145 HD
ENDBRANCH  10  13
ENDBRANCH   9  10
ENDBRANCH   8   9
ENDBRANCH   1   3
BRANCH   1  16
ATOM     16  N   UNL     1      34.388 -15.963 -22.466  0.00  0.00    -0.227 N 
BRANCH  16  17
ATOM     17  C   UNL     1      33.575 -14.887 -22.052  0.00  0.00    +0.066 C 
ATOM     18  C   UNL     1      33.143 -14.808 -20.728  0.00  0.00    +0.017 C 
ATOM     19  C   UNL     1      33.204 -13.902 -22.968  0.00  0.00    +0.017 C 
ATOM     20  C   UNL     1      32.339 -13.745 -20.320  0.00  0.00    +0.012 C 
ATOM     21  C   UNL     1      32.400 -12.838 -22.559  0.00  0.00    +0.012 C 
ATOM     22  C   UNL     1      31.967 -12.759 -21.236  0.00  0.00    +0.069 C 
BRANCH  22  24
ATOM     23  N   UNL     1      30.476 -10.781 -20.477  0.00  0.00    -0.191 NA
ATOM     24  C   UNL     1      31.144 -11.669 -20.817  0.00  0.00    +0.100 C 
ENDBRANCH  22  24
ENDBRANCH  16  17
BRANCH  16  25
ATOM     25  N   UNL     1      34.383 -16.507 -23.748  0.00  0.00    -0.174 N 
ATOM     26  N   UNL     1      34.727 -17.856 -25.408  0.00  0.00    -0.127 NA
ATOM     27  N   UNL     1      34.025 -16.762 -25.870  0.00  0.00    -0.127 NA
ATOM     28  C   UNL     1      34.933 -17.680 -24.123  0.00  0.00    +0.210 C 
ATOM     29  C   UNL     1      33.828 -15.959 -24.848  0.00  0.00    +0.210 C 
ENDBRANCH  16  25
ENDBRANCH   1  16
TORSDOF 8
ENDMDL
MODEL 4
REMARK VINA RESULT:      -8.7      9.318     12.199
REMARK  Name = 4369414
REMARK  8 active torsions:
REMARK  status: ('A' for Active; 'I' for Inactive)
REMARK    1  A    between atoms: C_1  and  C_3
REMARK    2  A    between atoms: C_1  and  N_16
REMARK    3  A    between atoms: C_8  and  O_9
REMARK    4  A    between atoms: O_9  and  S_10
REMARK    5  A    between atoms: S_10  and  N_13
REMARK    6  A    between atoms: N_16  and  C_17
REMARK    7  A    between atoms: N_16  and  N_25
REMARK    8  A    between atoms: C_22  and  C_24
REMARK                            x       y       z     vdW  Elec       q    Type
REMARK                         _______ _______ _______ _____ _____    ______ ____
ROOT
ATOM      1  C   UNL     1      33.553 -23.983 -13.810  0.00  0.00    +0.139 C 
ENDROOT
BRANCH   1   3
ATOM      2 BR   UNL     1      38.511 -23.998 -11.843  0.00  0.00    -0.046 Br
ATOM      3  C   UNL     1      34.951 -24.529 -13.900  0.00  0.00    +0.000 C 
ATOM      4  C   UNL     1      35.915 -24.095 -13.000  0.00  0.00    +0.007 C 
ATOM      5  C   UNL     1      35.259 -25.462 -14.881  0.00  0.00    +0.001 C 
ATOM      6  C   UNL     1      37.212 -24.603 -13.083  0.00  0.00    +0.071 C 
ATOM      7  C   UNL     1      36.556 -25.971 -14.963  0.00  0.00    +0.040 C 
ATOM      8  C   UNL     1      37.531 -25.541 -14.064  0.00  0.00    +0.179 C 
BRANCH   8   9
ATOM      9  O   UNL     1      38.789 -26.056 -14.173  0.00  0.00    -0.349 OA
BRANCH   9  10
ATOM     10  S   UNL     1      40.018 -25.285 -14.936  0.00  0.00    +0.086 S 
ATOM     11  O   UNL     1      40.539 -26.164 -15.968  0.00  0.00    -0.046 OA
ATOM     12  O   UNL     1      40.896 -24.718 -13.930  0.00  0.00    -0.046 OA
BRANCH  10  13
ATOM     13  N   UNL     1      39.229 -23.979 -15.724  0.00  0.00    -0.194 NA
ATOM     14  H   UNL     1      38.265 -24.240 -15.931  0.00  0.00    +0.145 HD
ATOM     15  H   UNL     1      39.717 -23.762 -16.592  0.00  0.00    +0.145 HD
ENDBRANCH  10  13
ENDBRANCH   9  10
ENDBRANCH   8   9
ENDBRANCH   1   3
BRANCH   1  16
ATOM     16  N   UNL     1      32.985 -23.769 -15.137  0.00  0.00    -0.227 N 
BRANCH  16  17
ATOM     17  C   UNL     1      33.761 -23.218 -16.177  0.00  0.00    +0.066 C 
ATOM     18  C   UNL     1      34.994 -22.631 -15.893  0.00  0.00    +0.017 C 
ATOM     19  C   UNL     1      33.295 -23.259 -17.492  0.00  0.00    +0.017 C 
ATOM     20  C   UNL     1      35.761 -22.086 -16.921  0.00  0.00    +0.012 C 
ATOM     21  C   UNL     1      34.062 -22.713 -18.521  0.00  0.00    +0.012 C 
ATOM     22  C   UNL     1      35.295 -22.126 -18.236  0.00  0.00    +0.069 C 
BRANCH  22  24
ATOM     23  N   UNL     1      36.720 -21.115 -20.149  0.00  0.00    -0.191 NA
ATOM     24  C   UNL     1      36.081 -21.568 -19.290  0.00  0.00    +0.100 C 
ENDBRANCH  22  24
ENDBRANCH  16  17
BRANCH  16  25
ATOM     25  N   UNL     1      31.652 -24.149 -15.265  0.00  0.00    -0.174 N 
ATOM     26  N   UNL     1      29.576 -24.184 -15.886  0.00  0.00    -0.127 NA
ATOM     27  N   UNL     1      29.793 -25.236 -15.019  0.00  0.00    -0.127 NA
ATOM     28  C   UNL     1      30.713 -23.541 -16.019  0.00  0.00    +0.210 C 
ATOM     29  C   UNL     1      31.055 -25.195 -14.656  0.00  0.00    +0.210 C 
ENDBRANCH  16  25
ENDBRANCH   1  16
TORSDOF 8
ENDMDL
MODEL 5
REMARK VINA RESULT:      -8.7      5.028      8.217
REMARK  Name = 4369414
REMARK  8 active torsions:
REMARK  status: ('A' for Active; 'I' for Inactive)
REMARK    1  A    between atoms: C_1  and  C_3
REMARK    2  A    between atoms: C_1  and  N_16
REMARK    3  A    between atoms: C_8  and  O_9
REMARK    4  A    between atoms: O_9  and  S_10
REMARK    5  A    between atoms: S_10  and  N_13
REMARK    6  A    between atoms: N_16  and  C_17
REMARK    7  A    between atoms: N_16  and  N_25
REMARK    8  A    between atoms: C_22  and  C_24
REMARK                            x       y       z     vdW  Elec       q    Type
REMARK                         _______ _______ _______ _____ _____    ______ ____
ROOT
ATOM      1  C   UNL     1      33.500 -23.623 -18.281  0.00  0.00    +0.139 C 
ENDROOT
BRANCH   1   3
ATOM      2 BR   UNL     1      37.344 -20.367 -20.035  0.00  0.00    -0.046 Br
ATOM      3  C   UNL     1      33.853 -22.326 -18.957  0.00  0.00    +0.000 C 
ATOM      4  C   UNL     1      35.188 -21.997 -19.150  0.00  0.00    +0.007 C 
ATOM      5  C   UNL     1      32.840 -21.477 -19.381  0.00  0.00    +0.001 C 
ATOM      6  C   UNL     1      35.515 -20.796 -19.779  0.00  0.00    +0.071 C 
ATOM      7  C   UNL     1      33.167 -20.276 -20.010  0.00  0.00    +0.040 C 
ATOM      8  C   UNL     1      34.505 -19.936 -20.209  0.00  0.00    +0.179 C 
BRANCH   8   9
ATOM      9  O   UNL     1      34.792 -18.754 -20.826  0.00  0.00    -0.349 OA
BRANCH   9  10
ATOM     10  S   UNL     1      34.928 -18.595 -22.452  0.00  0.00    +0.086 S 
ATOM     11  O   UNL     1      34.138 -17.449 -22.867  0.00  0.00    -0.046 OA
ATOM     12  O   UNL     1      34.722 -19.897 -23.057  0.00  0.00    -0.046 OA
BRANCH  10  13
ATOM     13  N   UNL     1      36.580 -18.183 -22.666  0.00  0.00    -0.194 NA
ATOM     14  H   UNL     1      37.065 -18.952 -23.131  0.00  0.00    +0.145 HD
ATOM     15  H   UNL     1      37.008 -18.010 -21.758  0.00  0.00    +0.145 HD
ENDBRANCH  10  13
ENDBRANCH   9  10
ENDBRANCH   8   9
ENDBRANCH   1   3
BRANCH   1  16
ATOM     16  N   UNL     1      33.616 -23.508 -16.830  0.00  0.00    -0.227 N 
BRANCH  16  17
ATOM     17  C   UNL     1      34.844 -23.750 -16.181  0.00  0.00    +0.066 C 
ATOM     18  C   UNL     1      35.831 -22.763 -16.163  0.00  0.00    +0.017 C 
ATOM     19  C   UNL     1      35.072 -24.976 -15.556  0.00  0.00    +0.017 C 
ATOM     20  C   UNL     1      37.045 -23.004 -15.522  0.00  0.00    +0.012 C 
ATOM     21  C   UNL     1      36.288 -25.216 -14.914  0.00  0.00    +0.012 C 
ATOM     22  C   UNL     1      37.274 -24.230 -14.897  0.00  0.00    +0.069 C 
BRANCH  22  24
ATOM     23  N   UNL     1      39.531 -24.675 -13.705  0.00  0.00    -0.191 NA
ATOM     24  C   UNL     1      38.518 -24.475 -14.239  0.00  0.00    +0.100 C 
ENDBRANCH  22  24
ENDBRANCH  16  17
BRANCH  16  25
ATOM     25  N   UNL     1      32.437 -23.152 -16.181  0.00  0.00    -0.174 N 
ATOM     26  N   UNL     1      31.048 -22.541 -14.635  0.00  0.00    -0.127 NA
ATOM     27  N   UNL     1      30.348 -22.710 -15.812  0.00  0.00    -0.127 NA
ATOM     28  C   UNL     1      32.308 -22.814 -14.882  0.00  0.00    +0.210 C 
ATOM     29  C   UNL     1      31.209 -23.079 -16.734  0.00  0.00    +0.210 C 
ENDBRANCH  16  25
ENDBRANCH   1  16
TORSDOF 8
ENDMDL
MODEL 6
REMARK VINA RESULT:      -8.6     10.486     12.239
REMARK  Name = 4369414
REMARK  8 active torsions:
REMARK  status: ('A' for Active; 'I' for Inactive)
REMARK    1  A    between atoms: C_1  and  C_3
REMARK    2  A    between atoms: C_1  and  N_16
REMARK    3  A    between atoms: C_8  and  O_9
REMARK    4  A    between atoms: O_9  and  S_10
REMARK    5  A    between atoms: S_10  and  N_13
REMARK    6  A    between atoms: N_16  and  C_17
REMARK    7  A    between atoms: N_16  and  N_25
REMARK    8  A    between atoms: C_22  and  C_24
REMARK                            x       y       z     vdW  Elec       q    Type
REMARK                         _______ _______ _______ _____ _____    ______ ____
ROOT
ATOM      1  C   UNL     1      33.519 -24.554 -13.928  0.00  0.00    +0.139 C 
ENDROOT
BRANCH   1   3
ATOM      2 BR   UNL     1      38.376 -24.094 -11.773  0.00  0.00    -0.046 Br
ATOM      3  C   UNL     1      34.970 -24.947 -13.976  0.00  0.00    +0.000 C 
ATOM      4  C   UNL     1      35.848 -24.436 -13.031  0.00  0.00    +0.007 C 
ATOM      5  C   UNL     1      35.410 -25.819 -14.962  0.00  0.00    +0.001 C 
ATOM      6  C   UNL     1      37.194 -24.802 -13.074  0.00  0.00    +0.071 C 
ATOM      7  C   UNL     1      36.756 -26.185 -15.005  0.00  0.00    +0.040 C 
ATOM      8  C   UNL     1      37.647 -25.677 -14.061  0.00  0.00    +0.179 C 
BRANCH   8   9
ATOM      9  O   UNL     1      38.955 -26.054 -14.131  0.00  0.00    -0.349 OA
BRANCH   9  10
ATOM     10  S   UNL     1      40.092 -25.216 -14.963  0.00  0.00    +0.086 S 
ATOM     11  O   UNL     1      40.629 -26.080 -16.000  0.00  0.00    -0.046 OA
ATOM     12  O   UNL     1      40.972 -24.568 -14.008  0.00  0.00    -0.046 OA
BRANCH  10  13
ATOM     13  N   UNL     1      39.181 -23.987 -15.740  0.00  0.00    -0.194 NA
ATOM     14  H   UNL     1      38.968 -23.247 -15.070  0.00  0.00    +0.145 HD
ATOM     15  H   UNL     1      38.312 -24.382 -16.098  0.00  0.00    +0.145 HD
ENDBRANCH  10  13
ENDBRANCH   9  10
ENDBRANCH   8   9
ENDBRANCH   1   3
BRANCH   1  16
ATOM     16  N   UNL     1      33.188 -23.632 -15.011  0.00  0.00    -0.227 N 
BRANCH  16  17
ATOM     17  C   UNL     1      31.847 -23.299 -15.294  0.00  0.00    +0.066 C 
ATOM     18  C   UNL     1      31.451 -23.053 -16.609  0.00  0.00    +0.017 C 
ATOM     19  C   UNL     1      30.916 -23.216 -14.258  0.00  0.00    +0.017 C 
ATOM     20  C   UNL     1      30.126 -22.722 -16.887  0.00  0.00    +0.012 C 
ATOM     21  C   UNL     1      29.590 -22.885 -14.537  0.00  0.00    +0.012 C 
ATOM     22  C   UNL     1      29.195 -22.638 -15.852  0.00  0.00    +0.069 C 
BRANCH  22  24
ATOM     23  N   UNL     1      26.732 -22.026 -16.372  0.00  0.00    -0.191 NA
ATOM     24  C   UNL     1      27.837 -22.300 -16.138  0.00  0.00    +0.100 C 
ENDBRANCH  22  24
ENDBRANCH  16  17
BRANCH  16  25
ATOM     25  N   UNL     1      34.287 -23.138 -15.707  0.00  0.00    -0.174 N 
ATOM     26  N   UNL     1      35.657 -22.673 -17.320  0.00  0.00    -0.127 NA
ATOM     27  N   UNL     1      36.161 -22.143 -16.149  0.00  0.00    -0.127 NA
ATOM     28  C   UNL     1      34.524 -23.270 -17.028  0.00  0.00    +0.210 C 
ATOM     29  C   UNL     1      35.315 -22.437 -15.187  0.00  0.00    +0.210 C 
ENDBRANCH  16  25
ENDBRANCH   1  16
TORSDOF 8
ENDMDL
MODEL 7
REMARK VINA RESULT:      -8.6      5.080      8.276
REMARK  Name = 4369414
REMARK  8 active torsions:
REMARK  status: ('A' for Active; 'I' for Inactive)
REMARK    1  A    between atoms: C_1  and  C_3
REMARK    2  A    between atoms: C_1  and  N_16
REMARK    3  A    between atoms: C_8  and  O_9
REMARK    4  A    between atoms: O_9  and  S_10
REMARK    5  A    between atoms: S_10  and  N_13
REMARK    6  A    between atoms: N_16  and  C_17
REMARK    7  A    between atoms: N_16  and  N_25
REMARK    8  A    between atoms: C_22  and  C_24
REMARK                            x       y       z     vdW  Elec       q    Type
REMARK                         _______ _______ _______ _____ _____    ______ ____
ROOT
ATOM      1  C   UNL     1      33.768 -23.673 -18.251  0.00  0.00    +0.139 C 
ENDROOT
BRANCH   1   3
ATOM      2 BR   UNL     1      32.221 -19.214 -20.737  0.00  0.00    -0.046 Br
ATOM      3  C   UNL     1      34.172 -22.384 -18.911  0.00  0.00    +0.000 C 
ATOM      4  C   UNL     1      33.195 -21.544 -19.429  0.00  0.00    +0.007 C 
ATOM      5  C   UNL     1      35.517 -22.048 -18.991  0.00  0.00    +0.001 C 
ATOM      6  C   UNL     1      33.571 -20.347 -20.039  0.00  0.00    +0.071 C 
ATOM      7  C   UNL     1      35.892 -20.851 -19.601  0.00  0.00    +0.040 C 
ATOM      8  C   UNL     1      34.919 -20.001 -20.124  0.00  0.00    +0.179 C 
BRANCH   8   9
ATOM      9  O   UNL     1      35.319 -18.839 -20.715  0.00  0.00    -0.349 OA
BRANCH   9  10
ATOM     10  S   UNL     1      35.701 -18.719 -22.305  0.00  0.00    +0.086 S 
ATOM     11  O   UNL     1      34.952 -19.729 -23.032  0.00  0.00    -0.046 OA
ATOM     12  O   UNL     1      37.144 -18.636 -22.423  0.00  0.00    -0.046 OA
BRANCH  10  13
ATOM     13  N   UNL     1      35.060 -17.189 -22.746  0.00  0.00    -0.194 NA
ATOM     14  H   UNL     1      35.013 -16.590 -21.922  0.00  0.00    +0.145 HD
ATOM     15  H   UNL     1      34.125 -17.311 -23.133  0.00  0.00    +0.145 HD
ENDBRANCH  10  13
ENDBRANCH   9  10
ENDBRANCH   8   9
ENDBRANCH   1   3
BRANCH   1  16
ATOM     16  N   UNL     1      33.811 -23.557 -16.797  0.00  0.00    -0.227 N 
BRANCH  16  17
ATOM     17  C   UNL     1      35.004 -23.802 -16.086  0.00  0.00    +0.066 C 
ATOM     18  C   UNL     1      35.250 -25.067 -15.552  0.00  0.00    +0.017 C 
ATOM     19  C   UNL     1      35.937 -22.779 -15.916  0.00  0.00    +0.017 C 
ATOM     20  C   UNL     1      36.429 -25.309 -14.847  0.00  0.00    +0.012 C 
ATOM     21  C   UNL     1      37.117 -23.021 -15.212  0.00  0.00    +0.012 C 
ATOM     22  C   UNL     1      37.363 -24.286 -14.677  0.00  0.00    +0.069 C 
BRANCH  22  24
ATOM     23  N   UNL     1      39.554 -24.739 -13.371  0.00  0.00    -0.191 NA
ATOM     24  C   UNL     1      38.571 -24.535 -13.957  0.00  0.00    +0.100 C 
ENDBRANCH  22  24
ENDBRANCH  16  17
BRANCH  16  25
ATOM     25  N   UNL     1      32.603 -23.194 -16.209  0.00  0.00    -0.174 N 
ATOM     26  N   UNL     1      30.510 -22.693 -15.955  0.00  0.00    -0.127 NA
ATOM     27  N   UNL     1      31.129 -22.625 -14.724  0.00  0.00    -0.127 NA
ATOM     28  C   UNL     1      31.420 -23.037 -16.837  0.00  0.00    +0.210 C 
ATOM     29  C   UNL     1      32.395 -22.932 -14.902  0.00  0.00    +0.210 C 
ENDBRANCH  16  25
ENDBRANCH   1  16
TORSDOF 8
ENDMDL
MODEL 8
REMARK VINA RESULT:      -8.6      5.462     10.901
REMARK  Name = 4369414
REMARK  8 active torsions:
REMARK  status: ('A' for Active; 'I' for Inactive)
REMARK    1  A    between atoms: C_1  and  C_3
REMARK    2  A    between atoms: C_1  and  N_16
REMARK    3  A    between atoms: C_8  and  O_9
REMARK    4  A    between atoms: O_9  and  S_10
REMARK    5  A    between atoms: S_10  and  N_13
REMARK    6  A    between atoms: N_16  and  C_17
REMARK    7  A    between atoms: N_16  and  N_25
REMARK    8  A    between atoms: C_22  and  C_24
REMARK                            x       y       z     vdW  Elec       q    Type
REMARK                         _______ _______ _______ _____ _____    ______ ____
ROOT
ATOM      1  C   UNL     1      31.355  -9.483 -23.199  0.00  0.00    +0.139 C 
ENDROOT
BRANCH   1   3
ATOM      2 BR   UNL     1      32.380 -14.105 -20.741  0.00  0.00    -0.046 Br
ATOM      3  C   UNL     1      32.195 -10.730 -23.140  0.00  0.00    +0.000 C 
ATOM      4  C   UNL     1      31.952 -11.673 -22.151  0.00  0.00    +0.007 C 
ATOM      5  C   UNL     1      33.200 -10.922 -24.079  0.00  0.00    +0.001 C 
ATOM      6  C   UNL     1      32.730 -12.830 -22.098  0.00  0.00    +0.071 C 
ATOM      7  C   UNL     1      33.978 -12.079 -24.026  0.00  0.00    +0.040 C 
ATOM      8  C   UNL     1      33.742 -13.032 -23.036  0.00  0.00    +0.179 C 
BRANCH   8   9
ATOM      9  O   UNL     1      34.520 -14.151 -23.012  0.00  0.00    -0.349 OA
BRANCH   9  10
ATOM     10  S   UNL     1      34.076 -15.575 -23.693  0.00  0.00    +0.086 S 
ATOM     11  O   UNL     1      33.293 -15.288 -24.883  0.00  0.00    -0.046 OA
ATOM     12  O   UNL     1      33.552 -16.437 -22.650  0.00  0.00    -0.046 OA
BRANCH  10  13
ATOM     13  N   UNL     1      35.569 -16.243 -24.211  0.00  0.00    -0.194 NA
ATOM     14  H   UNL     1      36.316 -15.929 -23.590  0.00  0.00    +0.145 HD
ATOM     15  H   UNL     1      35.767 -15.937 -25.163  0.00  0.00    +0.145 HD
ENDBRANCH  10  13
ENDBRANCH   9  10
ENDBRANCH   8   9
ENDBRANCH   1   3
BRANCH   1  16
ATOM     16  N   UNL     1      32.124  -8.311 -22.792  0.00  0.00    -0.227 N 
BRANCH  16  17
ATOM     17  C   UNL     1      32.702  -7.455 -23.752  0.00  0.00    +0.066 C 
ATOM     18  C   UNL     1      34.063  -7.552 -24.044  0.00  0.00    +0.017 C 
ATOM     19  C   UNL     1      31.912  -6.512 -24.410  0.00  0.00    +0.017 C 
ATOM     20  C   UNL     1      34.634  -6.704 -24.992  0.00  0.00    +0.012 C 
ATOM     21  C   UNL     1      32.484  -5.664 -25.359  0.00  0.00    +0.012 C 
ATOM     22  C   UNL     1      33.845  -5.760 -25.650  0.00  0.00    +0.069 C 
BRANCH  22  24
ATOM     23  N   UNL     1      34.909  -4.189 -27.414  0.00  0.00    -0.191 NA
ATOM     24  C   UNL     1      34.431  -4.893 -26.622  0.00  0.00    +0.100 C 
ENDBRANCH  22  24
ENDBRANCH  16  17
BRANCH  16  25
ATOM     25  N   UNL     1      32.224  -8.134 -21.415  0.00  0.00    -0.174 N 
ATOM     26  N   UNL     1      32.628  -7.239 -19.483  0.00  0.00    -0.127 NA
ATOM     27  N   UNL     1      32.115  -8.504 -19.282  0.00  0.00    -0.127 NA
ATOM     28  C   UNL     1      32.685  -7.037 -20.780  0.00  0.00    +0.210 C 
ATOM     29  C   UNL     1      31.878  -9.027 -20.465  0.00  0.00    +0.210 C 
ENDBRANCH  16  25
ENDBRANCH   1  16
TORSDOF 8
ENDMDL
MODEL 9
REMARK VINA RESULT:      -8.5      4.804      9.839
REMARK  Name = 4369414
REMARK  8 active torsions:
REMARK  status: ('A' for Active; 'I' for Inactive)
REMARK    1  A    between atoms: C_1  and  C_3
REMARK    2  A    between atoms: C_1  and  N_16
REMARK    3  A    between atoms: C_8  and  O_9
REMARK    4  A    between atoms: O_9  and  S_10
REMARK    5  A    between atoms: S_10  and  N_13
REMARK    6  A    between atoms: N_16  and  C_17
REMARK    7  A    between atoms: N_16  and  N_25
REMARK    8  A    between atoms: C_22  and  C_24
REMARK                            x       y       z     vdW  Elec       q    Type
REMARK                         _______ _______ _______ _____ _____    ______ ____
ROOT
ATOM      1  C   UNL     1      31.319 -11.591 -22.655  0.00  0.00    +0.139 C 
ENDROOT
BRANCH   1   3
ATOM      2 BR   UNL     1      34.207 -15.407 -20.299  0.00  0.00    -0.046 Br
ATOM      3  C   UNL     1      32.375 -12.652 -22.797  0.00  0.00    +0.000 C 
ATOM      4  C   UNL     1      32.743 -13.404 -21.690  0.00  0.00    +0.007 C 
ATOM      5  C   UNL     1      32.967 -12.867 -24.035  0.00  0.00    +0.001 C 
ATOM      6  C   UNL     1      33.721 -14.390 -21.823  0.00  0.00    +0.071 C 
ATOM      7  C   UNL     1      33.946 -13.852 -24.167  0.00  0.00    +0.040 C 
ATOM      8  C   UNL     1      34.322 -14.613 -23.061  0.00  0.00    +0.179 C 
BRANCH   8   9
ATOM      9  O   UNL     1      35.282 -15.568 -23.224  0.00  0.00    -0.349 OA
BRANCH   9  10
ATOM     10  S   UNL     1      34.960 -17.094 -23.731  0.00  0.00    +0.086 S 
ATOM     11  O   UNL     1      34.997 -17.110 -25.183  0.00  0.00    -0.046 OA
ATOM     12  O   UNL     1      33.798 -17.579 -23.011  0.00  0.00    -0.046 OA
BRANCH  10  13
ATOM     13  N   UNL     1      36.318 -17.984 -23.174  0.00  0.00    -0.194 NA
ATOM     14  H   UNL     1      36.649 -18.600 -23.917  0.00  0.00    +0.145 HD
ATOM     15  H   UNL     1      36.050 -18.541 -22.363  0.00  0.00    +0.145 HD
ENDBRANCH  10  13
ENDBRANCH   9  10
ENDBRANCH   8   9
ENDBRANCH   1   3
BRANCH   1  16
ATOM     16  N   UNL     1      31.872 -10.373 -22.070  0.00  0.00    -0.227 N 
BRANCH  16  17
ATOM     17  C   UNL     1      32.449  -9.376 -22.884  0.00  0.00    +0.066 C 
ATOM     18  C   UNL     1      33.787  -9.475 -23.266  0.00  0.00    +0.017 C 
ATOM     19  C   UNL     1      31.681  -8.291 -23.306  0.00  0.00    +0.017 C 
ATOM     20  C   UNL     1      34.357  -8.488 -24.070  0.00  0.00    +0.012 C 
ATOM     21  C   UNL     1      32.252  -7.303 -24.111  0.00  0.00    +0.012 C 
ATOM     22  C   UNL     1      33.590  -7.402 -24.492  0.00  0.00    +0.069 C 
BRANCH  22  24
ATOM     23  N   UNL     1      34.648  -5.571 -25.988  0.00  0.00    -0.191 NA
ATOM     24  C   UNL     1      34.174  -6.392 -25.316  0.00  0.00    +0.100 C 
ENDBRANCH  22  24
ENDBRANCH  16  17
BRANCH  16  25
ATOM     25  N   UNL     1      31.776 -10.301 -20.684  0.00  0.00    -0.174 N 
ATOM     26  N   UNL     1      31.228 -10.751 -18.636  0.00  0.00    -0.127 NA
ATOM     27  N   UNL     1      32.042  -9.637 -18.638  0.00  0.00    -0.127 NA
ATOM     28  C   UNL     1      31.081 -11.135 -19.884  0.00  0.00    +0.210 C 
ATOM     29  C   UNL     1      32.361  -9.382 -19.887  0.00  0.00    +0.210 C 
ENDBRANCH  16  25
ENDBRANCH   1  16
TORSDOF 8
ENDMDL
