MODEL 1
REMARK VINA RESULT:      -8.1      0.000      0.000
REMARK  Name = 5289243
REMARK  5 active torsions:
REMARK  status: ('A' for Active; 'I' for Inactive)
REMARK    1  A    between atoms: C_2  and  O_11
REMARK    2  A    between atoms: C_5  and  C_17
REMARK    3  A    between atoms: CA_10  and  C_14
REMARK    4  A    between atoms: C_14  and  O_15
REMARK    5  A    between atoms: C_17  and  O_19
REMARK                            x       y       z     vdW  Elec       q    Type
REMARK                         _______ _______ _______ _____ _____    ______ ____
ROOT
ATOM      1  N   UNL     1      36.592 -23.403 -13.138  0.00  0.00    -0.401 NA
ATOM      2  C   UNL     1      37.388 -22.716 -15.345  0.00  0.00    +0.163 C 
ATOM      3  C   UNL     1      35.002 -23.423 -14.967  0.00  0.00    +0.093 C 
ATOM      4  C   UNL     1      36.274 -23.180 -14.437  0.00  0.00    +0.121 C 
ATOM      5  C   UNL     1      34.022 -23.926 -14.111  0.00  0.00    -0.005 C 
ATOM      6  C   UNL     1      36.889 -21.937 -16.570  0.00  0.00    +0.062 C 
ATOM      7  C   UNL     1      34.722 -23.163 -16.379  0.00  0.00    -0.020 C 
ATOM      8  C   UNL     1      35.592 -22.463 -17.120  0.00  0.00    -0.027 C 
ATOM      9  C   UNL     1      34.324 -24.157 -12.774  0.00  0.00    +0.033 C 
ATOM     10  CA  UNL     1      35.610 -23.881 -12.341  0.00  0.00    +0.205 C 
ENDROOT
BRANCH   2  11
ATOM     11  O   UNL     1      38.127 -23.851 -15.799  0.00  0.00    -0.377 OA
ATOM     12  H   UNL     1      39.076 -23.657 -15.757  0.00  0.00    +0.211 HD
ENDBRANCH   2  11
BRANCH  10  14
ATOM     13  OXT UNL     1      35.426 -24.884 -10.177  0.00  0.00    -0.242 OA
ATOM     14  C   UNL     1      35.975 -24.092 -10.952  0.00  0.00    +0.368 C 
BRANCH  14  15
ATOM     15  O   UNL     1      37.019 -23.310 -10.561  0.00  0.00    -0.475 OA
ATOM     16  H   UNL     1      37.325 -22.623 -11.121  0.00  0.00    +0.295 HD
ENDBRANCH  14  15
ENDBRANCH  10  14
BRANCH   5  17
ATOM     17  C   UNL     1      32.636 -24.239 -14.578  0.00  0.00    +0.130 C 
ATOM     18  C   UNL     1      31.647 -23.111 -14.278  0.00  0.00    +0.036 C 
BRANCH  17  19
ATOM     19  O   UNL     1      32.175 -25.441 -13.953  0.00  0.00    -0.380 OA
ATOM     20  H   UNL     1      31.385 -25.248 -13.424  0.00  0.00    +0.211 HD
ENDBRANCH  17  19
ENDBRANCH   5  17
TORSDOF 5
ENDMDL
MODEL 2
REMARK VINA RESULT:      -7.7      3.157      6.284
REMARK  Name = 5289243
REMARK  5 active torsions:
REMARK  status: ('A' for Active; 'I' for Inactive)
REMARK    1  A    between atoms: C_2  and  O_11
REMARK    2  A    between atoms: C_5  and  C_17
REMARK    3  A    between atoms: CA_10  and  C_14
REMARK    4  A    between atoms: C_14  and  O_15
REMARK    5  A    between atoms: C_17  and  O_19
REMARK                            x       y       z     vdW  Elec       q    Type
REMARK                         _______ _______ _______ _____ _____    ______ ____
ROOT
ATOM      1  N   UNL     1      32.069 -22.777 -17.621  0.00  0.00    -0.401 NA
ATOM      2  C   UNL     1      30.119 -23.070 -16.175  0.00  0.00    +0.163 C 
ATOM      3  C   UNL     1      32.457 -23.450 -15.325  0.00  0.00    +0.093 C 
ATOM      4  C   UNL     1      31.615 -23.077 -16.379  0.00  0.00    +0.121 C 
ATOM      5  C   UNL     1      33.827 -23.520 -15.575  0.00  0.00    -0.005 C 
ATOM      6  C   UNL     1      29.704 -22.823 -14.718  0.00  0.00    +0.062 C 
ATOM      7  C   UNL     1      31.905 -23.763 -14.007  0.00  0.00    -0.020 C 
ATOM      8  C   UNL     1      30.631 -23.461 -13.721  0.00  0.00    -0.027 C 
ATOM      9  C   UNL     1      34.315 -23.212 -16.840  0.00  0.00    +0.033 C 
ATOM     10  CA  UNL     1      33.405 -22.848 -17.817  0.00  0.00    +0.205 C 
ENDROOT
BRANCH   2  11
ATOM     11  O   UNL     1      29.583 -24.326 -16.594  0.00  0.00    -0.377 OA
ATOM     12  H   UNL     1      28.681 -24.423 -16.250  0.00  0.00    +0.211 HD
ENDBRANCH   2  11
BRANCH  10  14
ATOM     13  OXT UNL     1      35.003 -22.690 -19.590  0.00  0.00    -0.242 OA
ATOM     14  C   UNL     1      33.862 -22.503 -19.151  0.00  0.00    +0.368 C 
BRANCH  14  15
ATOM     15  O   UNL     1      32.884 -21.933 -19.909  0.00  0.00    -0.475 OA
ATOM     16  H   UNL     1      32.289 -22.474 -20.391  0.00  0.00    +0.295 HD
ENDBRANCH  14  15
ENDBRANCH  10  14
BRANCH   5  17
ATOM     17  C   UNL     1      34.813 -23.926 -14.527  0.00  0.00    +0.130 C 
ATOM     18  C   UNL     1      36.136 -23.166 -14.640  0.00  0.00    +0.036 C 
BRANCH  17  19
ATOM     19  O   UNL     1      35.073 -25.330 -14.624  0.00  0.00    -0.380 OA
ATOM     20  H   UNL     1      34.237 -25.806 -14.751  0.00  0.00    +0.211 HD
ENDBRANCH  17  19
ENDBRANCH   5  17
TORSDOF 5
ENDMDL
MODEL 3
REMARK VINA RESULT:      -7.7      2.469      4.529
REMARK  Name = 5289243
REMARK  5 active torsions:
REMARK  status: ('A' for Active; 'I' for Inactive)
REMARK    1  A    between atoms: C_2  and  O_11
REMARK    2  A    between atoms: C_5  and  C_17
REMARK    3  A    between atoms: CA_10  and  C_14
REMARK    4  A    between atoms: C_14  and  O_15
REMARK    5  A    between atoms: C_17  and  O_19
REMARK                            x       y       z     vdW  Elec       q    Type
REMARK                         _______ _______ _______ _____ _____    ______ ____
ROOT
ATOM      1  N   UNL     1      35.287 -23.378 -16.680  0.00  0.00    -0.401 NA
ATOM      2  C   UNL     1      37.097 -23.996 -15.156  0.00  0.00    +0.163 C 
ATOM      3  C   UNL     1      34.688 -24.045 -14.428  0.00  0.00    +0.093 C 
ATOM      4  C   UNL     1      35.625 -23.819 -15.443  0.00  0.00    +0.121 C 
ATOM      5  C   UNL     1      33.346 -23.795 -14.710  0.00  0.00    -0.005 C 
ATOM      6  C   UNL     1      37.382 -25.011 -14.041  0.00  0.00    +0.062 C 
ATOM      7  C   UNL     1      35.116 -24.521 -13.113  0.00  0.00    -0.020 C 
ATOM      8  C   UNL     1      36.363 -24.980 -12.936  0.00  0.00    -0.027 C 
ATOM      9  C   UNL     1      32.976 -23.347 -15.973  0.00  0.00    +0.033 C 
ATOM     10  CA  UNL     1      33.974 -23.158 -16.913  0.00  0.00    +0.205 C 
ENDROOT
BRANCH   2  11
ATOM     11  O   UNL     1      37.656 -22.737 -14.778  0.00  0.00    -0.377 OA
ATOM     12  H   UNL     1      37.363 -22.510 -13.881  0.00  0.00    +0.211 HD
ENDBRANCH   2  11
BRANCH  10  14
ATOM     13  OXT UNL     1      32.551 -22.239 -18.603  0.00  0.00    -0.242 OA
ATOM     14  C   UNL     1      33.642 -22.704 -18.252  0.00  0.00    +0.368 C 
BRANCH  14  15
ATOM     15  O   UNL     1      34.680 -22.840 -19.123  0.00  0.00    -0.475 OA
ATOM     16  H   UNL     1      34.751 -22.266 -19.862  0.00  0.00    +0.295 HD
ENDBRANCH  14  15
ENDBRANCH  10  14
BRANCH   5  17
ATOM     17  C   UNL     1      32.265 -23.984 -13.693  0.00  0.00    +0.130 C 
ATOM     18  C   UNL     1      30.891 -24.198 -14.331  0.00  0.00    +0.036 C 
BRANCH  17  19
ATOM     19  O   UNL     1      32.206 -22.844 -12.831  0.00  0.00    -0.380 OA
ATOM     20  H   UNL     1      33.104 -22.510 -12.673  0.00  0.00    +0.211 HD
ENDBRANCH  17  19
ENDBRANCH   5  17
TORSDOF 5
ENDMDL
MODEL 4
REMARK VINA RESULT:      -7.6      8.688     11.116
REMARK  Name = 5289243
REMARK  5 active torsions:
REMARK  status: ('A' for Active; 'I' for Inactive)
REMARK    1  A    between atoms: C_2  and  O_11
REMARK    2  A    between atoms: C_5  and  C_17
REMARK    3  A    between atoms: CA_10  and  C_14
REMARK    4  A    between atoms: C_14  and  O_15
REMARK    5  A    between atoms: C_17  and  O_19
REMARK                            x       y       z     vdW  Elec       q    Type
REMARK                         _______ _______ _______ _____ _____    ______ ____
ROOT
ATOM      1  N   UNL     1      35.309 -17.245 -20.693  0.00  0.00    -0.401 NA
ATOM      2  C   UNL     1      34.173 -15.098 -20.410  0.00  0.00    +0.163 C 
ATOM      3  C   UNL     1      34.201 -16.292 -22.626  0.00  0.00    +0.093 C 
ATOM      4  C   UNL     1      34.560 -16.275 -21.274  0.00  0.00    +0.121 C 
ATOM      5  C   UNL     1      34.644 -17.358 -23.407  0.00  0.00    -0.005 C 
ATOM      6  C   UNL     1      32.903 -14.382 -20.891  0.00  0.00    +0.062 C 
ATOM      7  C   UNL     1      33.391 -15.214 -23.194  0.00  0.00    -0.020 C 
ATOM      8  C   UNL     1      32.779 -14.335 -22.388  0.00  0.00    -0.027 C 
ATOM      9  C   UNL     1      35.409 -18.367 -22.832  0.00  0.00    +0.033 C 
ATOM     10  CA  UNL     1      35.709 -18.265 -21.484  0.00  0.00    +0.205 C 
ENDROOT
BRANCH   2  11
ATOM     11  O   UNL     1      35.247 -14.155 -20.394  0.00  0.00    -0.377 OA
ATOM     12  H   UNL     1      35.039 -13.440 -19.773  0.00  0.00    +0.211 HD
ENDBRANCH   2  11
BRANCH  10  14
ATOM     13  OXT UNL     1      36.048 -20.160 -20.063  0.00  0.00    -0.242 OA
ATOM     14  C   UNL     1      36.493 -19.297 -20.830  0.00  0.00    +0.368 C 
BRANCH  14  15
ATOM     15  O   UNL     1      37.816 -19.230 -21.147  0.00  0.00    -0.475 OA
ATOM     16  H   UNL     1      38.255 -18.401 -21.153  0.00  0.00    +0.295 HD
ENDBRANCH  14  15
ENDBRANCH  10  14
BRANCH   5  17
ATOM     17  C   UNL     1      34.334 -17.465 -24.867  0.00  0.00    +0.130 C 
ATOM     18  C   UNL     1      34.247 -18.916 -25.343  0.00  0.00    +0.036 C 
BRANCH  17  19
ATOM     19  O   UNL     1      35.337 -16.784 -25.626  0.00  0.00    -0.380 OA
ATOM     20  H   UNL     1      35.293 -15.833 -25.441  0.00  0.00    +0.211 HD
ENDBRANCH  17  19
ENDBRANCH   5  17
TORSDOF 5
ENDMDL
MODEL 5
REMARK VINA RESULT:      -7.6      1.424      3.836
REMARK  Name = 5289243
REMARK  5 active torsions:
REMARK  status: ('A' for Active; 'I' for Inactive)
REMARK    1  A    between atoms: C_2  and  O_11
REMARK    2  A    between atoms: C_5  and  C_17
REMARK    3  A    between atoms: CA_10  and  C_14
REMARK    4  A    between atoms: C_14  and  O_15
REMARK    5  A    between atoms: C_17  and  O_19
REMARK                            x       y       z     vdW  Elec       q    Type
REMARK                         _______ _______ _______ _____ _____    ______ ____
ROOT
ATOM      1  N   UNL     1      34.121 -24.091 -12.760  0.00  0.00    -0.401 NA
ATOM      2  C   UNL     1      32.221 -23.669 -14.240  0.00  0.00    +0.163 C 
ATOM      3  C   UNL     1      34.594 -23.472 -15.055  0.00  0.00    +0.093 C 
ATOM      4  C   UNL     1      33.710 -23.771 -14.012  0.00  0.00    +0.121 C 
ATOM      5  C   UNL     1      35.961 -23.502 -14.783  0.00  0.00    -0.005 C 
ATOM      6  C   UNL     1      31.812 -23.899 -15.701  0.00  0.00    +0.062 C 
ATOM      7  C   UNL     1      34.088 -23.133 -16.385  0.00  0.00    -0.020 C 
ATOM      8  C   UNL     1      32.799 -23.341 -16.688  0.00  0.00    -0.027 C 
ATOM      9  C   UNL     1      36.405 -23.833 -13.507  0.00  0.00    +0.033 C 
ATOM     10  CA  UNL     1      35.455 -24.118 -12.543  0.00  0.00    +0.205 C 
ENDROOT
BRANCH   2  11
ATOM     11  O   UNL     1      31.773 -22.372 -13.842  0.00  0.00    -0.377 OA
ATOM     12  H   UNL     1      32.138 -21.705 -14.444  0.00  0.00    +0.211 HD
ENDBRANCH   2  11
BRANCH  10  14
ATOM     13  OXT UNL     1      35.165 -25.080 -10.371  0.00  0.00    -0.242 OA
ATOM     14  C   UNL     1      35.864 -24.483 -11.198  0.00  0.00    +0.368 C 
BRANCH  14  15
ATOM     15  O   UNL     1      37.138 -24.093 -10.915  0.00  0.00    -0.475 OA
ATOM     16  H   UNL     1      37.606 -23.546 -11.517  0.00  0.00    +0.295 HD
ENDBRANCH  14  15
ENDBRANCH  10  14
BRANCH   5  17
ATOM     17  C   UNL     1      36.991 -23.180 -15.819  0.00  0.00    +0.130 C 
ATOM     18  C   UNL     1      38.348 -23.818 -15.513  0.00  0.00    +0.036 C 
BRANCH  17  19
ATOM     19  O   UNL     1      37.154 -21.763 -15.917  0.00  0.00    -0.380 OA
ATOM     20  H   UNL     1      37.382 -21.525 -16.829  0.00  0.00    +0.211 HD
ENDBRANCH  17  19
ENDBRANCH   5  17
TORSDOF 5
ENDMDL
MODEL 6
REMARK VINA RESULT:      -7.6     11.508     13.459
REMARK  Name = 5289243
REMARK  5 active torsions:
REMARK  status: ('A' for Active; 'I' for Inactive)
REMARK    1  A    between atoms: C_2  and  O_11
REMARK    2  A    between atoms: C_5  and  C_17
REMARK    3  A    between atoms: CA_10  and  C_14
REMARK    4  A    between atoms: C_14  and  O_15
REMARK    5  A    between atoms: C_17  and  O_19
REMARK                            x       y       z     vdW  Elec       q    Type
REMARK                         _______ _______ _______ _____ _____    ______ ____
ROOT
ATOM      1  N   UNL     1      32.175 -13.126 -23.147  0.00  0.00    -0.401 NA
ATOM      2  C   UNL     1      32.741 -13.886 -25.401  0.00  0.00    +0.163 C 
ATOM      3  C   UNL     1      33.671 -15.021 -23.357  0.00  0.00    +0.093 C 
ATOM      4  C   UNL     1      32.848 -14.029 -23.902  0.00  0.00    +0.121 C 
ATOM      5  C   UNL     1      33.805 -15.071 -21.970  0.00  0.00    -0.005 C 
ATOM      6  C   UNL     1      32.990 -15.198 -26.158  0.00  0.00    +0.062 C 
ATOM      7  C   UNL     1      34.372 -15.967 -24.226  0.00  0.00    -0.020 C 
ATOM      8  C   UNL     1      34.048 -16.057 -25.523  0.00  0.00    -0.027 C 
ATOM      9  C   UNL     1      33.120 -14.158 -21.176  0.00  0.00    +0.033 C 
ATOM     10  CA  UNL     1      32.325 -13.217 -21.807  0.00  0.00    +0.205 C 
ENDROOT
BRANCH   2  11
ATOM     11  O   UNL     1      33.690 -12.916 -25.849  0.00  0.00    -0.377 OA
ATOM     12  H   UNL     1      33.793 -12.985 -26.811  0.00  0.00    +0.211 HD
ENDBRANCH   2  11
BRANCH  10  14
ATOM     13  OXT UNL     1      31.800 -11.953 -19.844  0.00  0.00    -0.242 OA
ATOM     14  C   UNL     1      31.578 -12.248 -21.024  0.00  0.00    +0.368 C 
BRANCH  14  15
ATOM     15  O   UNL     1      30.570 -11.669 -21.734  0.00  0.00    -0.475 OA
ATOM     16  H   UNL     1      30.198 -12.115 -22.470  0.00  0.00    +0.295 HD
ENDBRANCH  14  15
ENDBRANCH  10  14
BRANCH   5  17
ATOM     17  C   UNL     1      34.674 -16.077 -21.285  0.00  0.00    +0.130 C 
ATOM     18  C   UNL     1      33.996 -17.442 -21.149  0.00  0.00    +0.036 C 
BRANCH  17  19
ATOM     19  O   UNL     1      35.032 -15.603 -19.984  0.00  0.00    -0.380 OA
ATOM     20  H   UNL     1      35.801 -16.096 -19.659  0.00  0.00    +0.211 HD
ENDBRANCH  17  19
ENDBRANCH   5  17
TORSDOF 5
ENDMDL
MODEL 7
REMARK VINA RESULT:      -7.5      2.804      5.199
REMARK  Name = 5289243
REMARK  5 active torsions:
REMARK  status: ('A' for Active; 'I' for Inactive)
REMARK    1  A    between atoms: C_2  and  O_11
REMARK    2  A    between atoms: C_5  and  C_17
REMARK    3  A    between atoms: CA_10  and  C_14
REMARK    4  A    between atoms: C_14  and  O_15
REMARK    5  A    between atoms: C_17  and  O_19
REMARK                            x       y       z     vdW  Elec       q    Type
REMARK                         _______ _______ _______ _____ _____    ______ ____
ROOT
ATOM      1  N   UNL     1      32.385 -23.437 -15.067  0.00  0.00    -0.401 NA
ATOM      2  C   UNL     1      34.547 -23.775 -13.977  0.00  0.00    +0.163 C 
ATOM      3  C   UNL     1      34.383 -23.097 -16.395  0.00  0.00    +0.093 C 
ATOM      4  C   UNL     1      33.734 -23.398 -15.193  0.00  0.00    +0.121 C 
ATOM      5  C   UNL     1      33.595 -22.831 -17.515  0.00  0.00    -0.005 C 
ATOM      6  C   UNL     1      35.956 -23.165 -13.974  0.00  0.00    +0.062 C 
ATOM      7  C   UNL     1      35.844 -23.072 -16.467  0.00  0.00    -0.020 C 
ATOM      8  C   UNL     1      36.573 -23.092 -15.343  0.00  0.00    -0.027 C 
ATOM      9  C   UNL     1      32.209 -22.860 -17.408  0.00  0.00    +0.033 C 
ATOM     10  CA  UNL     1      31.659 -23.163 -16.175  0.00  0.00    +0.205 C 
ENDROOT
BRANCH   2  11
ATOM     11  O   UNL     1      34.668 -25.197 -13.916  0.00  0.00    -0.377 OA
ATOM     12  H   UNL     1      34.516 -25.495 -13.005  0.00  0.00    +0.211 HD
ENDBRANCH   2  11
BRANCH  10  14
ATOM     13  OXT UNL     1      29.613 -23.787 -15.103  0.00  0.00    -0.242 OA
ATOM     14  C   UNL     1      30.217 -23.193 -16.004  0.00  0.00    +0.368 C 
BRANCH  14  15
ATOM     15  O   UNL     1      29.562 -22.481 -16.962  0.00  0.00    -0.475 OA
ATOM     16  H   UNL     1      29.943 -21.695 -17.305  0.00  0.00    +0.295 HD
ENDBRANCH  14  15
ENDBRANCH  10  14
BRANCH   5  17
ATOM     17  C   UNL     1      34.185 -22.517 -18.853  0.00  0.00    +0.130 C 
ATOM     18  C   UNL     1      33.487 -21.342 -19.541  0.00  0.00    +0.036 C 
BRANCH  17  19
ATOM     19  O   UNL     1      34.105 -23.667 -19.700  0.00  0.00    -0.380 OA
ATOM     20  H   UNL     1      33.335 -23.587 -20.284  0.00  0.00    +0.211 HD
ENDBRANCH  17  19
ENDBRANCH   5  17
TORSDOF 5
ENDMDL
MODEL 8
REMARK VINA RESULT:      -7.4     10.648     12.853
REMARK  Name = 5289243
REMARK  5 active torsions:
REMARK  status: ('A' for Active; 'I' for Inactive)
REMARK    1  A    between atoms: C_2  and  O_11
REMARK    2  A    between atoms: C_5  and  C_17
REMARK    3  A    between atoms: CA_10  and  C_14
REMARK    4  A    between atoms: C_14  and  O_15
REMARK    5  A    between atoms: C_17  and  O_19
REMARK                            x       y       z     vdW  Elec       q    Type
REMARK                         _______ _______ _______ _____ _____    ______ ____
ROOT
ATOM      1  N   UNL     1      33.485 -15.276 -21.603  0.00  0.00    -0.401 NA
ATOM      2  C   UNL     1      34.696 -17.392 -21.419  0.00  0.00    +0.163 C 
ATOM      3  C   UNL     1      34.213 -16.343 -23.654  0.00  0.00    +0.093 C 
ATOM      4  C   UNL     1      34.125 -16.275 -22.260  0.00  0.00    +0.121 C 
ATOM      5  C   UNL     1      33.605 -15.332 -24.397  0.00  0.00    -0.005 C 
ATOM      6  C   UNL     1      35.862 -18.128 -22.094  0.00  0.00    +0.062 C 
ATOM      7  C   UNL     1      34.917 -17.448 -24.304  0.00  0.00    -0.020 C 
ATOM      8  C   UNL     1      35.692 -18.270 -23.581  0.00  0.00    -0.027 C 
ATOM      9  C   UNL     1      32.947 -14.294 -23.746  0.00  0.00    +0.033 C 
ATOM     10  CA  UNL     1      32.918 -14.312 -22.362  0.00  0.00    +0.205 C 
ENDROOT
BRANCH   2  11
ATOM     11  O   UNL     1      33.665 -18.340 -21.135  0.00  0.00    -0.377 OA
ATOM     12  H   UNL     1      32.808 -17.974 -21.404  0.00  0.00    +0.211 HD
ENDBRANCH   2  11
BRANCH  10  14
ATOM     13  OXT UNL     1      32.315 -13.070 -20.408  0.00  0.00    -0.242 OA
ATOM     14  C   UNL     1      32.257 -13.246 -21.631  0.00  0.00    +0.368 C 
BRANCH  14  15
ATOM     15  O   UNL     1      31.538 -12.422 -22.443  0.00  0.00    -0.475 OA
ATOM     16  H   UNL     1      31.947 -12.024 -23.187  0.00  0.00    +0.295 HD
ENDBRANCH  14  15
ENDBRANCH  10  14
BRANCH   5  17
ATOM     17  C   UNL     1      33.621 -15.316 -25.893  0.00  0.00    +0.130 C 
ATOM     18  C   UNL     1      33.180 -13.969 -26.471  0.00  0.00    +0.036 C 
BRANCH  17  19
ATOM     19  O   UNL     1      32.763 -16.343 -26.398  0.00  0.00    -0.380 OA
ATOM     20  H   UNL     1      32.815 -16.361 -27.367  0.00  0.00    +0.211 HD
ENDBRANCH  17  19
ENDBRANCH   5  17
TORSDOF 5
ENDMDL
MODEL 9
REMARK VINA RESULT:      -7.3      2.277      4.641
REMARK  Name = 5289243
REMARK  5 active torsions:
REMARK  status: ('A' for Active; 'I' for Inactive)
REMARK    1  A    between atoms: C_2  and  O_11
REMARK    2  A    between atoms: C_5  and  C_17
REMARK    3  A    between atoms: CA_10  and  C_14
REMARK    4  A    between atoms: C_14  and  O_15
REMARK    5  A    between atoms: C_17  and  O_19
REMARK                            x       y       z     vdW  Elec       q    Type
REMARK                         _______ _______ _______ _____ _____    ______ ____
ROOT
ATOM      1  N   UNL     1      34.915 -23.544 -14.427  0.00  0.00    -0.401 NA
ATOM      2  C   UNL     1      32.678 -24.026 -13.568  0.00  0.00    +0.163 C 
ATOM      3  C   UNL     1      33.066 -23.471 -15.991  0.00  0.00    +0.093 C 
ATOM      4  C   UNL     1      33.599 -23.687 -14.716  0.00  0.00    +0.121 C 
ATOM      5  C   UNL     1      33.939 -23.084 -17.007  0.00  0.00    -0.005 C 
ATOM      6  C   UNL     1      31.391 -24.737 -14.009  0.00  0.00    +0.062 C 
ATOM      7  C   UNL     1      31.635 -23.641 -16.239  0.00  0.00    -0.020 C 
ATOM      8  C   UNL     1      30.859 -24.239 -15.324  0.00  0.00    -0.027 C 
ATOM      9  C   UNL     1      35.295 -22.936 -16.735  0.00  0.00    +0.033 C 
ATOM     10  CA  UNL     1      35.728 -23.177 -15.443  0.00  0.00    +0.205 C 
ENDROOT
BRANCH   2  11
ATOM     11  O   UNL     1      32.320 -22.824 -12.883  0.00  0.00    -0.377 OA
ATOM     12  H   UNL     1      32.318 -22.986 -11.926  0.00  0.00    +0.211 HD
ENDBRANCH   2  11
BRANCH  10  14
ATOM     13  OXT UNL     1      37.596 -22.974 -13.962  0.00  0.00    -0.242 OA
ATOM     14  C   UNL     1      37.135 -23.051 -15.107  0.00  0.00    +0.368 C 
BRANCH  14  15
ATOM     15  O   UNL     1      37.935 -23.023 -16.209  0.00  0.00    -0.475 OA
ATOM     16  H   UNL     1      37.702 -23.519 -16.970  0.00  0.00    +0.295 HD
ENDBRANCH  14  15
ENDBRANCH  10  14
BRANCH   5  17
ATOM     17  C   UNL     1      33.474 -22.808 -18.402  0.00  0.00    +0.130 C 
ATOM     18  C   UNL     1      34.556 -22.151 -19.262  0.00  0.00    +0.036 C 
BRANCH  17  19
ATOM     19  O   UNL     1      32.324 -21.957 -18.370  0.00  0.00    -0.380 OA
ATOM     20  H   UNL     1      32.589 -21.047 -18.577  0.00  0.00    +0.211 HD
ENDBRANCH  17  19
ENDBRANCH   5  17
TORSDOF 5
ENDMDL
