MODEL 1
REMARK VINA RESULT:      -6.7      0.000      0.000
REMARK  Name = 6833
REMARK  6 active torsions:
REMARK  status: ('A' for Active; 'I' for Inactive)
REMARK    1  A    between atoms: C_1  and  C_13
REMARK    2  A    between atoms: C_2  and  C_4
REMARK    3  A    between atoms: C_2  and  C_9
REMARK    4  A    between atoms: C_13  and  N_15
REMARK    5  A    between atoms: N_15  and  C_17
REMARK    6  A    between atoms: N_15  and  C_19
REMARK                            x       y       z     vdW  Elec       q    Type
REMARK                         _______ _______ _______ _____ _____    ______ ____
ROOT
ATOM      1  C   UNL     1      33.100 -23.255 -16.042  0.00  0.00    -0.046 C 
ATOM      2  C   UNL     1      34.447 -23.202 -16.163  0.00  0.00    +0.006 C 
ENDROOT
BRANCH   2   4
ATOM      3  S   UNL     1      34.134 -22.459 -18.740  0.00  0.00    -0.086 S 
ATOM      4  C   UNL     1      35.045 -22.579 -17.311  0.00  0.00    +0.030 C 
ATOM      5  C   UNL     1      36.296 -22.050 -17.415  0.00  0.00    +0.007 C 
ATOM      6  C   UNL     1      36.525 -21.520 -18.717  0.00  0.00    +0.007 C 
ATOM      7  C   UNL     1      35.431 -21.677 -19.540  0.00  0.00    +0.035 C 
ENDBRANCH   2   4
BRANCH   2   9
ATOM      8  S   UNL     1      35.682 -25.417 -15.231  0.00  0.00    -0.086 S 
ATOM      9  C   UNL     1      35.236 -23.784 -15.105  0.00  0.00    +0.030 C 
ATOM     10  C   UNL     1      35.686 -23.176 -13.976  0.00  0.00    +0.007 C 
ATOM     11  C   UNL     1      36.434 -24.082 -13.171  0.00  0.00    +0.007 C 
ATOM     12  C   UNL     1      36.510 -25.335 -13.735  0.00  0.00    +0.035 C 
ENDBRANCH   2   9
BRANCH   1  13
ATOM     13  C   UNL     1      32.285 -23.860 -14.921  0.00  0.00    -0.035 C 
ATOM     14  C   UNL     1      32.161 -22.874 -13.760  0.00  0.00    -0.018 C 
BRANCH  13  15
ATOM     15  N   UNL     1      30.951 -24.230 -15.405  0.00  0.00    +0.391 N 
ATOM     16  H   UNL     1      31.013 -24.461 -16.397  0.00  0.00    -0.079 HD
BRANCH  15  17
ATOM     17  C   UNL     1      30.027 -23.109 -15.250  0.00  0.00    -0.077 C 
ATOM     18  C   UNL     1      29.484 -22.655 -16.594  0.00  0.00    -0.025 C 
ENDBRANCH  15  17
BRANCH  15  19
ATOM     19  C   UNL     1      30.460 -25.405 -14.688  0.00  0.00    -0.077 C 
ATOM     20  C   UNL     1      28.943 -25.401 -14.603  0.00  0.00    -0.025 C 
ENDBRANCH  15  19
ENDBRANCH  13  15
ENDBRANCH   1  13
TORSDOF 6
ENDMDL
MODEL 2
REMARK VINA RESULT:      -6.7      2.227      5.305
REMARK  Name = 6833
REMARK  6 active torsions:
REMARK  status: ('A' for Active; 'I' for Inactive)
REMARK    1  A    between atoms: C_1  and  C_13
REMARK    2  A    between atoms: C_2  and  C_4
REMARK    3  A    between atoms: C_2  and  C_9
REMARK    4  A    between atoms: C_13  and  N_15
REMARK    5  A    between atoms: N_15  and  C_17
REMARK    6  A    between atoms: N_15  and  C_19
REMARK                            x       y       z     vdW  Elec       q    Type
REMARK                         _______ _______ _______ _____ _____    ______ ____
ROOT
ATOM      1  C   UNL     1      33.310 -22.939 -17.587  0.00  0.00    -0.046 C 
ATOM      2  C   UNL     1      33.517 -23.227 -16.281  0.00  0.00    +0.006 C 
ENDROOT
BRANCH   2   4
ATOM      3  S   UNL     1      30.834 -23.415 -16.042  0.00  0.00    -0.086 S 
ATOM      4  C   UNL     1      32.402 -23.371 -15.387  0.00  0.00    +0.030 C 
ATOM      5  C   UNL     1      32.429 -23.482 -14.030  0.00  0.00    +0.007 C 
ATOM      6  C   UNL     1      31.115 -23.610 -13.496  0.00  0.00    +0.007 C 
ATOM      7  C   UNL     1      30.152 -23.587 -14.481  0.00  0.00    +0.035 C 
ENDBRANCH   2   4
BRANCH   2   9
ATOM      8  S   UNL     1      35.389 -24.909 -15.299  0.00  0.00    -0.086 S 
ATOM      9  C   UNL     1      34.881 -23.382 -15.839  0.00  0.00    +0.030 C 
ATOM     10  C   UNL     1      35.852 -22.432 -15.795  0.00  0.00    +0.007 C 
ATOM     11  C   UNL     1      37.073 -22.970 -15.297  0.00  0.00    +0.007 C 
ATOM     12  C   UNL     1      36.961 -24.308 -14.989  0.00  0.00    +0.035 C 
ENDBRANCH   2   9
BRANCH   1  13
ATOM     13  C   UNL     1      34.341 -22.750 -18.677  0.00  0.00    -0.035 C 
ATOM     14  C   UNL     1      34.081 -23.718 -19.831  0.00  0.00    -0.018 C 
BRANCH  13  15
ATOM     15  N   UNL     1      34.312 -21.369 -19.170  0.00  0.00    +0.391 N 
ATOM     16  H   UNL     1      34.351 -20.734 -18.372  0.00  0.00    -0.079 HD
BRANCH  15  17
ATOM     17  C   UNL     1      33.071 -21.117 -19.899  0.00  0.00    -0.077 C 
ATOM     18  C   UNL     1      33.182 -19.869 -20.758  0.00  0.00    -0.025 C 
ENDBRANCH  15  17
BRANCH  15  19
ATOM     19  C   UNL     1      35.471 -21.111 -20.022  0.00  0.00    -0.077 C 
ATOM     20  C   UNL     1      36.763 -21.195 -19.228  0.00  0.00    -0.025 C 
ENDBRANCH  15  19
ENDBRANCH  13  15
ENDBRANCH   1  13
TORSDOF 6
ENDMDL
MODEL 3
REMARK VINA RESULT:      -6.6     12.549     15.717
REMARK  Name = 6833
REMARK  6 active torsions:
REMARK  status: ('A' for Active; 'I' for Inactive)
REMARK    1  A    between atoms: C_1  and  C_13
REMARK    2  A    between atoms: C_2  and  C_4
REMARK    3  A    between atoms: C_2  and  C_9
REMARK    4  A    between atoms: C_13  and  N_15
REMARK    5  A    between atoms: N_15  and  C_17
REMARK    6  A    between atoms: N_15  and  C_19
REMARK                            x       y       z     vdW  Elec       q    Type
REMARK                         _______ _______ _______ _____ _____    ______ ____
ROOT
ATOM      1  C   UNL     1      32.617 -10.694 -22.999  0.00  0.00    -0.046 C 
ATOM      2  C   UNL     1      33.358 -11.668 -23.578  0.00  0.00    +0.006 C 
ENDROOT
BRANCH   2   4
ATOM      3  S   UNL     1      32.209 -13.379 -21.832  0.00  0.00    -0.086 S 
ATOM      4  C   UNL     1      33.329 -13.005 -23.055  0.00  0.00    +0.030 C 
ATOM      5  C   UNL     1      34.110 -14.060 -23.420  0.00  0.00    +0.007 C 
ATOM      6  C   UNL     1      33.782 -15.227 -22.672  0.00  0.00    +0.007 C 
ATOM      7  C   UNL     1      32.765 -14.997 -21.771  0.00  0.00    +0.035 C 
ENDBRANCH   2   4
BRANCH   2   9
ATOM      8  S   UNL     1      33.868 -12.103 -26.195  0.00  0.00    -0.086 S 
ATOM      9  C   UNL     1      34.156 -11.307 -24.723  0.00  0.00    +0.030 C 
ATOM     10  C   UNL     1      35.148 -10.380 -24.784  0.00  0.00    +0.007 C 
ATOM     11  C   UNL     1      35.703 -10.309 -26.093  0.00  0.00    +0.007 C 
ATOM     12  C   UNL     1      35.100 -11.193 -26.960  0.00  0.00    +0.035 C 
ENDBRANCH   2   9
BRANCH   1  13
ATOM     13  C   UNL     1      32.511  -9.239 -23.396  0.00  0.00    -0.035 C 
ATOM     14  C   UNL     1      31.045  -8.815 -23.480  0.00  0.00    -0.018 C 
BRANCH  13  15
ATOM     15  N   UNL     1      33.219  -8.395 -22.427  0.00  0.00    +0.391 N 
ATOM     16  H   UNL     1      34.148  -8.786 -22.268  0.00  0.00    -0.079 HD
BRANCH  15  17
ATOM     17  C   UNL     1      32.502  -8.375 -21.154  0.00  0.00    -0.077 C 
ATOM     18  C   UNL     1      32.400  -6.963 -20.604  0.00  0.00    -0.025 C 
ENDBRANCH  15  17
BRANCH  15  19
ATOM     19  C   UNL     1      33.372  -7.040 -22.953  0.00  0.00    -0.077 C 
ATOM     20  C   UNL     1      34.349  -7.012 -24.116  0.00  0.00    -0.025 C 
ENDBRANCH  15  19
ENDBRANCH  13  15
ENDBRANCH   1  13
TORSDOF 6
ENDMDL
MODEL 4
REMARK VINA RESULT:      -6.4     13.129     16.260
REMARK  Name = 6833
REMARK  6 active torsions:
REMARK  status: ('A' for Active; 'I' for Inactive)
REMARK    1  A    between atoms: C_1  and  C_13
REMARK    2  A    between atoms: C_2  and  C_4
REMARK    3  A    between atoms: C_2  and  C_9
REMARK    4  A    between atoms: C_13  and  N_15
REMARK    5  A    between atoms: N_15  and  C_17
REMARK    6  A    between atoms: N_15  and  C_19
REMARK                            x       y       z     vdW  Elec       q    Type
REMARK                         _______ _______ _______ _____ _____    ______ ____
ROOT
ATOM      1  C   UNL     1      33.159 -10.687 -23.215  0.00  0.00    -0.046 C 
ATOM      2  C   UNL     1      32.495  -9.705 -22.563  0.00  0.00    +0.006 C 
ENDROOT
BRANCH   2   4
ATOM      3  S   UNL     1      31.213 -11.375 -20.872  0.00  0.00    -0.086 S 
ATOM      4  C   UNL     1      32.017  -9.921 -21.226  0.00  0.00    +0.030 C 
ATOM      5  C   UNL     1      32.125  -9.083 -20.157  0.00  0.00    +0.007 C 
ATOM      6  C   UNL     1      31.527  -9.651 -18.995  0.00  0.00    +0.007 C 
ATOM      7  C   UNL     1      30.992 -10.895 -19.243  0.00  0.00    +0.035 C 
ENDBRANCH   2   4
BRANCH   2   9
ATOM      8  S   UNL     1      33.524  -7.286 -23.183  0.00  0.00    -0.086 S 
ATOM      9  C   UNL     1      32.298  -8.457 -23.258  0.00  0.00    +0.030 C 
ATOM     10  C   UNL     1      31.219  -8.079 -23.993  0.00  0.00    +0.007 C 
ATOM     11  C   UNL     1      31.396  -6.769 -24.525  0.00  0.00    +0.007 C 
ATOM     12  C   UNL     1      32.607  -6.222 -24.162  0.00  0.00    +0.035 C 
ENDBRANCH   2   9
BRANCH   1  13
ATOM     13  C   UNL     1      33.736 -10.657 -24.612  0.00  0.00    -0.035 C 
ATOM     14  C   UNL     1      35.063  -9.897 -24.625  0.00  0.00    -0.018 C 
BRANCH  13  15
ATOM     15  N   UNL     1      33.940 -12.023 -25.107  0.00  0.00    +0.391 N 
ATOM     16  H   UNL     1      34.931 -12.253 -25.035  0.00  0.00    -0.079 HD
BRANCH  15  17
ATOM     17  C   UNL     1      33.545 -12.118 -26.510  0.00  0.00    -0.077 C 
ATOM     18  C   UNL     1      33.198 -13.548 -26.887  0.00  0.00    -0.025 C 
ENDBRANCH  15  17
BRANCH  15  19
ATOM     19  C   UNL     1      33.186 -12.974 -24.294  0.00  0.00    -0.077 C 
ATOM     20  C   UNL     1      34.117 -13.887 -23.513  0.00  0.00    -0.025 C 
ENDBRANCH  15  19
ENDBRANCH  13  15
ENDBRANCH   1  13
TORSDOF 6
ENDMDL
MODEL 5
REMARK VINA RESULT:      -6.4      5.790      9.284
REMARK  Name = 6833
REMARK  6 active torsions:
REMARK  status: ('A' for Active; 'I' for Inactive)
REMARK    1  A    between atoms: C_1  and  C_13
REMARK    2  A    between atoms: C_2  and  C_4
REMARK    3  A    between atoms: C_2  and  C_9
REMARK    4  A    between atoms: C_13  and  N_15
REMARK    5  A    between atoms: N_15  and  C_17
REMARK    6  A    between atoms: N_15  and  C_19
REMARK                            x       y       z     vdW  Elec       q    Type
REMARK                         _______ _______ _______ _____ _____    ______ ____
ROOT
ATOM      1  C   UNL     1      35.210 -18.088 -20.769  0.00  0.00    -0.046 C 
ATOM      2  C   UNL     1      34.614 -17.289 -21.685  0.00  0.00    +0.006 C 
ENDROOT
BRANCH   2   4
ATOM      3  S   UNL     1      32.387 -15.978 -20.900  0.00  0.00    -0.086 S 
ATOM      4  C   UNL     1      34.042 -16.034 -21.285  0.00  0.00    +0.030 C 
ATOM      5  C   UNL     1      34.670 -14.832 -21.167  0.00  0.00    +0.007 C 
ATOM      6  C   UNL     1      33.765 -13.817 -20.742  0.00  0.00    +0.007 C 
ATOM      7  C   UNL     1      32.489 -14.303 -20.561  0.00  0.00    +0.035 C 
ENDBRANCH   2   4
BRANCH   2   9
ATOM      8  S   UNL     1      34.635 -16.591 -24.294  0.00  0.00    -0.086 S 
ATOM      9  C   UNL     1      34.585 -17.747 -23.052  0.00  0.00    +0.030 C 
ATOM     10  C   UNL     1      34.520 -19.030 -23.496  0.00  0.00    +0.007 C 
ATOM     11  C   UNL     1      34.511 -19.079 -24.920  0.00  0.00    +0.007 C 
ATOM     12  C   UNL     1      34.569 -17.823 -25.481  0.00  0.00    +0.035 C 
ENDBRANCH   2   9
BRANCH   1  13
ATOM     13  C   UNL     1      35.865 -19.433 -20.988  0.00  0.00    -0.035 C 
ATOM     14  C   UNL     1      37.387 -19.286 -21.018  0.00  0.00    -0.018 C 
BRANCH  13  15
ATOM     15  N   UNL     1      35.477 -20.367 -19.925  0.00  0.00    +0.391 N 
ATOM     16  H   UNL     1      35.203 -19.831 -19.101  0.00  0.00    -0.079 HD
BRANCH  15  17
ATOM     17  C   UNL     1      36.604 -21.222 -19.565  0.00  0.00    -0.077 C 
ATOM     18  C   UNL     1      36.529 -21.647 -18.108  0.00  0.00    -0.025 C 
ENDBRANCH  15  17
BRANCH  15  19
ATOM     19  C   UNL     1      34.334 -21.172 -20.351  0.00  0.00    -0.077 C 
ATOM     20  C   UNL     1      33.023 -20.524 -19.939  0.00  0.00    -0.025 C 
ENDBRANCH  15  19
ENDBRANCH  13  15
ENDBRANCH   1  13
TORSDOF 6
ENDMDL
MODEL 6
REMARK VINA RESULT:      -6.3     10.971     14.194
REMARK  Name = 6833
REMARK  6 active torsions:
REMARK  status: ('A' for Active; 'I' for Inactive)
REMARK    1  A    between atoms: C_1  and  C_13
REMARK    2  A    between atoms: C_2  and  C_4
REMARK    3  A    between atoms: C_2  and  C_9
REMARK    4  A    between atoms: C_13  and  N_15
REMARK    5  A    between atoms: N_15  and  C_17
REMARK    6  A    between atoms: N_15  and  C_19
REMARK                            x       y       z     vdW  Elec       q    Type
REMARK                         _______ _______ _______ _____ _____    ______ ____
ROOT
ATOM      1  C   UNL     1      32.657 -12.508 -22.251  0.00  0.00    -0.046 C 
ATOM      2  C   UNL     1      33.354 -13.358 -23.040  0.00  0.00    +0.006 C 
ENDROOT
BRANCH   2   4
ATOM      3  S   UNL     1      33.816 -14.803 -20.806  0.00  0.00    -0.086 S 
ATOM      4  C   UNL     1      33.975 -14.523 -22.475  0.00  0.00    +0.030 C 
ATOM      5  C   UNL     1      34.704 -15.476 -23.120  0.00  0.00    +0.007 C 
ATOM      6  C   UNL     1      35.154 -16.481 -22.216  0.00  0.00    +0.007 C 
ATOM      7  C   UNL     1      34.743 -16.237 -20.924  0.00  0.00    +0.035 C 
ENDBRANCH   2   4
BRANCH   2   9
ATOM      8  S   UNL     1      32.764 -14.137 -25.559  0.00  0.00    -0.086 S 
ATOM      9  C   UNL     1      33.439 -13.047 -24.446  0.00  0.00    +0.030 C 
ATOM     10  C   UNL     1      34.010 -11.956 -25.021  0.00  0.00    +0.007 C 
ATOM     11  C   UNL     1      33.894 -12.005 -26.439  0.00  0.00    +0.007 C 
ATOM     12  C   UNL     1      33.238 -13.139 -26.866  0.00  0.00    +0.035 C 
ENDBRANCH   2   9
BRANCH   1  13
ATOM     13  C   UNL     1      31.938 -11.240 -22.651  0.00  0.00    -0.035 C 
ATOM     14  C   UNL     1      30.518 -11.230 -22.084  0.00  0.00    -0.018 C 
BRANCH  13  15
ATOM     15  N   UNL     1      32.673 -10.064 -22.170  0.00  0.00    +0.391 N 
ATOM     16  H   UNL     1      33.627 -10.345 -21.942  0.00  0.00    -0.079 HD
BRANCH  15  17
ATOM     17  C   UNL     1      32.046  -9.534 -20.963  0.00  0.00    -0.077 C 
ATOM     18  C   UNL     1      32.621  -8.176 -20.597  0.00  0.00    -0.025 C 
ENDBRANCH  15  17
BRANCH  15  19
ATOM     19  C   UNL     1      32.731  -9.042 -23.213  0.00  0.00    -0.077 C 
ATOM     20  C   UNL     1      34.164  -8.770 -23.635  0.00  0.00    -0.025 C 
ENDBRANCH  15  19
ENDBRANCH  13  15
ENDBRANCH   1  13
TORSDOF 6
ENDMDL
MODEL 7
REMARK VINA RESULT:      -6.3      2.188      5.930
REMARK  Name = 6833
REMARK  6 active torsions:
REMARK  status: ('A' for Active; 'I' for Inactive)
REMARK    1  A    between atoms: C_1  and  C_13
REMARK    2  A    between atoms: C_2  and  C_4
REMARK    3  A    between atoms: C_2  and  C_9
REMARK    4  A    between atoms: C_13  and  N_15
REMARK    5  A    between atoms: N_15  and  C_17
REMARK    6  A    between atoms: N_15  and  C_19
REMARK                            x       y       z     vdW  Elec       q    Type
REMARK                         _______ _______ _______ _____ _____    ______ ____
ROOT
ATOM      1  C   UNL     1      34.927 -23.930 -13.585  0.00  0.00    -0.046 C 
ATOM      2  C   UNL     1      34.108 -23.541 -14.589  0.00  0.00    +0.006 C 
ENDROOT
BRANCH   2   4
ATOM      3  S   UNL     1      32.030 -25.066 -13.785  0.00  0.00    -0.086 S 
ATOM      4  C   UNL     1      32.683 -23.640 -14.438  0.00  0.00    +0.030 C 
ATOM      5  C   UNL     1      31.744 -22.708 -14.761  0.00  0.00    +0.007 C 
ATOM      6  C   UNL     1      30.431 -23.174 -14.462  0.00  0.00    +0.007 C 
ATOM      7  C   UNL     1      30.441 -24.443 -13.927  0.00  0.00    +0.035 C 
ENDBRANCH   2   4
BRANCH   2   9
ATOM      8  S   UNL     1      33.889 -23.202 -17.260  0.00  0.00    -0.086 S 
ATOM      9  C   UNL     1      34.721 -23.029 -15.790  0.00  0.00    +0.030 C 
ATOM     10  C   UNL     1      35.921 -22.404 -15.907  0.00  0.00    +0.007 C 
ATOM     11  C   UNL     1      36.181 -22.044 -17.260  0.00  0.00    +0.007 C 
ATOM     12  C   UNL     1      35.158 -22.419 -18.102  0.00  0.00    +0.035 C 
ENDBRANCH   2   9
BRANCH   1  13
ATOM     13  C   UNL     1      36.438 -23.905 -13.548  0.00  0.00    -0.035 C 
ATOM     14  C   UNL     1      36.930 -23.201 -12.283  0.00  0.00    -0.018 C 
BRANCH  13  15
ATOM     15  N   UNL     1      36.971 -25.271 -13.596  0.00  0.00    +0.391 N 
ATOM     16  H   UNL     1      36.251 -25.916 -13.270  0.00  0.00    -0.079 HD
BRANCH  15  17
ATOM     17  C   UNL     1      38.132 -25.393 -12.718  0.00  0.00    -0.077 C 
ATOM     18  C   UNL     1      39.418 -25.499 -13.520  0.00  0.00    -0.025 C 
ENDBRANCH  15  17
BRANCH  15  19
ATOM     19  C   UNL     1      37.323 -25.629 -14.968  0.00  0.00    -0.077 C 
ATOM     20  C   UNL     1      36.560 -26.860 -15.426  0.00  0.00    -0.025 C 
ENDBRANCH  15  19
ENDBRANCH  13  15
ENDBRANCH   1  13
TORSDOF 6
ENDMDL
MODEL 8
REMARK VINA RESULT:      -6.3      0.822      1.691
REMARK  Name = 6833
REMARK  6 active torsions:
REMARK  status: ('A' for Active; 'I' for Inactive)
REMARK    1  A    between atoms: C_1  and  C_13
REMARK    2  A    between atoms: C_2  and  C_4
REMARK    3  A    between atoms: C_2  and  C_9
REMARK    4  A    between atoms: C_13  and  N_15
REMARK    5  A    between atoms: N_15  and  C_17
REMARK    6  A    between atoms: N_15  and  C_19
REMARK                            x       y       z     vdW  Elec       q    Type
REMARK                         _______ _______ _______ _____ _____    ______ ____
ROOT
ATOM      1  C   UNL     1      33.125 -23.255 -15.962  0.00  0.00    -0.046 C 
ATOM      2  C   UNL     1      34.456 -23.296 -16.203  0.00  0.00    +0.006 C 
ENDROOT
BRANCH   2   4
ATOM      3  S   UNL     1      34.049 -22.454 -18.737  0.00  0.00    -0.086 S 
ATOM      4  C   UNL     1      35.005 -22.612 -17.341  0.00  0.00    +0.030 C 
ATOM      5  C   UNL     1      36.239 -22.049 -17.459  0.00  0.00    +0.007 C 
ATOM      6  C   UNL     1      36.417 -21.460 -18.744  0.00  0.00    +0.007 C 
ATOM      7  C   UNL     1      35.303 -21.609 -19.540  0.00  0.00    +0.035 C 
ENDBRANCH   2   4
BRANCH   2   9
ATOM      8  S   UNL     1      36.070 -23.195 -14.040  0.00  0.00    -0.086 S 
ATOM      9  C   UNL     1      35.279 -24.040 -15.282  0.00  0.00    +0.030 C 
ATOM     10  C   UNL     1      35.515 -25.378 -15.275  0.00  0.00    +0.007 C 
ATOM     11  C   UNL     1      36.384 -25.738 -14.205  0.00  0.00    +0.007 C 
ATOM     12  C   UNL     1      36.762 -24.647 -13.455  0.00  0.00    +0.035 C 
ENDBRANCH   2   9
BRANCH   1  13
ATOM     13  C   UNL     1      32.360 -23.902 -14.830  0.00  0.00    -0.035 C 
ATOM     14  C   UNL     1      32.579 -23.129 -13.528  0.00  0.00    -0.018 C 
BRANCH  13  15
ATOM     15  N   UNL     1      30.928 -23.950 -15.145  0.00  0.00    +0.391 N 
ATOM     16  H   UNL     1      30.417 -23.431 -14.430  0.00  0.00    -0.079 HD
BRANCH  15  17
ATOM     17  C   UNL     1      30.454 -25.331 -15.141  0.00  0.00    -0.077 C 
ATOM     18  C   UNL     1      29.058 -25.431 -14.551  0.00  0.00    -0.025 C 
ENDBRANCH  15  17
BRANCH  15  19
ATOM     19  C   UNL     1      30.674 -23.322 -16.440  0.00  0.00    -0.077 C 
ATOM     20  C   UNL     1      29.357 -22.565 -16.433  0.00  0.00    -0.025 C 
ENDBRANCH  15  19
ENDBRANCH  13  15
ENDBRANCH   1  13
TORSDOF 6
ENDMDL
MODEL 9
REMARK VINA RESULT:      -6.1      2.199      6.015
REMARK  Name = 6833
REMARK  6 active torsions:
REMARK  status: ('A' for Active; 'I' for Inactive)
REMARK    1  A    between atoms: C_1  and  C_13
REMARK    2  A    between atoms: C_2  and  C_4
REMARK    3  A    between atoms: C_2  and  C_9
REMARK    4  A    between atoms: C_13  and  N_15
REMARK    5  A    between atoms: N_15  and  C_17
REMARK    6  A    between atoms: N_15  and  C_19
REMARK                            x       y       z     vdW  Elec       q    Type
REMARK                         _______ _______ _______ _____ _____    ______ ____
ROOT
ATOM      1  C   UNL     1      35.506 -23.774 -15.028  0.00  0.00    -0.046 C 
ATOM      2  C   UNL     1      34.637 -23.307 -15.955  0.00  0.00    +0.006 C 
ENDROOT
BRANCH   2   4
ATOM      3  S   UNL     1      32.669 -24.179 -14.323  0.00  0.00    -0.086 S 
ATOM      4  C   UNL     1      33.223 -23.475 -15.768  0.00  0.00    +0.030 C 
ATOM      5  C   UNL     1      32.222 -23.134 -16.627  0.00  0.00    +0.007 C 
ATOM      6  C   UNL     1      30.945 -23.458 -16.085  0.00  0.00    +0.007 C 
ATOM      7  C   UNL     1      31.042 -24.034 -14.837  0.00  0.00    +0.035 C 
ENDBRANCH   2   4
BRANCH   2   9
ATOM      8  S   UNL     1      34.285 -22.643 -18.549  0.00  0.00    -0.086 S 
ATOM      9  C   UNL     1      35.186 -22.643 -17.111  0.00  0.00    +0.030 C 
ATOM     10  C   UNL     1      36.376 -21.993 -17.207  0.00  0.00    +0.007 C 
ATOM     11  C   UNL     1      36.567 -21.466 -18.516  0.00  0.00    +0.007 C 
ATOM     12  C   UNL     1      35.506 -21.747 -19.347  0.00  0.00    +0.035 C 
ENDBRANCH   2   9
BRANCH   1  13
ATOM     13  C   UNL     1      37.016 -23.696 -15.040  0.00  0.00    -0.035 C 
ATOM     14  C   UNL     1      37.530 -23.114 -13.724  0.00  0.00    -0.018 C 
BRANCH  13  15
ATOM     15  N   UNL     1      37.592 -25.029 -15.253  0.00  0.00    +0.391 N 
ATOM     16  H   UNL     1      37.892 -25.105 -16.225  0.00  0.00    -0.079 HD
BRANCH  15  17
ATOM     17  C   UNL     1      36.590 -26.061 -14.996  0.00  0.00    -0.077 C 
ATOM     18  C   UNL     1      37.004 -26.950 -13.836  0.00  0.00    -0.025 C 
ENDBRANCH  15  17
BRANCH  15  19
ATOM     19  C   UNL     1      38.759 -25.219 -14.394  0.00  0.00    -0.077 C 
ATOM     20  C   UNL     1      40.030 -25.342 -15.217  0.00  0.00    -0.025 C 
ENDBRANCH  15  19
ENDBRANCH  13  15
ENDBRANCH   1  13
TORSDOF 6
ENDMDL
