MODEL 1
REMARK VINA RESULT:      -6.2      0.000      0.000
REMARK  Name = 70119
REMARK  2 active torsions:
REMARK  status: ('A' for Active; 'I' for Inactive)
REMARK    1  A    between atoms: C_2  and  C_8
REMARK    2  A    between atoms: C_8  and  O_9
REMARK                            x       y       z     vdW  Elec       q    Type
REMARK                         _______ _______ _______ _____ _____    ______ ____
ROOT
ATOM      1 BR   UNL     1      35.545 -18.160 -22.345  0.00  0.00    -0.049 Br
ATOM      2  C   UNL     1      33.980 -21.477 -19.438  0.00  0.00    +0.007 C 
ATOM      3  C   UNL     1      33.076 -20.646 -20.100  0.00  0.00    -0.001 C 
ATOM      4  C   UNL     1      35.351 -21.319 -19.644  0.00  0.00    -0.001 C 
ATOM      5  C   UNL     1      33.542 -19.657 -20.966  0.00  0.00    +0.006 C 
ATOM      6  C   UNL     1      35.817 -20.331 -20.510  0.00  0.00    +0.006 C 
ATOM      7  C   UNL     1      34.913 -19.499 -21.171  0.00  0.00    +0.035 C 
ENDROOT
BRANCH   2   8
ATOM      8  C   UNL     1      33.483 -22.535 -18.512  0.00  0.00    +0.164 C 
BRANCH   8   9
ATOM      9  O   UNL     1      33.847 -23.814 -19.015  0.00  0.00    -0.377 OA
ATOM     10  H   UNL     1      34.810 -23.861 -19.111  0.00  0.00    +0.211 HD
ENDBRANCH   8   9
ENDBRANCH   2   8
TORSDOF 2
ENDMDL
MODEL 2
REMARK VINA RESULT:      -6.2      0.064      1.612
REMARK  Name = 70119
REMARK  2 active torsions:
REMARK  status: ('A' for Active; 'I' for Inactive)
REMARK    1  A    between atoms: C_2  and  C_8
REMARK    2  A    between atoms: C_8  and  O_9
REMARK                            x       y       z     vdW  Elec       q    Type
REMARK                         _______ _______ _______ _____ _____    ______ ____
ROOT
ATOM      1 BR   UNL     1      35.508 -18.085 -22.361  0.00  0.00    -0.049 Br
ATOM      2  C   UNL     1      33.990 -21.439 -19.472  0.00  0.00    +0.007 C 
ATOM      3  C   UNL     1      35.358 -21.272 -19.690  0.00  0.00    -0.001 C 
ATOM      4  C   UNL     1      33.075 -20.607 -20.116  0.00  0.00    -0.001 C 
ATOM      5  C   UNL     1      35.810 -20.272 -20.551  0.00  0.00    +0.006 C 
ATOM      6  C   UNL     1      33.527 -19.607 -20.977  0.00  0.00    +0.006 C 
ATOM      7  C   UNL     1      34.895 -19.440 -21.194  0.00  0.00    +0.035 C 
ENDROOT
BRANCH   2   8
ATOM      8  C   UNL     1      33.505 -22.508 -18.552  0.00  0.00    +0.164 C 
BRANCH   8   9
ATOM      9  O   UNL     1      33.860 -23.781 -19.077  0.00  0.00    -0.377 OA
ATOM     10  H   UNL     1      33.662 -24.467 -18.421  0.00  0.00    +0.211 HD
ENDBRANCH   8   9
ENDBRANCH   2   8
TORSDOF 2
ENDMDL
MODEL 3
REMARK VINA RESULT:      -5.9      3.259      4.117
REMARK  Name = 70119
REMARK  2 active torsions:
REMARK  status: ('A' for Active; 'I' for Inactive)
REMARK    1  A    between atoms: C_2  and  C_8
REMARK    2  A    between atoms: C_8  and  O_9
REMARK                            x       y       z     vdW  Elec       q    Type
REMARK                         _______ _______ _______ _____ _____    ______ ____
ROOT
ATOM      1 BR   UNL     1      33.781 -22.725 -18.535  0.00  0.00    -0.049 Br
ATOM      2  C   UNL     1      34.779 -19.092 -21.311  0.00  0.00    +0.007 C 
ATOM      3  C   UNL     1      33.450 -19.409 -21.028  0.00  0.00    -0.001 C 
ATOM      4  C   UNL     1      35.810 -19.857 -20.767  0.00  0.00    -0.001 C 
ATOM      5  C   UNL     1      33.153 -20.492 -20.201  0.00  0.00    +0.006 C 
ATOM      6  C   UNL     1      35.513 -20.940 -19.940  0.00  0.00    +0.006 C 
ATOM      7  C   UNL     1      34.184 -21.257 -19.657  0.00  0.00    +0.035 C 
ENDROOT
BRANCH   2   8
ATOM      8  C   UNL     1      35.098 -17.934 -22.196  0.00  0.00    +0.164 C 
BRANCH   8   9
ATOM      9  O   UNL     1      36.267 -18.225 -22.951  0.00  0.00    -0.377 OA
ATOM     10  H   UNL     1      36.664 -17.397 -23.264  0.00  0.00    +0.211 HD
ENDBRANCH   8   9
ENDBRANCH   2   8
TORSDOF 2
ENDMDL
MODEL 4
REMARK VINA RESULT:      -5.6     10.070     10.833
REMARK  Name = 70119
REMARK  2 active torsions:
REMARK  status: ('A' for Active; 'I' for Inactive)
REMARK    1  A    between atoms: C_2  and  C_8
REMARK    2  A    between atoms: C_8  and  O_9
REMARK                            x       y       z     vdW  Elec       q    Type
REMARK                         _______ _______ _______ _____ _____    ______ ____
ROOT
ATOM      1 BR   UNL     1      43.346 -16.523 -18.588  0.00  0.00    -0.049 Br
ATOM      2  C   UNL     1      41.105 -14.119 -15.256  0.00  0.00    +0.007 C 
ATOM      3  C   UNL     1      41.886 -13.446 -16.196  0.00  0.00    -0.001 C 
ATOM      4  C   UNL     1      40.993 -15.508 -15.308  0.00  0.00    -0.001 C 
ATOM      5  C   UNL     1      42.553 -14.163 -17.189  0.00  0.00    +0.006 C 
ATOM      6  C   UNL     1      41.661 -16.225 -16.301  0.00  0.00    +0.006 C 
ATOM      7  C   UNL     1      42.441 -15.552 -17.242  0.00  0.00    +0.035 C 
ENDROOT
BRANCH   2   8
ATOM      8  C   UNL     1      40.391 -13.354 -14.193  0.00  0.00    +0.164 C 
BRANCH   8   9
ATOM      9  O   UNL     1      41.054 -13.540 -12.949  0.00  0.00    -0.377 OA
ATOM     10  H   UNL     1      40.704 -12.911 -12.299  0.00  0.00    +0.211 HD
ENDBRANCH   8   9
ENDBRANCH   2   8
TORSDOF 2
ENDMDL
MODEL 5
REMARK VINA RESULT:      -5.6      4.416      5.619
REMARK  Name = 70119
REMARK  2 active torsions:
REMARK  status: ('A' for Active; 'I' for Inactive)
REMARK    1  A    between atoms: C_2  and  C_8
REMARK    2  A    between atoms: C_8  and  O_9
REMARK                            x       y       z     vdW  Elec       q    Type
REMARK                         _______ _______ _______ _____ _____    ______ ____
ROOT
ATOM      1 BR   UNL     1      33.113 -14.936 -26.145  0.00  0.00    -0.049 Br
ATOM      2  C   UNL     1      35.326 -17.553 -22.959  0.00  0.00    +0.007 C 
ATOM      3  C   UNL     1      35.018 -18.089 -24.210  0.00  0.00    -0.001 C 
ATOM      4  C   UNL     1      34.974 -16.238 -22.658  0.00  0.00    -0.001 C 
ATOM      5  C   UNL     1      34.359 -17.309 -25.159  0.00  0.00    +0.006 C 
ATOM      6  C   UNL     1      34.314 -15.458 -23.607  0.00  0.00    +0.006 C 
ATOM      7  C   UNL     1      34.007 -15.994 -24.858  0.00  0.00    +0.035 C 
ENDROOT
BRANCH   2   8
ATOM      8  C   UNL     1      36.031 -18.386 -21.942  0.00  0.00    +0.164 C 
BRANCH   8   9
ATOM      9  O   UNL     1      35.642 -17.972 -20.639  0.00  0.00    -0.377 OA
ATOM     10  H   UNL     1      36.431 -17.742 -20.124  0.00  0.00    +0.211 HD
ENDBRANCH   8   9
ENDBRANCH   2   8
TORSDOF 2
ENDMDL
MODEL 6
REMARK VINA RESULT:      -5.4      5.452      6.729
REMARK  Name = 70119
REMARK  2 active torsions:
REMARK  status: ('A' for Active; 'I' for Inactive)
REMARK    1  A    between atoms: C_2  and  C_8
REMARK    2  A    between atoms: C_8  and  O_9
REMARK                            x       y       z     vdW  Elec       q    Type
REMARK                         _______ _______ _______ _____ _____    ______ ____
ROOT
ATOM      1 BR   UNL     1      36.077 -18.749 -21.333  0.00  0.00    -0.049 Br
ATOM      2  C   UNL     1      34.100 -15.932 -24.505  0.00  0.00    +0.007 C 
ATOM      3  C   UNL     1      34.266 -15.495 -23.191  0.00  0.00    -0.001 C 
ATOM      4  C   UNL     1      34.524 -17.209 -24.873  0.00  0.00    -0.001 C 
ATOM      5  C   UNL     1      34.855 -16.334 -22.245  0.00  0.00    +0.006 C 
ATOM      6  C   UNL     1      35.112 -18.049 -23.928  0.00  0.00    +0.006 C 
ATOM      7  C   UNL     1      35.278 -17.611 -22.614  0.00  0.00    +0.035 C 
ENDROOT
BRANCH   2   8
ATOM      8  C   UNL     1      33.471 -15.036 -25.517  0.00  0.00    +0.164 C 
BRANCH   8   9
ATOM      9  O   UNL     1      33.203 -15.775 -26.702  0.00  0.00    -0.377 OA
ATOM     10  H   UNL     1      32.780 -15.197 -27.355  0.00  0.00    +0.211 HD
ENDBRANCH   8   9
ENDBRANCH   2   8
TORSDOF 2
ENDMDL
MODEL 7
REMARK VINA RESULT:      -5.3     11.775     12.781
REMARK  Name = 70119
REMARK  2 active torsions:
REMARK  status: ('A' for Active; 'I' for Inactive)
REMARK    1  A    between atoms: C_2  and  C_8
REMARK    2  A    between atoms: C_8  and  O_9
REMARK                            x       y       z     vdW  Elec       q    Type
REMARK                         _______ _______ _______ _____ _____    ______ ____
ROOT
ATOM      1 BR   UNL     1      35.159 -10.483 -25.528  0.00  0.00    -0.049 Br
ATOM      2  C   UNL     1      33.043  -8.084 -22.112  0.00  0.00    +0.007 C 
ATOM      3  C   UNL     1      34.136  -7.530 -22.780  0.00  0.00    -0.001 C 
ATOM      4  C   UNL     1      32.582  -9.353 -22.462  0.00  0.00    -0.001 C 
ATOM      5  C   UNL     1      34.766  -8.246 -23.798  0.00  0.00    +0.006 C 
ATOM      6  C   UNL     1      33.213 -10.068 -23.480  0.00  0.00    +0.006 C 
ATOM      7  C   UNL     1      34.305  -9.514 -24.148  0.00  0.00    +0.035 C 
ENDROOT
BRANCH   2   8
ATOM      8  C   UNL     1      32.368  -7.321 -21.023  0.00  0.00    +0.164 C 
BRANCH   8   9
ATOM      9  O   UNL     1      33.049  -7.547 -19.795  0.00  0.00    -0.377 OA
ATOM     10  H   UNL     1      32.703  -8.351 -19.377  0.00  0.00    +0.211 HD
ENDBRANCH   8   9
ENDBRANCH   2   8
TORSDOF 2
ENDMDL
MODEL 8
REMARK VINA RESULT:      -5.2      6.301      7.407
REMARK  Name = 70119
REMARK  2 active torsions:
REMARK  status: ('A' for Active; 'I' for Inactive)
REMARK    1  A    between atoms: C_2  and  C_8
REMARK    2  A    between atoms: C_8  and  O_9
REMARK                            x       y       z     vdW  Elec       q    Type
REMARK                         _______ _______ _______ _____ _____    ______ ____
ROOT
ATOM      1 BR   UNL     1      31.164 -11.573 -21.374  0.00  0.00    -0.049 Br
ATOM      2  C   UNL     1      33.901 -15.263 -22.264  0.00  0.00    +0.007 C 
ATOM      3  C   UNL     1      33.465 -15.016 -20.962  0.00  0.00    -0.001 C 
ATOM      4  C   UNL     1      33.522 -14.410 -23.300  0.00  0.00    -0.001 C 
ATOM      5  C   UNL     1      32.649 -13.916 -20.697  0.00  0.00    +0.006 C 
ATOM      6  C   UNL     1      32.706 -13.310 -23.035  0.00  0.00    +0.006 C 
ATOM      7  C   UNL     1      32.270 -13.063 -21.733  0.00  0.00    +0.035 C 
ENDROOT
BRANCH   2   8
ATOM      8  C   UNL     1      34.774 -16.438 -22.549  0.00  0.00    +0.164 C 
BRANCH   8   9
ATOM      9  O   UNL     1      35.666 -16.119 -23.609  0.00  0.00    -0.377 OA
ATOM     10  H   UNL     1      36.185 -16.904 -23.842  0.00  0.00    +0.211 HD
ENDBRANCH   8   9
ENDBRANCH   2   8
TORSDOF 2
ENDMDL
MODEL 9
REMARK VINA RESULT:      -5.2      2.998      3.971
REMARK  Name = 70119
REMARK  2 active torsions:
REMARK  status: ('A' for Active; 'I' for Inactive)
REMARK    1  A    between atoms: C_2  and  C_8
REMARK    2  A    between atoms: C_8  and  O_9
REMARK                            x       y       z     vdW  Elec       q    Type
REMARK                         _______ _______ _______ _____ _____    ______ ____
ROOT
ATOM      1 BR   UNL     1      34.164 -15.962 -25.177  0.00  0.00    -0.049 Br
ATOM      2  C   UNL     1      35.156 -19.006 -21.764  0.00  0.00    +0.007 C 
ATOM      3  C   UNL     1      35.068 -17.644 -21.479  0.00  0.00    -0.001 C 
ATOM      4  C   UNL     1      34.949 -19.462 -23.066  0.00  0.00    -0.001 C 
ATOM      5  C   UNL     1      34.772 -16.737 -22.497  0.00  0.00    +0.006 C 
ATOM      6  C   UNL     1      34.653 -18.555 -24.084  0.00  0.00    +0.006 C 
ATOM      7  C   UNL     1      34.565 -17.192 -23.799  0.00  0.00    +0.035 C 
ENDROOT
BRANCH   2   8
ATOM      8  C   UNL     1      35.473 -19.978 -20.678  0.00  0.00    +0.164 C 
BRANCH   8   9
ATOM      9  O   UNL     1      36.721 -19.637 -20.088  0.00  0.00    -0.377 OA
ATOM     10  H   UNL     1      36.749 -18.683 -19.919  0.00  0.00    +0.211 HD
ENDBRANCH   8   9
ENDBRANCH   2   8
TORSDOF 2
ENDMDL
