MODEL 1
REMARK VINA RESULT:      -6.9      0.000      0.000
REMARK  Name = 446947
REMARK  10 active torsions:
REMARK  status: ('A' for Active; 'I' for Inactive)
REMARK    1  A    between atoms: C_1  and  O_2
REMARK    2  A    between atoms: C_1  and  C_4
REMARK    3  A    between atoms: C_1  and  C_11
REMARK    4  A    between atoms: C_4  and  O_5
REMARK    5  A    between atoms: C_4  and  C_8
REMARK    6  A    between atoms: C_8  and  O_9
REMARK    7  A    between atoms: C_11  and  O_12
REMARK    8  A    between atoms: O_12  and  P_13
REMARK    9  A    between atoms: P_13  and  O_15
REMARK   10  A    between atoms: P_13  and  O_17
REMARK                            x       y       z     vdW  Elec       q    Type
REMARK                         _______ _______ _______ _____ _____    ______ ____
ROOT
ATOM      1  C   UNL     1      37.807 -25.948 -14.012  0.00  0.00    +0.178 C 
ENDROOT
BRANCH   1   2
ATOM      2  O   UNL     1      37.977 -27.259 -14.553  0.00  0.00    -0.379 OA
ATOM      3  H   UNL     1      37.132 -27.734 -14.520  0.00  0.00    +0.211 HD
ENDBRANCH   1   2
BRANCH   1   4
ATOM      4  C   UNL     1      39.042 -25.086 -14.304  0.00  0.00    +0.239 C 
BRANCH   4   5
ATOM      5  O   UNL     1      39.386 -24.405 -13.099  0.00  0.00    -0.373 OA
ATOM      6  H   UNL     1      38.705 -24.572 -12.428  0.00  0.00    +0.211 HD
ENDBRANCH   4   5
BRANCH   4   8
ATOM      7  O   UNL     1      41.007 -26.470 -13.932  0.00  0.00    -0.248 OA
ATOM      8  C   UNL     1      40.259 -25.895 -14.713  0.00  0.00    +0.344 C 
BRANCH   8   9
ATOM      9  O   UNL     1      40.428 -25.930 -16.059  0.00  0.00    -0.478 OA
ATOM     10  H   UNL     1      40.230 -26.712 -16.536  0.00  0.00    +0.295 HD
ENDBRANCH   8   9
ENDBRANCH   4   8
ENDBRANCH   1   4
BRANCH   1  11
ATOM     11  C   UNL     1      37.459 -26.090 -12.535  0.00  0.00    +0.186 C 
BRANCH  11  12
ATOM     12  O   UNL     1      36.147 -25.624 -12.267  0.00  0.00    -0.271 OA
BRANCH  12  13
ATOM     13  P   UNL     1      35.969 -24.296 -11.360  0.00  0.00    +0.473 P 
ATOM     14  O   UNL     1      37.210 -23.467 -11.199  0.00  0.00    -0.227 OA
BRANCH  13  15
ATOM     15  O   UNL     1      35.327 -24.854  -9.984  0.00  0.00    -0.303 OA
ATOM     16  H   UNL     1      34.426 -24.508  -9.884  0.00  0.00    +0.222 HD
ENDBRANCH  13  15
BRANCH  13  17
ATOM     17  O   UNL     1      34.729 -23.538 -12.069  0.00  0.00    -0.303 OA
ATOM     18  H   UNL     1      35.068 -22.862 -12.675  0.00  0.00    +0.222 HD
ENDBRANCH  13  17
ENDBRANCH  12  13
ENDBRANCH  11  12
ENDBRANCH   1  11
TORSDOF 10
ENDMDL
MODEL 2
REMARK VINA RESULT:      -6.7      0.935      1.982
REMARK  Name = 446947
REMARK  10 active torsions:
REMARK  status: ('A' for Active; 'I' for Inactive)
REMARK    1  A    between atoms: C_1  and  O_2
REMARK    2  A    between atoms: C_1  and  C_4
REMARK    3  A    between atoms: C_1  and  C_11
REMARK    4  A    between atoms: C_4  and  O_5
REMARK    5  A    between atoms: C_4  and  C_8
REMARK    6  A    between atoms: C_8  and  O_9
REMARK    7  A    between atoms: C_11  and  O_12
REMARK    8  A    between atoms: O_12  and  P_13
REMARK    9  A    between atoms: P_13  and  O_15
REMARK   10  A    between atoms: P_13  and  O_17
REMARK                            x       y       z     vdW  Elec       q    Type
REMARK                         _______ _______ _______ _____ _____    ______ ____
ROOT
ATOM      1  C   UNL     1      38.270 -25.280 -13.313  0.00  0.00    +0.178 C 
ENDROOT
BRANCH   1   2
ATOM      2  O   UNL     1      38.222 -23.919 -13.745  0.00  0.00    -0.379 OA
ATOM      3  H   UNL     1      37.548 -23.443 -13.235  0.00  0.00    +0.211 HD
ENDBRANCH   1   2
BRANCH   1   4
ATOM      4  C   UNL     1      38.969 -26.150 -14.365  0.00  0.00    +0.239 C 
BRANCH   4   5
ATOM      5  O   UNL     1      38.065 -26.318 -15.454  0.00  0.00    -0.373 OA
ATOM      6  H   UNL     1      38.298 -25.702 -16.166  0.00  0.00    +0.211 HD
ENDBRANCH   4   5
BRANCH   4   8
ATOM      7  O   UNL     1      40.946 -24.734 -14.325  0.00  0.00    -0.248 OA
ATOM      8  C   UNL     1      40.225 -25.516 -14.932  0.00  0.00    +0.344 C 
BRANCH   8   9
ATOM      9  O   UNL     1      40.483 -25.924 -16.201  0.00  0.00    -0.478 OA
ATOM     10  H   UNL     1      39.877 -25.728 -16.888  0.00  0.00    +0.295 HD
ENDBRANCH   8   9
ENDBRANCH   4   8
ENDBRANCH   1   4
BRANCH   1  11
ATOM     11  C   UNL     1      36.850 -25.713 -12.964  0.00  0.00    +0.186 C 
BRANCH  11  12
ATOM     12  O   UNL     1      36.584 -25.541 -11.582  0.00  0.00    -0.271 OA
BRANCH  12  13
ATOM     13  P   UNL     1      35.854 -24.179 -11.100  0.00  0.00    +0.473 P 
ATOM     14  O   UNL     1      34.753 -23.697 -11.999  0.00  0.00    -0.227 OA
BRANCH  13  15
ATOM     15  O   UNL     1      37.077 -23.142 -10.888  0.00  0.00    -0.303 OA
ATOM     16  H   UNL     1      37.072 -22.820  -9.973  0.00  0.00    +0.222 HD
ENDBRANCH  13  15
BRANCH  13  17
ATOM     17  O   UNL     1      35.397 -24.530  -9.589  0.00  0.00    -0.303 OA
ATOM     18  H   UNL     1      36.029 -24.146  -8.963  0.00  0.00    +0.222 HD
ENDBRANCH  13  17
ENDBRANCH  12  13
ENDBRANCH  11  12
ENDBRANCH   1  11
TORSDOF 10
ENDMDL
MODEL 3
REMARK VINA RESULT:      -6.7      2.698      4.562
REMARK  Name = 446947
REMARK  10 active torsions:
REMARK  status: ('A' for Active; 'I' for Inactive)
REMARK    1  A    between atoms: C_1  and  O_2
REMARK    2  A    between atoms: C_1  and  C_4
REMARK    3  A    between atoms: C_1  and  C_11
REMARK    4  A    between atoms: C_4  and  O_5
REMARK    5  A    between atoms: C_4  and  C_8
REMARK    6  A    between atoms: C_8  and  O_9
REMARK    7  A    between atoms: C_11  and  O_12
REMARK    8  A    between atoms: O_12  and  P_13
REMARK    9  A    between atoms: P_13  and  O_15
REMARK   10  A    between atoms: P_13  and  O_17
REMARK                            x       y       z     vdW  Elec       q    Type
REMARK                         _______ _______ _______ _____ _____    ______ ____
ROOT
ATOM      1  C   UNL     1      36.877 -25.282 -14.289  0.00  0.00    +0.178 C 
ENDROOT
BRANCH   1   2
ATOM      2  O   UNL     1      37.040 -25.864 -15.583  0.00  0.00    -0.379 OA
ATOM      3  H   UNL     1      37.950 -25.721 -15.888  0.00  0.00    +0.211 HD
ENDBRANCH   1   2
BRANCH   1   4
ATOM      4  C   UNL     1      36.890 -23.751 -14.387  0.00  0.00    +0.239 C 
BRANCH   4   5
ATOM      5  O   UNL     1      37.859 -23.269 -13.458  0.00  0.00    -0.373 OA
ATOM      6  H   UNL     1      37.533 -22.452 -13.047  0.00  0.00    +0.211 HD
ENDBRANCH   4   5
BRANCH   4   8
ATOM      7  O   UNL     1      36.524 -22.828 -16.606  0.00  0.00    -0.248 OA
ATOM      8  C   UNL     1      37.302 -23.239 -15.754  0.00  0.00    +0.344 C 
BRANCH   8   9
ATOM      9  O   UNL     1      38.646 -23.269 -15.935  0.00  0.00    -0.478 OA
ATOM     10  H   UNL     1      39.218 -23.301 -15.193  0.00  0.00    +0.295 HD
ENDBRANCH   8   9
ENDBRANCH   4   8
ENDBRANCH   1   4
BRANCH   1  11
ATOM     11  C   UNL     1      37.938 -25.875 -13.369  0.00  0.00    +0.186 C 
BRANCH  11  12
ATOM     12  O   UNL     1      38.894 -26.624 -14.101  0.00  0.00    -0.271 OA
BRANCH  12  13
ATOM     13  P   UNL     1      40.298 -25.916 -14.487  0.00  0.00    +0.473 P 
ATOM     14  O   UNL     1      40.538 -24.586 -13.835  0.00  0.00    -0.227 OA
BRANCH  13  15
ATOM     15  O   UNL     1      40.287 -25.901 -16.104  0.00  0.00    -0.303 OA
ATOM     16  H   UNL     1      39.421 -26.199 -16.425  0.00  0.00    +0.222 HD
ENDBRANCH  13  15
BRANCH  13  17
ATOM     17  O   UNL     1      41.386 -27.058 -14.133  0.00  0.00    -0.303 OA
ATOM     18  H   UNL     1      40.936 -27.824 -13.745  0.00  0.00    +0.222 HD
ENDBRANCH  13  17
ENDBRANCH  12  13
ENDBRANCH  11  12
ENDBRANCH   1  11
TORSDOF 10
ENDMDL
MODEL 4
REMARK VINA RESULT:      -6.7      2.097      5.249
REMARK  Name = 446947
REMARK  10 active torsions:
REMARK  status: ('A' for Active; 'I' for Inactive)
REMARK    1  A    between atoms: C_1  and  O_2
REMARK    2  A    between atoms: C_1  and  C_4
REMARK    3  A    between atoms: C_1  and  C_11
REMARK    4  A    between atoms: C_4  and  O_5
REMARK    5  A    between atoms: C_4  and  C_8
REMARK    6  A    between atoms: C_8  and  O_9
REMARK    7  A    between atoms: C_11  and  O_12
REMARK    8  A    between atoms: O_12  and  P_13
REMARK    9  A    between atoms: P_13  and  O_15
REMARK   10  A    between atoms: P_13  and  O_17
REMARK                            x       y       z     vdW  Elec       q    Type
REMARK                         _______ _______ _______ _____ _____    ______ ____
ROOT
ATOM      1  C   UNL     1      37.793 -24.665 -12.223  0.00  0.00    +0.178 C 
ENDROOT
BRANCH   1   2
ATOM      2  O   UNL     1      37.529 -26.038 -11.926  0.00  0.00    -0.379 OA
ATOM      3  H   UNL     1      36.624 -26.127 -11.590  0.00  0.00    +0.211 HD
ENDBRANCH   1   2
BRANCH   1   4
ATOM      4  C   UNL     1      36.655 -23.779 -11.701  0.00  0.00    +0.239 C 
BRANCH   4   5
ATOM      5  O   UNL     1      36.135 -23.048 -12.810  0.00  0.00    -0.373 OA
ATOM      6  H   UNL     1      35.245 -22.727 -12.597  0.00  0.00    +0.211 HD
ENDBRANCH   4   5
BRANCH   4   8
ATOM      7  O   UNL     1      35.366 -24.827  -9.925  0.00  0.00    -0.248 OA
ATOM      8  C   UNL     1      35.498 -24.566 -11.114  0.00  0.00    +0.344 C 
BRANCH   8   9
ATOM      9  O   UNL     1      34.600 -24.946 -12.058  0.00  0.00    -0.478 OA
ATOM     10  H   UNL     1      34.098 -24.300 -12.514  0.00  0.00    +0.295 HD
ENDBRANCH   8   9
ENDBRANCH   4   8
ENDBRANCH   1   4
BRANCH   1  11
ATOM     11  C   UNL     1      38.060 -24.551 -13.719  0.00  0.00    +0.186 C 
BRANCH  11  12
ATOM     12  O   UNL     1      39.446 -24.639 -14.003  0.00  0.00    -0.271 OA
BRANCH  12  13
ATOM     13  P   UNL     1      40.029 -26.037 -14.576  0.00  0.00    +0.473 P 
ATOM     14  O   UNL     1      41.186 -26.604 -13.806  0.00  0.00    -0.227 OA
BRANCH  13  15
ATOM     15  O   UNL     1      40.325 -25.719 -16.134  0.00  0.00    -0.303 OA
ATOM     16  H   UNL     1      39.550 -25.962 -16.666  0.00  0.00    +0.222 HD
ENDBRANCH  13  15
BRANCH  13  17
ATOM     17  O   UNL     1      38.716 -26.979 -14.631  0.00  0.00    -0.303 OA
ATOM     18  H   UNL     1      38.954 -27.843 -14.999  0.00  0.00    +0.222 HD
ENDBRANCH  13  17
ENDBRANCH  12  13
ENDBRANCH  11  12
ENDBRANCH   1  11
TORSDOF 10
ENDMDL
MODEL 5
REMARK VINA RESULT:      -6.6      1.628      2.480
REMARK  Name = 446947
REMARK  10 active torsions:
REMARK  status: ('A' for Active; 'I' for Inactive)
REMARK    1  A    between atoms: C_1  and  O_2
REMARK    2  A    between atoms: C_1  and  C_4
REMARK    3  A    between atoms: C_1  and  C_11
REMARK    4  A    between atoms: C_4  and  O_5
REMARK    5  A    between atoms: C_4  and  C_8
REMARK    6  A    between atoms: C_8  and  O_9
REMARK    7  A    between atoms: C_11  and  O_12
REMARK    8  A    between atoms: O_12  and  P_13
REMARK    9  A    between atoms: P_13  and  O_15
REMARK   10  A    between atoms: P_13  and  O_17
REMARK                            x       y       z     vdW  Elec       q    Type
REMARK                         _______ _______ _______ _____ _____    ______ ____
ROOT
ATOM      1  C   UNL     1      37.390 -26.358 -13.903  0.00  0.00    +0.178 C 
ENDROOT
BRANCH   1   2
ATOM      2  O   UNL     1      38.645 -26.794 -14.429  0.00  0.00    -0.379 OA
ATOM      3  H   UNL     1      38.656 -26.660 -15.389  0.00  0.00    +0.211 HD
ENDBRANCH   1   2
BRANCH   1   4
ATOM      4  C   UNL     1      36.672 -25.456 -14.915  0.00  0.00    +0.239 C 
BRANCH   4   5
ATOM      5  O   UNL     1      35.305 -25.368 -14.518  0.00  0.00    -0.373 OA
ATOM      6  H   UNL     1      34.904 -26.251 -14.543  0.00  0.00    +0.211 HD
ENDBRANCH   4   5
BRANCH   4   8
ATOM      7  O   UNL     1      36.595 -23.050 -14.568  0.00  0.00    -0.248 OA
ATOM      8  C   UNL     1      37.211 -24.038 -14.947  0.00  0.00    +0.344 C 
BRANCH   8   9
ATOM      9  O   UNL     1      38.476 -23.977 -15.435  0.00  0.00    -0.478 OA
ATOM     10  H   UNL     1      38.645 -23.537 -16.244  0.00  0.00    +0.295 HD
ENDBRANCH   8   9
ENDBRANCH   4   8
ENDBRANCH   1   4
BRANCH   1  11
ATOM     11  C   UNL     1      37.647 -25.718 -12.543  0.00  0.00    +0.186 C 
BRANCH  11  12
ATOM     12  O   UNL     1      36.448 -25.598 -11.795  0.00  0.00    -0.271 OA
BRANCH  12  13
ATOM     13  P   UNL     1      36.086 -24.162 -11.141  0.00  0.00    +0.473 P 
ATOM     14  O   UNL     1      37.245 -23.218 -11.005  0.00  0.00    -0.227 OA
BRANCH  13  15
ATOM     15  O   UNL     1      35.343 -24.547  -9.758  0.00  0.00    -0.303 OA
ATOM     16  H   UNL     1      35.100 -23.735  -9.285  0.00  0.00    +0.222 HD
ENDBRANCH  13  15
BRANCH  13  17
ATOM     17  O   UNL     1      34.880 -23.633 -12.079  0.00  0.00    -0.303 OA
ATOM     18  H   UNL     1      34.783 -24.221 -12.843  0.00  0.00    +0.222 HD
ENDBRANCH  13  17
ENDBRANCH  12  13
ENDBRANCH  11  12
ENDBRANCH   1  11
TORSDOF 10
ENDMDL
MODEL 6
REMARK VINA RESULT:      -6.5      2.020      5.109
REMARK  Name = 446947
REMARK  10 active torsions:
REMARK  status: ('A' for Active; 'I' for Inactive)
REMARK    1  A    between atoms: C_1  and  O_2
REMARK    2  A    between atoms: C_1  and  C_4
REMARK    3  A    between atoms: C_1  and  C_11
REMARK    4  A    between atoms: C_4  and  O_5
REMARK    5  A    between atoms: C_4  and  C_8
REMARK    6  A    between atoms: C_8  and  O_9
REMARK    7  A    between atoms: C_11  and  O_12
REMARK    8  A    between atoms: O_12  and  P_13
REMARK    9  A    between atoms: P_13  and  O_15
REMARK   10  A    between atoms: P_13  and  O_17
REMARK                            x       y       z     vdW  Elec       q    Type
REMARK                         _______ _______ _______ _____ _____    ______ ____
ROOT
ATOM      1  C   UNL     1      37.100 -24.846 -13.824  0.00  0.00    +0.178 C 
ENDROOT
BRANCH   1   2
ATOM      2  O   UNL     1      37.734 -23.602 -14.125  0.00  0.00    -0.379 OA
ATOM      3  H   UNL     1      37.063 -22.903 -14.181  0.00  0.00    +0.211 HD
ENDBRANCH   1   2
BRANCH   1   4
ATOM      4  C   UNL     1      37.118 -25.102 -12.311  0.00  0.00    +0.239 C 
BRANCH   4   5
ATOM      5  O   UNL     1      38.245 -24.415 -11.772  0.00  0.00    -0.373 OA
ATOM      6  H   UNL     1      38.312 -23.536 -12.178  0.00  0.00    +0.211 HD
ENDBRANCH   4   5
BRANCH   4   8
ATOM      7  O   UNL     1      35.359 -25.103 -10.632  0.00  0.00    -0.248 OA
ATOM      8  C   UNL     1      35.893 -24.566 -11.595  0.00  0.00    +0.344 C 
BRANCH   8   9
ATOM      9  O   UNL     1      35.450 -23.401 -12.130  0.00  0.00    -0.478 OA
ATOM     10  H   UNL     1      36.054 -22.815 -12.543  0.00  0.00    +0.295 HD
ENDBRANCH   8   9
ENDBRANCH   4   8
ENDBRANCH   1   4
BRANCH   1  11
ATOM     11  C   UNL     1      37.766 -25.928 -14.666  0.00  0.00    +0.186 C 
BRANCH  11  12
ATOM     12  O   UNL     1      38.919 -26.445 -14.022  0.00  0.00    -0.271 OA
BRANCH  12  13
ATOM     13  P   UNL     1      40.367 -25.857 -14.443  0.00  0.00    +0.473 P 
ATOM     14  O   UNL     1      40.695 -24.509 -13.870  0.00  0.00    -0.227 OA
BRANCH  13  15
ATOM     15  O   UNL     1      40.360 -25.938 -16.058  0.00  0.00    -0.303 OA
ATOM     16  H   UNL     1      40.126 -26.839 -16.334  0.00  0.00    +0.222 HD
ENDBRANCH  13  15
BRANCH  13  17
ATOM     17  O   UNL     1      41.377 -27.045 -14.014  0.00  0.00    -0.303 OA
ATOM     18  H   UNL     1      40.940 -27.623 -13.370  0.00  0.00    +0.222 HD
ENDBRANCH  13  17
ENDBRANCH  12  13
ENDBRANCH  11  12
ENDBRANCH   1  11
TORSDOF 10
ENDMDL
MODEL 7
REMARK VINA RESULT:      -6.4      2.292      4.897
REMARK  Name = 446947
REMARK  10 active torsions:
REMARK  status: ('A' for Active; 'I' for Inactive)
REMARK    1  A    between atoms: C_1  and  O_2
REMARK    2  A    between atoms: C_1  and  C_4
REMARK    3  A    between atoms: C_1  and  C_11
REMARK    4  A    between atoms: C_4  and  O_5
REMARK    5  A    between atoms: C_4  and  C_8
REMARK    6  A    between atoms: C_8  and  O_9
REMARK    7  A    between atoms: C_11  and  O_12
REMARK    8  A    between atoms: O_12  and  P_13
REMARK    9  A    between atoms: P_13  and  O_15
REMARK   10  A    between atoms: P_13  and  O_17
REMARK                            x       y       z     vdW  Elec       q    Type
REMARK                         _______ _______ _______ _____ _____    ______ ____
ROOT
ATOM      1  C   UNL     1      37.783 -23.823 -12.518  0.00  0.00    +0.178 C 
ENDROOT
BRANCH   1   2
ATOM      2  O   UNL     1      38.829 -23.382 -11.651  0.00  0.00    -0.379 OA
ATOM      3  H   UNL     1      38.696 -23.759 -10.767  0.00  0.00    +0.211 HD
ENDBRANCH   1   2
BRANCH   1   4
ATOM      4  C   UNL     1      36.425 -23.317 -12.016  0.00  0.00    +0.239 C 
BRANCH   4   5
ATOM      5  O   UNL     1      35.538 -23.288 -13.132  0.00  0.00    -0.373 OA
ATOM      6  H   UNL     1      35.960 -22.818 -13.868  0.00  0.00    +0.211 HD
ENDBRANCH   4   5
BRANCH   4   8
ATOM      7  O   UNL     1      36.096 -24.239  -9.790  0.00  0.00    -0.248 OA
ATOM      8  C   UNL     1      35.792 -24.221 -10.976  0.00  0.00    +0.344 C 
BRANCH   8   9
ATOM      9  O   UNL     1      34.824 -25.014 -11.501  0.00  0.00    -0.478 OA
ATOM     10  H   UNL     1      34.926 -25.946 -11.495  0.00  0.00    +0.295 HD
ENDBRANCH   8   9
ENDBRANCH   4   8
ENDBRANCH   1   4
BRANCH   1  11
ATOM     11  C   UNL     1      37.893 -25.337 -12.654  0.00  0.00    +0.186 C 
BRANCH  11  12
ATOM     12  O   UNL     1      36.862 -25.856 -13.478  0.00  0.00    -0.271 OA
BRANCH  12  13
ATOM     13  P   UNL     1      37.142 -25.999 -15.066  0.00  0.00    +0.473 P 
ATOM     14  O   UNL     1      36.384 -27.102 -15.746  0.00  0.00    -0.227 OA
BRANCH  13  15
ATOM     15  O   UNL     1      38.752 -26.105 -15.164  0.00  0.00    -0.303 OA
ATOM     16  H   UNL     1      39.144 -25.865 -14.309  0.00  0.00    +0.222 HD
ENDBRANCH  13  15
BRANCH  13  17
ATOM     17  O   UNL     1      36.831 -24.513 -15.621  0.00  0.00    -0.303 OA
ATOM     18  H   UNL     1      36.493 -23.962 -14.899  0.00  0.00    +0.222 HD
ENDBRANCH  13  17
ENDBRANCH  12  13
ENDBRANCH  11  12
ENDBRANCH   1  11
TORSDOF 10
ENDMDL
MODEL 8
REMARK VINA RESULT:      -6.3      2.405      4.642
REMARK  Name = 446947
REMARK  10 active torsions:
REMARK  status: ('A' for Active; 'I' for Inactive)
REMARK    1  A    between atoms: C_1  and  O_2
REMARK    2  A    between atoms: C_1  and  C_4
REMARK    3  A    between atoms: C_1  and  C_11
REMARK    4  A    between atoms: C_4  and  O_5
REMARK    5  A    between atoms: C_4  and  C_8
REMARK    6  A    between atoms: C_8  and  O_9
REMARK    7  A    between atoms: C_11  and  O_12
REMARK    8  A    between atoms: O_12  and  P_13
REMARK    9  A    between atoms: P_13  and  O_15
REMARK   10  A    between atoms: P_13  and  O_17
REMARK                            x       y       z     vdW  Elec       q    Type
REMARK                         _______ _______ _______ _____ _____    ______ ____
ROOT
ATOM      1  C   UNL     1      37.042 -24.745 -12.193  0.00  0.00    +0.178 C 
ENDROOT
BRANCH   1   2
ATOM      2  O   UNL     1      36.003 -25.355 -11.427  0.00  0.00    -0.379 OA
ATOM      3  H   UNL     1      35.181 -24.853 -11.541  0.00  0.00    +0.211 HD
ENDBRANCH   1   2
BRANCH   1   4
ATOM      4  C   UNL     1      36.450 -23.744 -13.195  0.00  0.00    +0.239 C 
BRANCH   4   5
ATOM      5  O   UNL     1      37.520 -22.937 -13.680  0.00  0.00    -0.373 OA
ATOM      6  H   UNL     1      37.633 -22.167 -13.100  0.00  0.00    +0.211 HD
ENDBRANCH   4   5
BRANCH   4   8
ATOM      7  O   UNL     1      36.273 -24.364 -15.539  0.00  0.00    -0.248 OA
ATOM      8  C   UNL     1      35.816 -24.406 -14.404  0.00  0.00    +0.344 C 
BRANCH   8   9
ATOM      9  O   UNL     1      34.677 -25.073 -14.090  0.00  0.00    -0.478 OA
ATOM     10  H   UNL     1      34.610 -25.527 -13.273  0.00  0.00    +0.295 HD
ENDBRANCH   8   9
ENDBRANCH   4   8
ENDBRANCH   1   4
BRANCH   1  11
ATOM     11  C   UNL     1      37.881 -25.855 -12.816  0.00  0.00    +0.186 C 
BRANCH  11  12
ATOM     12  O   UNL     1      39.141 -25.367 -13.250  0.00  0.00    -0.271 OA
BRANCH  12  13
ATOM     13  P   UNL     1      39.581 -25.624 -14.786  0.00  0.00    +0.473 P 
ATOM     14  O   UNL     1      40.946 -26.222 -14.963  0.00  0.00    -0.227 OA
BRANCH  13  15
ATOM     15  O   UNL     1      39.359 -24.187 -15.494  0.00  0.00    -0.303 OA
ATOM     16  H   UNL     1      38.880 -23.599 -14.889  0.00  0.00    +0.222 HD
ENDBRANCH  13  15
BRANCH  13  17
ATOM     17  O   UNL     1      38.363 -26.516 -15.365  0.00  0.00    -0.303 OA
ATOM     18  H   UNL     1      38.650 -27.439 -15.447  0.00  0.00    +0.222 HD
ENDBRANCH  13  17
ENDBRANCH  12  13
ENDBRANCH  11  12
ENDBRANCH   1  11
TORSDOF 10
ENDMDL
MODEL 9
REMARK VINA RESULT:      -6.1      2.698      4.690
REMARK  Name = 446947
REMARK  10 active torsions:
REMARK  status: ('A' for Active; 'I' for Inactive)
REMARK    1  A    between atoms: C_1  and  O_2
REMARK    2  A    between atoms: C_1  and  C_4
REMARK    3  A    between atoms: C_1  and  C_11
REMARK    4  A    between atoms: C_4  and  O_5
REMARK    5  A    between atoms: C_4  and  C_8
REMARK    6  A    between atoms: C_8  and  O_9
REMARK    7  A    between atoms: C_11  and  O_12
REMARK    8  A    between atoms: O_12  and  P_13
REMARK    9  A    between atoms: P_13  and  O_15
REMARK   10  A    between atoms: P_13  and  O_17
REMARK                            x       y       z     vdW  Elec       q    Type
REMARK                         _______ _______ _______ _____ _____    ______ ____
ROOT
ATOM      1  C   UNL     1      34.946 -24.384 -12.712  0.00  0.00    +0.178 C 
ENDROOT
BRANCH   1   2
ATOM      2  O   UNL     1      33.783 -23.563 -12.828  0.00  0.00    -0.379 OA
ATOM      3  H   UNL     1      33.074 -23.928 -12.275  0.00  0.00    +0.211 HD
ENDBRANCH   1   2
BRANCH   1   4
ATOM      4  C   UNL     1      35.690 -24.075 -11.407  0.00  0.00    +0.239 C 
BRANCH   4   5
ATOM      5  O   UNL     1      35.362 -25.098 -10.471  0.00  0.00    -0.373 OA
ATOM      6  H   UNL     1      36.113 -25.244  -9.875  0.00  0.00    +0.211 HD
ENDBRANCH   4   5
BRANCH   4   8
ATOM      7  O   UNL     1      37.869 -25.085 -11.790  0.00  0.00    -0.248 OA
ATOM      8  C   UNL     1      37.200 -24.086 -11.557  0.00  0.00    +0.344 C 
BRANCH   8   9
ATOM      9  O   UNL     1      37.742 -22.850 -11.420  0.00  0.00    -0.478 OA
ATOM     10  H   UNL     1      37.720 -22.418 -10.588  0.00  0.00    +0.295 HD
ENDBRANCH   8   9
ENDBRANCH   4   8
ENDBRANCH   1   4
BRANCH   1  11
ATOM     11  C   UNL     1      35.774 -24.208 -13.980  0.00  0.00    +0.186 C 
BRANCH  11  12
ATOM     12  O   UNL     1      35.600 -25.302 -14.865  0.00  0.00    -0.271 OA
BRANCH  12  13
ATOM     13  P   UNL     1      36.807 -26.369 -15.021  0.00  0.00    +0.473 P 
ATOM     14  O   UNL     1      36.694 -27.287 -16.203  0.00  0.00    -0.227 OA
BRANCH  13  15
ATOM     15  O   UNL     1      36.860 -27.101 -13.580  0.00  0.00    -0.303 OA
ATOM     16  H   UNL     1      37.367 -27.926 -13.655  0.00  0.00    +0.222 HD
ENDBRANCH  13  15
BRANCH  13  17
ATOM     17  O   UNL     1      38.122 -25.429 -15.010  0.00  0.00    -0.303 OA
ATOM     18  H   UNL     1      38.906 -25.971 -14.833  0.00  0.00    +0.222 HD
ENDBRANCH  13  17
ENDBRANCH  12  13
ENDBRANCH  11  12
ENDBRANCH   1  11
TORSDOF 10
ENDMDL
