MODEL 1
REMARK VINA RESULT:      -7.0      0.000      0.000
REMARK  Name = 444306
REMARK  5 active torsions:
REMARK  status: ('A' for Active; 'I' for Inactive)
REMARK    1  A    between atoms: C_1  and  C_3
REMARK    2  A    between atoms: C_1  and  C_9
REMARK    3  A    between atoms: C_9  and  S_10
REMARK    4  A    between atoms: C_9  and  C_13
REMARK    5  A    between atoms: C_13  and  O_14
REMARK                            x       y       z     vdW  Elec       q    Type
REMARK                         _______ _______ _______ _____ _____    ______ ____
ROOT
ATOM      1  C   UNL     1      35.836 -18.822 -21.840  0.00  0.00    +0.048 C 
ENDROOT
BRANCH   1   3
ATOM      2  I   UNL     1      33.462 -23.112 -17.790  0.00  0.00    -0.043 I 
ATOM      3  C   UNL     1      35.280 -19.828 -20.889  0.00  0.00    -0.021 C 
ATOM      4  C   UNL     1      36.138 -20.660 -20.171  0.00  0.00    -0.004 C 
ATOM      5  C   UNL     1      33.899 -19.937 -20.719  0.00  0.00    -0.004 C 
ATOM      6  C   UNL     1      35.617 -21.601 -19.283  0.00  0.00    +0.005 C 
ATOM      7  C   UNL     1      33.378 -20.878 -19.831  0.00  0.00    +0.005 C 
ATOM      8  C   UNL     1      34.237 -21.710 -19.113  0.00  0.00    +0.030 C 
ENDBRANCH   1   3
BRANCH   1   9
ATOM      9  C   UNL     1      34.751 -18.034 -22.601  0.00  0.00    +0.147 C 
BRANCH   9  10
ATOM     10  S   UNL     1      34.676 -18.582 -24.345  0.00  0.00    -0.158 S 
ATOM     11  H   UNL     1      33.651 -19.462 -24.501  0.00  0.00    +0.103 HD
ENDBRANCH   9  10
BRANCH   9  13
ATOM     12  O   UNL     1      34.728 -15.773 -21.682  0.00  0.00    -0.249 OA
ATOM     13  C   UNL     1      35.042 -16.544 -22.581  0.00  0.00    +0.324 C 
BRANCH  13  14
ATOM     14  O   UNL     1      35.672 -16.129 -23.712  0.00  0.00    -0.480 OA
ATOM     15  H   UNL     1      36.598 -16.237 -23.799  0.00  0.00    +0.295 HD
ENDBRANCH  13  14
ENDBRANCH   9  13
ENDBRANCH   1   9
TORSDOF 5
ENDMDL
MODEL 2
REMARK VINA RESULT:      -7.0      0.151      1.348
REMARK  Name = 444306
REMARK  5 active torsions:
REMARK  status: ('A' for Active; 'I' for Inactive)
REMARK    1  A    between atoms: C_1  and  C_3
REMARK    2  A    between atoms: C_1  and  C_9
REMARK    3  A    between atoms: C_9  and  S_10
REMARK    4  A    between atoms: C_9  and  C_13
REMARK    5  A    between atoms: C_13  and  O_14
REMARK                            x       y       z     vdW  Elec       q    Type
REMARK                         _______ _______ _______ _____ _____    ______ ____
ROOT
ATOM      1  C   UNL     1      35.770 -18.754 -21.910  0.00  0.00    +0.048 C 
ENDROOT
BRANCH   1   3
ATOM      2  I   UNL     1      33.619 -23.138 -17.837  0.00  0.00    -0.043 I 
ATOM      3  C   UNL     1      35.264 -19.782 -20.955  0.00  0.00    -0.021 C 
ATOM      4  C   UNL     1      33.893 -19.949 -20.770  0.00  0.00    -0.004 C 
ATOM      5  C   UNL     1      36.166 -20.578 -20.247  0.00  0.00    -0.004 C 
ATOM      6  C   UNL     1      33.422 -20.911 -19.876  0.00  0.00    +0.005 C 
ATOM      7  C   UNL     1      35.695 -21.540 -19.354  0.00  0.00    +0.005 C 
ATOM      8  C   UNL     1      34.322 -21.706 -19.168  0.00  0.00    +0.030 C 
ENDBRANCH   1   3
BRANCH   1   9
ATOM      9  C   UNL     1      34.647 -17.996 -22.646  0.00  0.00    +0.147 C 
BRANCH   9  10
ATOM     10  S   UNL     1      34.565 -18.525 -24.395  0.00  0.00    -0.158 S 
ATOM     11  H   UNL     1      35.675 -19.245 -24.704  0.00  0.00    +0.103 HD
ENDBRANCH   9  10
BRANCH   9  13
ATOM     12  O   UNL     1      34.392 -15.720 -21.802  0.00  0.00    -0.249 OA
ATOM     13  C   UNL     1      34.885 -16.497 -22.611  0.00  0.00    +0.324 C 
BRANCH  13  14
ATOM     14  O   UNL     1      35.694 -16.082 -23.621  0.00  0.00    -0.480 OA
ATOM     15  H   UNL     1      36.587 -15.860 -23.445  0.00  0.00    +0.295 HD
ENDBRANCH  13  14
ENDBRANCH   9  13
ENDBRANCH   1   9
TORSDOF 5
ENDMDL
MODEL 3
REMARK VINA RESULT:      -6.7      5.324      6.814
REMARK  Name = 444306
REMARK  5 active torsions:
REMARK  status: ('A' for Active; 'I' for Inactive)
REMARK    1  A    between atoms: C_1  and  C_3
REMARK    2  A    between atoms: C_1  and  C_9
REMARK    3  A    between atoms: C_9  and  S_10
REMARK    4  A    between atoms: C_9  and  C_13
REMARK    5  A    between atoms: C_13  and  O_14
REMARK                            x       y       z     vdW  Elec       q    Type
REMARK                         _______ _______ _______ _____ _____    ______ ____
ROOT
ATOM      1  C   UNL     1      33.622 -23.258 -18.282  0.00  0.00    +0.048 C 
ENDROOT
BRANCH   1   3
ATOM      2  I   UNL     1      35.530 -18.350 -21.847  0.00  0.00    -0.043 I 
ATOM      3  C   UNL     1      34.068 -22.106 -19.118  0.00  0.00    -0.021 C 
ATOM      4  C   UNL     1      33.127 -21.242 -19.676  0.00  0.00    -0.004 C 
ATOM      5  C   UNL     1      35.429 -21.894 -19.341  0.00  0.00    -0.004 C 
ATOM      6  C   UNL     1      33.547 -20.165 -20.458  0.00  0.00    +0.005 C 
ATOM      7  C   UNL     1      35.848 -20.818 -20.123  0.00  0.00    +0.005 C 
ATOM      8  C   UNL     1      34.906 -19.953 -20.682  0.00  0.00    +0.030 C 
ENDBRANCH   1   3
BRANCH   1   9
ATOM      9  C   UNL     1      33.351 -22.880 -16.812  0.00  0.00    +0.147 C 
BRANCH   9  10
ATOM     10  S   UNL     1      34.509 -23.764 -15.705  0.00  0.00    -0.158 S 
ATOM     11  H   UNL     1      35.198 -22.863 -14.956  0.00  0.00    +0.103 HD
ENDBRANCH   9  10
BRANCH   9  13
ATOM     12  O   UNL     1      31.627 -24.076 -15.565  0.00  0.00    -0.249 OA
ATOM     13  C   UNL     1      31.933 -23.241 -16.406  0.00  0.00    +0.324 C 
BRANCH  13  14
ATOM     14  O   UNL     1      31.004 -22.550 -17.120  0.00  0.00    -0.480 OA
ATOM     15  H   UNL     1      31.123 -22.418 -18.039  0.00  0.00    +0.295 HD
ENDBRANCH  13  14
ENDBRANCH   9  13
ENDBRANCH   1   9
TORSDOF 5
ENDMDL
MODEL 4
REMARK VINA RESULT:      -6.5      1.486      1.561
REMARK  Name = 444306
REMARK  5 active torsions:
REMARK  status: ('A' for Active; 'I' for Inactive)
REMARK    1  A    between atoms: C_1  and  C_3
REMARK    2  A    between atoms: C_1  and  C_9
REMARK    3  A    between atoms: C_9  and  S_10
REMARK    4  A    between atoms: C_9  and  C_13
REMARK    5  A    between atoms: C_13  and  O_14
REMARK                            x       y       z     vdW  Elec       q    Type
REMARK                         _______ _______ _______ _____ _____    ______ ____
ROOT
ATOM      1  C   UNL     1      34.389 -18.498 -22.608  0.00  0.00    +0.048 C 
ENDROOT
BRANCH   1   3
ATOM      2  I   UNL     1      33.960 -22.811 -17.955  0.00  0.00    -0.043 I 
ATOM      3  C   UNL     1      34.290 -19.509 -21.516  0.00  0.00    -0.021 C 
ATOM      4  C   UNL     1      35.441 -20.123 -21.025  0.00  0.00    -0.004 C 
ATOM      5  C   UNL     1      33.042 -19.842 -20.987  0.00  0.00    -0.004 C 
ATOM      6  C   UNL     1      35.346 -21.069 -20.004  0.00  0.00    +0.005 C 
ATOM      7  C   UNL     1      32.948 -20.788 -19.965  0.00  0.00    +0.005 C 
ATOM      8  C   UNL     1      34.100 -21.402 -19.475  0.00  0.00    +0.030 C 
ENDBRANCH   1   3
BRANCH   1   9
ATOM      9  C   UNL     1      35.188 -17.241 -22.208  0.00  0.00    +0.147 C 
BRANCH   9  10
ATOM     10  S   UNL     1      34.452 -16.467 -20.723  0.00  0.00    -0.158 S 
ATOM     11  H   UNL     1      35.326 -15.567 -20.201  0.00  0.00    +0.103 HD
ENDBRANCH   9  10
BRANCH   9  13
ATOM     12  O   UNL     1      34.975 -15.019 -23.196  0.00  0.00    -0.249 OA
ATOM     13  C   UNL     1      35.193 -16.217 -23.329  0.00  0.00    +0.324 C 
BRANCH  13  14
ATOM     14  O   UNL     1      35.432 -16.784 -24.541  0.00  0.00    -0.480 OA
ATOM     15  H   UNL     1      36.267 -17.168 -24.722  0.00  0.00    +0.295 HD
ENDBRANCH  13  14
ENDBRANCH   9  13
ENDBRANCH   1   9
TORSDOF 5
ENDMDL
MODEL 5
REMARK VINA RESULT:      -6.4      1.443      2.000
REMARK  Name = 444306
REMARK  5 active torsions:
REMARK  status: ('A' for Active; 'I' for Inactive)
REMARK    1  A    between atoms: C_1  and  C_3
REMARK    2  A    between atoms: C_1  and  C_9
REMARK    3  A    between atoms: C_9  and  S_10
REMARK    4  A    between atoms: C_9  and  C_13
REMARK    5  A    between atoms: C_13  and  O_14
REMARK                            x       y       z     vdW  Elec       q    Type
REMARK                         _______ _______ _______ _____ _____    ______ ____
ROOT
ATOM      1  C   UNL     1      34.542 -18.506 -22.543  0.00  0.00    +0.048 C 
ENDROOT
BRANCH   1   3
ATOM      2  I   UNL     1      33.775 -22.858 -17.970  0.00  0.00    -0.043 I 
ATOM      3  C   UNL     1      34.361 -19.527 -21.471  0.00  0.00    -0.021 C 
ATOM      4  C   UNL     1      33.080 -19.860 -21.032  0.00  0.00    -0.004 C 
ATOM      5  C   UNL     1      35.475 -20.148 -20.906  0.00  0.00    -0.004 C 
ATOM      6  C   UNL     1      32.912 -20.815 -20.029  0.00  0.00    +0.005 C 
ATOM      7  C   UNL     1      35.307 -21.103 -19.903  0.00  0.00    +0.005 C 
ATOM      8  C   UNL     1      34.025 -21.436 -19.464  0.00  0.00    +0.030 C 
ENDBRANCH   1   3
BRANCH   1   9
ATOM      9  C   UNL     1      34.916 -17.111 -22.004  0.00  0.00    +0.147 C 
BRANCH   9  10
ATOM     10  S   UNL     1      33.577 -16.462 -20.938  0.00  0.00    -0.158 S 
ATOM     11  H   UNL     1      32.807 -15.599 -21.652  0.00  0.00    +0.103 HD
ENDBRANCH   9  10
BRANCH   9  13
ATOM     12  O   UNL     1      34.937 -14.922 -23.083  0.00  0.00    -0.249 OA
ATOM     13  C   UNL     1      35.141 -16.128 -23.139  0.00  0.00    +0.324 C 
BRANCH  13  14
ATOM     14  O   UNL     1      35.568 -16.744 -24.273  0.00  0.00    -0.480 OA
ATOM     15  H   UNL     1      35.542 -16.289 -25.092  0.00  0.00    +0.295 HD
ENDBRANCH  13  14
ENDBRANCH   9  13
ENDBRANCH   1   9
TORSDOF 5
ENDMDL
MODEL 6
REMARK VINA RESULT:      -6.4      4.223      5.844
REMARK  Name = 444306
REMARK  5 active torsions:
REMARK  status: ('A' for Active; 'I' for Inactive)
REMARK    1  A    between atoms: C_1  and  C_3
REMARK    2  A    between atoms: C_1  and  C_9
REMARK    3  A    between atoms: C_9  and  S_10
REMARK    4  A    between atoms: C_9  and  C_13
REMARK    5  A    between atoms: C_13  and  O_14
REMARK                            x       y       z     vdW  Elec       q    Type
REMARK                         _______ _______ _______ _____ _____    ______ ____
ROOT
ATOM      1  C   UNL     1      35.834 -18.553 -21.363  0.00  0.00    +0.048 C 
ENDROOT
BRANCH   1   3
ATOM      2  I   UNL     1      33.280 -14.917 -25.912  0.00  0.00    -0.043 I 
ATOM      3  C   UNL     1      35.235 -17.702 -22.431  0.00  0.00    -0.021 C 
ATOM      4  C   UNL     1      35.189 -18.160 -23.747  0.00  0.00    -0.004 C 
ATOM      5  C   UNL     1      34.720 -16.445 -22.112  0.00  0.00    -0.004 C 
ATOM      6  C   UNL     1      34.629 -17.362 -24.745  0.00  0.00    +0.005 C 
ATOM      7  C   UNL     1      34.160 -15.647 -23.109  0.00  0.00    +0.005 C 
ATOM      8  C   UNL     1      34.115 -16.106 -24.426  0.00  0.00    +0.030 C 
ENDBRANCH   1   3
BRANCH   1   9
ATOM      9  C   UNL     1      35.167 -19.938 -21.237  0.00  0.00    +0.147 C 
BRANCH   9  10
ATOM     10  S   UNL     1      33.392 -19.752 -20.834  0.00  0.00    -0.158 S 
ATOM     11  H   UNL     1      33.262 -19.173 -19.611  0.00  0.00    +0.103 HD
ENDBRANCH   9  10
BRANCH   9  13
ATOM     12  O   UNL     1      35.537 -21.920 -19.861  0.00  0.00    -0.249 OA
ATOM     13  C   UNL     1      35.821 -20.762 -20.142  0.00  0.00    +0.324 C 
BRANCH  13  14
ATOM     14  O   UNL     1      36.757 -20.054 -19.457  0.00  0.00    -0.480 OA
ATOM     15  H   UNL     1      37.536 -19.765 -19.890  0.00  0.00    +0.295 HD
ENDBRANCH  13  14
ENDBRANCH   9  13
ENDBRANCH   1   9
TORSDOF 5
ENDMDL
MODEL 7
REMARK VINA RESULT:      -6.4      4.260      5.975
REMARK  Name = 444306
REMARK  5 active torsions:
REMARK  status: ('A' for Active; 'I' for Inactive)
REMARK    1  A    between atoms: C_1  and  C_3
REMARK    2  A    between atoms: C_1  and  C_9
REMARK    3  A    between atoms: C_9  and  S_10
REMARK    4  A    between atoms: C_9  and  C_13
REMARK    5  A    between atoms: C_13  and  O_14
REMARK                            x       y       z     vdW  Elec       q    Type
REMARK                         _______ _______ _______ _____ _____    ______ ____
ROOT
ATOM      1  C   UNL     1      35.521 -18.148 -21.357  0.00  0.00    +0.048 C 
ENDROOT
BRANCH   1   3
ATOM      2  I   UNL     1      33.148 -14.703 -26.147  0.00  0.00    -0.043 I 
ATOM      3  C   UNL     1      34.965 -17.339 -22.480  0.00  0.00    -0.021 C 
ATOM      4  C   UNL     1      34.417 -16.082 -22.230  0.00  0.00    -0.004 C 
ATOM      5  C   UNL     1      34.992 -17.842 -23.781  0.00  0.00    -0.004 C 
ATOM      6  C   UNL     1      33.897 -15.326 -23.282  0.00  0.00    +0.005 C 
ATOM      7  C   UNL     1      34.472 -17.087 -24.832  0.00  0.00    +0.005 C 
ATOM      8  C   UNL     1      33.924 -15.828 -24.582  0.00  0.00    +0.030 C 
ENDBRANCH   1   3
BRANCH   1   9
ATOM      9  C   UNL     1      35.047 -19.615 -21.366  0.00  0.00    +0.147 C 
BRANCH   9  10
ATOM     10  S   UNL     1      33.281 -19.715 -20.897  0.00  0.00    -0.158 S 
ATOM     11  H   UNL     1      32.791 -20.938 -21.231  0.00  0.00    +0.103 HD
ENDBRANCH   9  10
BRANCH   9  13
ATOM     12  O   UNL     1      35.614 -21.621 -20.094  0.00  0.00    -0.249 OA
ATOM     13  C   UNL     1      35.849 -20.455 -20.387  0.00  0.00    +0.324 C 
BRANCH  13  14
ATOM     14  O   UNL     1      36.864 -19.751 -19.819  0.00  0.00    -0.480 OA
ATOM     15  H   UNL     1      37.334 -20.110 -19.093  0.00  0.00    +0.295 HD
ENDBRANCH  13  14
ENDBRANCH   9  13
ENDBRANCH   1   9
TORSDOF 5
ENDMDL
MODEL 8
REMARK VINA RESULT:      -6.4      4.228      5.681
REMARK  Name = 444306
REMARK  5 active torsions:
REMARK  status: ('A' for Active; 'I' for Inactive)
REMARK    1  A    between atoms: C_1  and  C_3
REMARK    2  A    between atoms: C_1  and  C_9
REMARK    3  A    between atoms: C_9  and  S_10
REMARK    4  A    between atoms: C_9  and  C_13
REMARK    5  A    between atoms: C_13  and  O_14
REMARK                            x       y       z     vdW  Elec       q    Type
REMARK                         _______ _______ _______ _____ _____    ______ ____
ROOT
ATOM      1  C   UNL     1      35.151 -19.879 -21.695  0.00  0.00    +0.048 C 
ENDROOT
BRANCH   1   3
ATOM      2  I   UNL     1      33.793 -13.939 -23.514  0.00  0.00    -0.043 I 
ATOM      3  C   UNL     1      34.832 -18.486 -22.123  0.00  0.00    -0.021 C 
ATOM      4  C   UNL     1      34.801 -18.161 -23.478  0.00  0.00    -0.004 C 
ATOM      5  C   UNL     1      34.564 -17.508 -21.165  0.00  0.00    -0.004 C 
ATOM      6  C   UNL     1      34.503 -16.858 -23.877  0.00  0.00    +0.005 C 
ATOM      7  C   UNL     1      34.266 -16.205 -21.563  0.00  0.00    +0.005 C 
ATOM      8  C   UNL     1      34.236 -15.880 -22.920  0.00  0.00    +0.030 C 
ENDBRANCH   1   3
BRANCH   1   9
ATOM      9  C   UNL     1      34.620 -20.225 -20.289  0.00  0.00    +0.147 C 
BRANCH   9  10
ATOM     10  S   UNL     1      35.706 -21.459 -19.486  0.00  0.00    -0.158 S 
ATOM     11  H   UNL     1      35.314 -21.638 -18.197  0.00  0.00    +0.103 HD
ENDBRANCH   9  10
BRANCH   9  13
ATOM     12  O   UNL     1      32.243 -20.235 -20.844  0.00  0.00    -0.249 OA
ATOM     13  C   UNL     1      33.216 -20.799 -20.361  0.00  0.00    +0.324 C 
BRANCH  13  14
ATOM     14  O   UNL     1      33.134 -22.027 -19.782  0.00  0.00    -0.480 OA
ATOM     15  H   UNL     1      32.417 -22.230 -19.214  0.00  0.00    +0.295 HD
ENDBRANCH  13  14
ENDBRANCH   9  13
ENDBRANCH   1   9
TORSDOF 5
ENDMDL
MODEL 9
REMARK VINA RESULT:      -6.4      8.242      9.423
REMARK  Name = 444306
REMARK  5 active torsions:
REMARK  status: ('A' for Active; 'I' for Inactive)
REMARK    1  A    between atoms: C_1  and  C_3
REMARK    2  A    between atoms: C_1  and  C_9
REMARK    3  A    between atoms: C_9  and  S_10
REMARK    4  A    between atoms: C_9  and  C_13
REMARK    5  A    between atoms: C_13  and  O_14
REMARK                            x       y       z     vdW  Elec       q    Type
REMARK                         _______ _______ _______ _____ _____    ______ ____
ROOT
ATOM      1  C   UNL     1      36.195 -24.353 -15.121  0.00  0.00    +0.048 C 
ENDROOT
BRANCH   1   3
ATOM      2  I   UNL     1      29.959 -23.195 -15.574  0.00  0.00    -0.043 I 
ATOM      3  C   UNL     1      34.732 -24.082 -15.226  0.00  0.00    -0.021 C 
ATOM      4  C   UNL     1      33.888 -24.376 -14.156  0.00  0.00    -0.004 C 
ATOM      5  C   UNL     1      34.208 -23.533 -16.397  0.00  0.00    -0.004 C 
ATOM      6  C   UNL     1      32.520 -24.121 -14.256  0.00  0.00    +0.005 C 
ATOM      7  C   UNL     1      32.840 -23.278 -16.497  0.00  0.00    +0.005 C 
ATOM      8  C   UNL     1      31.996 -23.573 -15.426  0.00  0.00    +0.030 C 
ENDBRANCH   1   3
BRANCH   1   9
ATOM      9  C   UNL     1      36.530 -25.568 -14.232  0.00  0.00    +0.147 C 
BRANCH   9  10
ATOM     10  S   UNL     1      37.495 -25.038 -12.771  0.00  0.00    -0.158 S 
ATOM     11  H   UNL     1      38.155 -26.107 -12.251  0.00  0.00    +0.103 HD
ENDBRANCH   9  10
BRANCH   9  13
ATOM     12  O   UNL     1      38.463 -26.988 -14.685  0.00  0.00    -0.249 OA
ATOM     13  C   UNL     1      37.346 -26.596 -14.996  0.00  0.00    +0.324 C 
BRANCH  13  14
ATOM     14  O   UNL     1      36.709 -27.025 -16.118  0.00  0.00    -0.480 OA
ATOM     15  H   UNL     1      37.011 -26.752 -16.962  0.00  0.00    +0.295 HD
ENDBRANCH  13  14
ENDBRANCH   9  13
ENDBRANCH   1   9
TORSDOF 5
ENDMDL
