MODEL 1
REMARK VINA RESULT:      -6.1      0.000      0.000
REMARK  Name = 31343
REMARK  8 active torsions:
REMARK  status: ('A' for Active; 'I' for Inactive)
REMARK    1  A    between atoms: C_1  and  C_5
REMARK    2  A    between atoms: C_1  and  P_6
REMARK    3  A    between atoms: C_1  and  O_12
REMARK    4  A    between atoms: P_6  and  O_8
REMARK    5  A    between atoms: P_6  and  O_10
REMARK    6  A    between atoms: O_12  and  C_14
REMARK    7  A    between atoms: C_14  and  C_15
REMARK    8  A    between atoms: C_15  and  C_16
REMARK                            x       y       z     vdW  Elec       q    Type
REMARK                         _______ _______ _______ _____ _____    ______ ____
ROOT
ATOM      1  C   UNL     1      33.758 -23.237 -15.604  0.00  0.00    +0.313 C 
ENDROOT
BRANCH   1   5
ATOM      2 CL   UNL     1      32.136 -25.183 -14.498  0.00  0.00    -0.078 Cl
ATOM      3 CL   UNL     1      31.827 -22.361 -13.874  0.00  0.00    -0.078 Cl
ATOM      4 CL   UNL     1      31.184 -23.333 -16.521  0.00  0.00    -0.078 Cl
ATOM      5  C   UNL     1      32.321 -23.526 -15.141  0.00  0.00    +0.246 C 
ENDBRANCH   1   5
BRANCH   1   6
ATOM      6  P   UNL     1      35.099 -24.123 -14.787  0.00  0.00    +0.387 P 
ATOM      7  O   UNL     1      35.450 -25.453 -15.388  0.00  0.00    -0.254 OA
BRANCH   6   8
ATOM      8  O   UNL     1      36.321 -23.060 -14.750  0.00  0.00    -0.289 OA
ATOM      9  C   UNL     1      37.580 -23.454 -15.266  0.00  0.00    +0.184 C 
ENDBRANCH   6   8
BRANCH   6  10
ATOM     10  O   UNL     1      34.645 -24.191 -13.232  0.00  0.00    -0.289 OA
ATOM     11  C   UNL     1      35.587 -24.595 -12.255  0.00  0.00    +0.184 C 
ENDBRANCH   6  10
ENDBRANCH   1   6
BRANCH   1  12
ATOM     12  O   UNL     1      33.905 -23.617 -16.990  0.00  0.00    -0.436 OA
BRANCH  12  14
ATOM     13  O   UNL     1      35.644 -22.384 -17.885  0.00  0.00    -0.250 OA
ATOM     14  C   UNL     1      34.471 -22.731 -17.856  0.00  0.00    +0.318 C 
BRANCH  14  15
ATOM     15  C   UNL     1      33.424 -22.218 -18.813  0.00  0.00    +0.110 C 
BRANCH  15  16
ATOM     16  C   UNL     1      33.983 -21.175 -19.775  0.00  0.00    +0.012 C 
ATOM     17  C   UNL     1      32.909 -20.244 -20.318  0.00  0.00    +0.001 C 
ENDBRANCH  15  16
ENDBRANCH  14  15
ENDBRANCH  12  14
ENDBRANCH   1  12
TORSDOF 8
ENDMDL
MODEL 2
REMARK VINA RESULT:      -6.0      3.472      4.823
REMARK  Name = 31343
REMARK  8 active torsions:
REMARK  status: ('A' for Active; 'I' for Inactive)
REMARK    1  A    between atoms: C_1  and  C_5
REMARK    2  A    between atoms: C_1  and  P_6
REMARK    3  A    between atoms: C_1  and  O_12
REMARK    4  A    between atoms: P_6  and  O_8
REMARK    5  A    between atoms: P_6  and  O_10
REMARK    6  A    between atoms: O_12  and  C_14
REMARK    7  A    between atoms: C_14  and  C_15
REMARK    8  A    between atoms: C_15  and  C_16
REMARK                            x       y       z     vdW  Elec       q    Type
REMARK                         _______ _______ _______ _____ _____    ______ ____
ROOT
ATOM      1  C   UNL     1      35.979 -23.830 -13.572  0.00  0.00    +0.313 C 
ENDROOT
BRANCH   1   5
ATOM      2 CL   UNL     1      35.441 -24.274 -10.897  0.00  0.00    -0.078 Cl
ATOM      3 CL   UNL     1      37.585 -25.646 -12.302  0.00  0.00    -0.078 Cl
ATOM      4 CL   UNL     1      37.780 -22.805 -11.789  0.00  0.00    -0.078 Cl
ATOM      5  C   UNL     1      36.638 -24.127 -12.216  0.00  0.00    +0.246 C 
ENDBRANCH   1   5
BRANCH   1   6
ATOM      6  P   UNL     1      36.921 -24.195 -15.065  0.00  0.00    +0.387 P 
ATOM      7  O   UNL     1      38.413 -24.194 -14.898  0.00  0.00    -0.254 OA
BRANCH   6   8
ATOM      8  O   UNL     1      36.306 -25.596 -15.597  0.00  0.00    -0.289 OA
ATOM      9  C   UNL     1      37.026 -26.791 -15.350  0.00  0.00    +0.184 C 
ENDBRANCH   6   8
BRANCH   6  10
ATOM     10  O   UNL     1      36.369 -23.131 -16.156  0.00  0.00    -0.289 OA
ATOM     11  C   UNL     1      37.131 -21.969 -16.433  0.00  0.00    +0.184 C 
ENDBRANCH   6  10
ENDBRANCH   1   6
BRANCH   1  12
ATOM     12  O   UNL     1      34.793 -24.642 -13.721  0.00  0.00    -0.436 OA
BRANCH  12  14
ATOM     13  O   UNL     1      32.886 -23.676 -12.839  0.00  0.00    -0.250 OA
ATOM     14  C   UNL     1      33.580 -24.025 -13.785  0.00  0.00    +0.318 C 
BRANCH  14  15
ATOM     15  C   UNL     1      33.191 -23.817 -15.227  0.00  0.00    +0.110 C 
BRANCH  15  16
ATOM     16  C   UNL     1      31.871 -23.067 -15.367  0.00  0.00    +0.012 C 
ATOM     17  C   UNL     1      30.711 -23.985 -15.721  0.00  0.00    +0.001 C 
ENDBRANCH  15  16
ENDBRANCH  14  15
ENDBRANCH  12  14
ENDBRANCH   1  12
TORSDOF 8
ENDMDL
MODEL 3
REMARK VINA RESULT:      -6.0      8.361     10.286
REMARK  Name = 31343
REMARK  8 active torsions:
REMARK  status: ('A' for Active; 'I' for Inactive)
REMARK    1  A    between atoms: C_1  and  C_5
REMARK    2  A    between atoms: C_1  and  P_6
REMARK    3  A    between atoms: C_1  and  O_12
REMARK    4  A    between atoms: P_6  and  O_8
REMARK    5  A    between atoms: P_6  and  O_10
REMARK    6  A    between atoms: O_12  and  C_14
REMARK    7  A    between atoms: C_14  and  C_15
REMARK    8  A    between atoms: C_15  and  C_16
REMARK                            x       y       z     vdW  Elec       q    Type
REMARK                         _______ _______ _______ _____ _____    ______ ____
ROOT
ATOM      1  C   UNL     1      34.319 -17.072 -22.729  0.00  0.00    +0.313 C 
ENDROOT
BRANCH   1   5
ATOM      2 CL   UNL     1      36.654 -18.336 -21.962  0.00  0.00    -0.078 Cl
ATOM      3 CL   UNL     1      34.041 -19.187 -21.014  0.00  0.00    -0.078 Cl
ATOM      4 CL   UNL     1      34.759 -19.552 -23.792  0.00  0.00    -0.078 Cl
ATOM      5  C   UNL     1      34.921 -18.443 -22.386  0.00  0.00    +0.246 C 
ENDBRANCH   1   5
BRANCH   1   6
ATOM      6  P   UNL     1      34.318 -15.807 -21.444  0.00  0.00    +0.387 P 
ATOM      7  O   UNL     1      35.015 -16.186 -20.170  0.00  0.00    -0.254 OA
BRANCH   6   8
ATOM      8  O   UNL     1      34.920 -14.492 -22.173  0.00  0.00    -0.289 OA
ATOM      9  C   UNL     1      34.036 -13.436 -22.506  0.00  0.00    +0.184 C 
ENDBRANCH   6   8
BRANCH   6  10
ATOM     10  O   UNL     1      32.753 -15.424 -21.262  0.00  0.00    -0.289 OA
ATOM     11  C   UNL     1      31.917 -16.282 -20.506  0.00  0.00    +0.184 C 
ENDBRANCH   6  10
ENDBRANCH   1   6
BRANCH   1  12
ATOM     12  O   UNL     1      35.081 -16.462 -23.794  0.00  0.00    -0.436 OA
BRANCH  12  14
ATOM     13  O   UNL     1      34.883 -17.092 -26.010  0.00  0.00    -0.250 OA
ATOM     14  C   UNL     1      34.542 -16.421 -25.045  0.00  0.00    +0.318 C 
BRANCH  14  15
ATOM     15  C   UNL     1      33.428 -15.406 -25.085  0.00  0.00    +0.110 C 
BRANCH  15  16
ATOM     16  C   UNL     1      32.998 -15.076 -26.510  0.00  0.00    +0.012 C 
ATOM     17  C   UNL     1      33.223 -13.614 -26.866  0.00  0.00    +0.001 C 
ENDBRANCH  15  16
ENDBRANCH  14  15
ENDBRANCH  12  14
ENDBRANCH   1  12
TORSDOF 8
ENDMDL
MODEL 4
REMARK VINA RESULT:      -6.0      3.603      4.857
REMARK  Name = 31343
REMARK  8 active torsions:
REMARK  status: ('A' for Active; 'I' for Inactive)
REMARK    1  A    between atoms: C_1  and  C_5
REMARK    2  A    between atoms: C_1  and  P_6
REMARK    3  A    between atoms: C_1  and  O_12
REMARK    4  A    between atoms: P_6  and  O_8
REMARK    5  A    between atoms: P_6  and  O_10
REMARK    6  A    between atoms: O_12  and  C_14
REMARK    7  A    between atoms: C_14  and  C_15
REMARK    8  A    between atoms: C_15  and  C_16
REMARK                            x       y       z     vdW  Elec       q    Type
REMARK                         _______ _______ _______ _____ _____    ______ ____
ROOT
ATOM      1  C   UNL     1      36.011 -24.012 -13.601  0.00  0.00    +0.313 C 
ENDROOT
BRANCH   1   5
ATOM      2 CL   UNL     1      37.510 -25.878 -12.219  0.00  0.00    -0.078 Cl
ATOM      3 CL   UNL     1      37.808 -23.018 -11.791  0.00  0.00    -0.078 Cl
ATOM      4 CL   UNL     1      35.382 -24.357 -10.962  0.00  0.00    -0.078 Cl
ATOM      5  C   UNL     1      36.651 -24.311 -12.236  0.00  0.00    +0.246 C 
ENDBRANCH   1   5
BRANCH   1   6
ATOM      6  P   UNL     1      36.927 -24.481 -15.081  0.00  0.00    +0.387 P 
ATOM      7  O   UNL     1      36.741 -25.902 -15.528  0.00  0.00    -0.254 OA
BRANCH   6   8
ATOM      8  O   UNL     1      36.508 -23.370 -16.183  0.00  0.00    -0.289 OA
ATOM      9  C   UNL     1      37.209 -22.139 -16.207  0.00  0.00    +0.184 C 
ENDBRANCH   6   8
BRANCH   6  10
ATOM     10  O   UNL     1      38.462 -24.082 -14.744  0.00  0.00    -0.289 OA
ATOM     11  C   UNL     1      39.484 -25.040 -14.948  0.00  0.00    +0.184 C 
ENDBRANCH   6  10
ENDBRANCH   1   6
BRANCH   1  12
ATOM     12  O   UNL     1      34.775 -24.749 -13.727  0.00  0.00    -0.436 OA
BRANCH  12  14
ATOM     13  O   UNL     1      33.625 -23.065 -14.816  0.00  0.00    -0.250 OA
ATOM     14  C   UNL     1      33.660 -24.093 -14.151  0.00  0.00    +0.318 C 
BRANCH  14  15
ATOM     15  C   UNL     1      32.429 -24.826 -13.682  0.00  0.00    +0.110 C 
BRANCH  15  16
ATOM     16  C   UNL     1      31.142 -24.140 -14.127  0.00  0.00    +0.012 C 
ATOM     17  C   UNL     1      30.122 -25.117 -14.692  0.00  0.00    +0.001 C 
ENDBRANCH  15  16
ENDBRANCH  14  15
ENDBRANCH  12  14
ENDBRANCH   1  12
TORSDOF 8
ENDMDL
MODEL 5
REMARK VINA RESULT:      -5.9      6.939      9.835
REMARK  Name = 31343
REMARK  8 active torsions:
REMARK  status: ('A' for Active; 'I' for Inactive)
REMARK    1  A    between atoms: C_1  and  C_5
REMARK    2  A    between atoms: C_1  and  P_6
REMARK    3  A    between atoms: C_1  and  O_12
REMARK    4  A    between atoms: P_6  and  O_8
REMARK    5  A    between atoms: P_6  and  O_10
REMARK    6  A    between atoms: O_12  and  C_14
REMARK    7  A    between atoms: C_14  and  C_15
REMARK    8  A    between atoms: C_15  and  C_16
REMARK                            x       y       z     vdW  Elec       q    Type
REMARK                         _______ _______ _______ _____ _____    ______ ____
ROOT
ATOM      1  C   UNL     1      33.728 -17.023 -22.210  0.00  0.00    +0.313 C 
ENDROOT
BRANCH   1   5
ATOM      2 CL   UNL     1      32.834 -14.425 -22.511  0.00  0.00    -0.078 Cl
ATOM      3 CL   UNL     1      31.875 -16.165 -20.387  0.00  0.00    -0.078 Cl
ATOM      4 CL   UNL     1      34.608 -15.218 -20.355  0.00  0.00    -0.078 Cl
ATOM      5  C   UNL     1      33.279 -15.777 -21.430  0.00  0.00    +0.246 C 
ENDBRANCH   1   5
BRANCH   1   6
ATOM      6  P   UNL     1      34.742 -16.777 -23.680  0.00  0.00    +0.387 P 
ATOM      7  O   UNL     1      35.680 -15.606 -23.624  0.00  0.00    -0.254 OA
BRANCH   6   8
ATOM      8  O   UNL     1      35.467 -18.207 -23.914  0.00  0.00    -0.289 OA
ATOM      9  C   UNL     1      34.767 -19.215 -24.621  0.00  0.00    +0.184 C 
ENDBRANCH   6   8
BRANCH   6  10
ATOM     10  O   UNL     1      33.673 -16.720 -24.898  0.00  0.00    -0.289 OA
ATOM     11  C   UNL     1      33.623 -15.565 -25.716  0.00  0.00    +0.184 C 
ENDBRANCH   6  10
ENDBRANCH   1   6
BRANCH   1  12
ATOM     12  O   UNL     1      34.561 -17.848 -21.366  0.00  0.00    -0.436 OA
BRANCH  12  14
ATOM     13  O   UNL     1      32.940 -19.389 -20.782  0.00  0.00    -0.250 OA
ATOM     14  C   UNL     1      34.104 -19.075 -20.991  0.00  0.00    +0.318 C 
BRANCH  14  15
ATOM     15  C   UNL     1      35.263 -20.033 -20.867  0.00  0.00    +0.110 C 
BRANCH  15  16
ATOM     16  C   UNL     1      35.020 -21.098 -19.804  0.00  0.00    +0.012 C 
ATOM     17  C   UNL     1      36.276 -21.430 -19.011  0.00  0.00    +0.001 C 
ENDBRANCH  15  16
ENDBRANCH  14  15
ENDBRANCH  12  14
ENDBRANCH   1  12
TORSDOF 8
ENDMDL
MODEL 6
REMARK VINA RESULT:      -5.9      2.593      3.870
REMARK  Name = 31343
REMARK  8 active torsions:
REMARK  status: ('A' for Active; 'I' for Inactive)
REMARK    1  A    between atoms: C_1  and  C_5
REMARK    2  A    between atoms: C_1  and  P_6
REMARK    3  A    between atoms: C_1  and  O_12
REMARK    4  A    between atoms: P_6  and  O_8
REMARK    5  A    between atoms: P_6  and  O_10
REMARK    6  A    between atoms: O_12  and  C_14
REMARK    7  A    between atoms: C_14  and  C_15
REMARK    8  A    between atoms: C_15  and  C_16
REMARK                            x       y       z     vdW  Elec       q    Type
REMARK                         _______ _______ _______ _____ _____    ______ ____
ROOT
ATOM      1  C   UNL     1      33.321 -23.787 -16.095  0.00  0.00    +0.313 C 
ENDROOT
BRANCH   1   5
ATOM      2 CL   UNL     1      33.905 -24.043 -13.406  0.00  0.00    -0.078 Cl
ATOM      3 CL   UNL     1      35.491 -25.335 -15.472  0.00  0.00    -0.078 Cl
ATOM      4 CL   UNL     1      35.536 -22.454 -15.206  0.00  0.00    -0.078 Cl
ATOM      5  C   UNL     1      34.479 -23.905 -15.093  0.00  0.00    +0.246 C 
ENDBRANCH   1   5
BRANCH   1   6
ATOM      6  P   UNL     1      31.698 -23.330 -15.457  0.00  0.00    +0.387 P 
ATOM      7  O   UNL     1      31.704 -22.293 -14.371  0.00  0.00    -0.254 OA
BRANCH   6   8
ATOM      8  O   UNL     1      30.848 -22.919 -16.773  0.00  0.00    -0.289 OA
ATOM      9  C   UNL     1      29.446 -22.752 -16.651  0.00  0.00    +0.184 C 
ENDBRANCH   6   8
BRANCH   6  10
ATOM     10  O   UNL     1      31.025 -24.742 -15.029  0.00  0.00    -0.289 OA
ATOM     11  C   UNL     1      30.476 -24.878 -13.730  0.00  0.00    +0.184 C 
ENDBRANCH   6  10
ENDBRANCH   1   6
BRANCH   1  12
ATOM     12  O   UNL     1      33.610 -22.739 -17.047  0.00  0.00    -0.436 OA
BRANCH  12  14
ATOM     13  O   UNL     1      33.736 -24.189 -18.844  0.00  0.00    -0.250 OA
ATOM     14  C   UNL     1      33.866 -23.081 -18.341  0.00  0.00    +0.318 C 
BRANCH  14  15
ATOM     15  C   UNL     1      34.345 -21.869 -19.101  0.00  0.00    +0.110 C 
BRANCH  15  16
ATOM     16  C   UNL     1      33.191 -21.055 -19.675  0.00  0.00    +0.012 C 
ATOM     17  C   UNL     1      33.656 -20.002 -20.670  0.00  0.00    +0.001 C 
ENDBRANCH  15  16
ENDBRANCH  14  15
ENDBRANCH  12  14
ENDBRANCH   1  12
TORSDOF 8
ENDMDL
MODEL 7
REMARK VINA RESULT:      -5.9      1.295      2.427
REMARK  Name = 31343
REMARK  8 active torsions:
REMARK  status: ('A' for Active; 'I' for Inactive)
REMARK    1  A    between atoms: C_1  and  C_5
REMARK    2  A    between atoms: C_1  and  P_6
REMARK    3  A    between atoms: C_1  and  O_12
REMARK    4  A    between atoms: P_6  and  O_8
REMARK    5  A    between atoms: P_6  and  O_10
REMARK    6  A    between atoms: O_12  and  C_14
REMARK    7  A    between atoms: C_14  and  C_15
REMARK    8  A    between atoms: C_15  and  C_16
REMARK                            x       y       z     vdW  Elec       q    Type
REMARK                         _______ _______ _______ _____ _____    ______ ____
ROOT
ATOM      1  C   UNL     1      33.460 -23.076 -15.687  0.00  0.00    +0.313 C 
ENDROOT
BRANCH   1   5
ATOM      2 CL   UNL     1      30.903 -24.015 -16.157  0.00  0.00    -0.078 Cl
ATOM      3 CL   UNL     1      32.637 -25.171 -14.130  0.00  0.00    -0.078 Cl
ATOM      4 CL   UNL     1      31.588 -22.498 -13.779  0.00  0.00    -0.078 Cl
ATOM      5  C   UNL     1      32.217 -23.662 -14.998  0.00  0.00    +0.246 C 
ENDBRANCH   1   5
BRANCH   1   6
ATOM      6  P   UNL     1      35.074 -23.469 -14.987  0.00  0.00    +0.387 P 
ATOM      7  O   UNL     1      35.102 -23.641 -13.496  0.00  0.00    -0.254 OA
BRANCH   6   8
ATOM      8  O   UNL     1      35.571 -24.765 -15.822  0.00  0.00    -0.289 OA
ATOM      9  C   UNL     1      36.088 -25.874 -15.109  0.00  0.00    +0.184 C 
ENDBRANCH   6   8
BRANCH   6  10
ATOM     10  O   UNL     1      36.047 -22.297 -15.543  0.00  0.00    -0.289 OA
ATOM     11  C   UNL     1      37.366 -22.626 -15.939  0.00  0.00    +0.184 C 
ENDBRANCH   6  10
ENDBRANCH   1   6
BRANCH   1  12
ATOM     12  O   UNL     1      33.550 -23.586 -17.036  0.00  0.00    -0.436 OA
BRANCH  12  14
ATOM     13  O   UNL     1      32.388 -22.205 -18.481  0.00  0.00    -0.250 OA
ATOM     14  C   UNL     1      33.424 -22.715 -18.076  0.00  0.00    +0.318 C 
BRANCH  14  15
ATOM     15  C   UNL     1      34.779 -22.449 -18.682  0.00  0.00    +0.110 C 
BRANCH  15  16
ATOM     16  C   UNL     1      34.750 -21.293 -19.677  0.00  0.00    +0.012 C 
ATOM     17  C   UNL     1      36.143 -20.811 -20.054  0.00  0.00    +0.001 C 
ENDBRANCH  15  16
ENDBRANCH  14  15
ENDBRANCH  12  14
ENDBRANCH   1  12
TORSDOF 8
ENDMDL
MODEL 8
REMARK VINA RESULT:      -5.9      9.467     11.495
REMARK  Name = 31343
REMARK  8 active torsions:
REMARK  status: ('A' for Active; 'I' for Inactive)
REMARK    1  A    between atoms: C_1  and  C_5
REMARK    2  A    between atoms: C_1  and  P_6
REMARK    3  A    between atoms: C_1  and  O_12
REMARK    4  A    between atoms: P_6  and  O_8
REMARK    5  A    between atoms: P_6  and  O_10
REMARK    6  A    between atoms: O_12  and  C_14
REMARK    7  A    between atoms: C_14  and  C_15
REMARK    8  A    between atoms: C_15  and  C_16
REMARK                            x       y       z     vdW  Elec       q    Type
REMARK                         _______ _______ _______ _____ _____    ______ ____
ROOT
ATOM      1  C   UNL     1      33.650 -15.538 -22.999  0.00  0.00    +0.313 C 
ENDROOT
BRANCH   1   5
ATOM      2 CL   UNL     1      35.010 -16.853 -20.984  0.00  0.00    -0.078 Cl
ATOM      3 CL   UNL     1      34.538 -13.984 -20.928  0.00  0.00    -0.078 Cl
ATOM      4 CL   UNL     1      32.322 -15.819 -20.626  0.00  0.00    -0.078 Cl
ATOM      5  C   UNL     1      33.883 -15.558 -21.480  0.00  0.00    +0.246 C 
ENDBRANCH   1   5
BRANCH   1   6
ATOM      6  P   UNL     1      33.235 -13.960 -23.766  0.00  0.00    +0.387 P 
ATOM      7  O   UNL     1      34.369 -12.983 -23.880  0.00  0.00    -0.254 OA
BRANCH   6   8
ATOM      8  O   UNL     1      32.555 -14.366 -25.180  0.00  0.00    -0.289 OA
ATOM      9  C   UNL     1      33.040 -13.761 -26.365  0.00  0.00    +0.184 C 
ENDBRANCH   6   8
BRANCH   6  10
ATOM     10  O   UNL     1      31.970 -13.419 -22.908  0.00  0.00    -0.289 OA
ATOM     11  C   UNL     1      32.001 -12.102 -22.390  0.00  0.00    +0.184 C 
ENDBRANCH   6  10
ENDBRANCH   1   6
BRANCH   1  12
ATOM     12  O   UNL     1      34.863 -15.928 -23.679  0.00  0.00    -0.436 OA
BRANCH  12  14
ATOM     13  O   UNL     1      35.102 -16.537 -25.897  0.00  0.00    -0.250 OA
ATOM     14  C   UNL     1      34.776 -16.776 -24.742  0.00  0.00    +0.318 C 
BRANCH  14  15
ATOM     15  C   UNL     1      34.207 -18.098 -24.291  0.00  0.00    +0.110 C 
BRANCH  15  16
ATOM     16  C   UNL     1      35.265 -18.999 -23.663  0.00  0.00    +0.012 C 
ATOM     17  C   UNL     1      34.779 -19.671 -22.388  0.00  0.00    +0.001 C 
ENDBRANCH  15  16
ENDBRANCH  14  15
ENDBRANCH  12  14
ENDBRANCH   1  12
TORSDOF 8
ENDMDL
MODEL 9
REMARK VINA RESULT:      -5.9      7.554      9.795
REMARK  Name = 31343
REMARK  8 active torsions:
REMARK  status: ('A' for Active; 'I' for Inactive)
REMARK    1  A    between atoms: C_1  and  C_5
REMARK    2  A    between atoms: C_1  and  P_6
REMARK    3  A    between atoms: C_1  and  O_12
REMARK    4  A    between atoms: P_6  and  O_8
REMARK    5  A    between atoms: P_6  and  O_10
REMARK    6  A    between atoms: O_12  and  C_14
REMARK    7  A    between atoms: C_14  and  C_15
REMARK    8  A    between atoms: C_15  and  C_16
REMARK                            x       y       z     vdW  Elec       q    Type
REMARK                         _______ _______ _______ _____ _____    ______ ____
ROOT
ATOM      1  C   UNL     1      34.712 -16.643 -22.767  0.00  0.00    +0.313 C 
ENDROOT
BRANCH   1   5
ATOM      2 CL   UNL     1      34.994 -15.909 -20.117  0.00  0.00    -0.078 Cl
ATOM      3 CL   UNL     1      34.434 -13.976 -22.215  0.00  0.00    -0.078 Cl
ATOM      4 CL   UNL     1      32.422 -15.914 -21.461  0.00  0.00    -0.078 Cl
ATOM      5  C   UNL     1      34.189 -15.673 -21.695  0.00  0.00    +0.246 C 
ENDBRANCH   1   5
BRANCH   1   6
ATOM      6  P   UNL     1      34.956 -18.366 -22.296  0.00  0.00    +0.387 P 
ATOM      7  O   UNL     1      34.728 -19.369 -23.390  0.00  0.00    -0.254 OA
BRANCH   6   8
ATOM      8  O   UNL     1      36.442 -18.401 -21.653  0.00  0.00    -0.289 OA
ATOM      9  C   UNL     1      36.731 -19.375 -20.666  0.00  0.00    +0.184 C 
ENDBRANCH   6   8
BRANCH   6  10
ATOM     10  O   UNL     1      34.005 -18.564 -20.998  0.00  0.00    -0.289 OA
ATOM     11  C   UNL     1      33.151 -19.692 -20.935  0.00  0.00    +0.184 C 
ENDBRANCH   6  10
ENDBRANCH   1   6
BRANCH   1  12
ATOM     12  O   UNL     1      33.758 -16.726 -23.849  0.00  0.00    -0.436 OA
BRANCH  12  14
ATOM     13  O   UNL     1      34.844 -16.644 -25.888  0.00  0.00    -0.250 OA
ATOM     14  C   UNL     1      34.082 -16.176 -25.052  0.00  0.00    +0.318 C 
BRANCH  14  15
ATOM     15  C   UNL     1      33.349 -14.870 -25.228  0.00  0.00    +0.110 C 
BRANCH  15  16
ATOM     16  C   UNL     1      32.876 -14.662 -26.663  0.00  0.00    +0.012 C 
ATOM     17  C   UNL     1      33.387 -13.362 -27.265  0.00  0.00    +0.001 C 
ENDBRANCH  15  16
ENDBRANCH  14  15
ENDBRANCH  12  14
ENDBRANCH   1  12
TORSDOF 8
ENDMDL
