MODEL 1
REMARK VINA RESULT:      -8.7      0.000      0.000
REMARK  Name = 11840990
REMARK  7 active torsions:
REMARK  status: ('A' for Active; 'I' for Inactive)
REMARK    1  A    between atoms: N_1  and  N_3
REMARK    2  A    between atoms: N_1  and  C_13
REMARK    3  A    between atoms: N_3  and  C_8
REMARK    4  A    between atoms: N_6  and  C_9
REMARK    5  A    between atoms: N_7  and  C_10
REMARK    6  A    between atoms: C_15  and  C_20
REMARK    7  A    between atoms: C_20  and  O_21
REMARK                            x       y       z     vdW  Elec       q    Type
REMARK                         _______ _______ _______ _____ _____    ______ ____
ROOT
ATOM      1  N   UNL     1      34.227 -18.227 -21.614  0.00  0.00    -0.261 N 
ATOM      2  H   UNL     1      33.252 -18.093 -21.650  0.00  0.00    +0.168 HD
ENDROOT
BRANCH   1   3
ATOM      3  C   UNL     1      34.756 -19.329 -20.910  0.00  0.00    +0.060 C 
ATOM      4  C   UNL     1      33.901 -20.296 -20.383  0.00  0.00    +0.022 C 
ATOM      5  C   UNL     1      34.424 -21.386 -19.687  0.00  0.00    +0.077 C 
ATOM      6  C   UNL     1      36.135 -19.452 -20.743  0.00  0.00    +0.016 C 
ATOM      7  C   UNL     1      35.803 -21.509 -19.520  0.00  0.00    +0.007 C 
ATOM      8  C   UNL     1      36.658 -20.542 -20.048  0.00  0.00    +0.002 C 
BRANCH   5  10
ATOM      9  O   UNL     1      32.489 -22.168 -18.516  0.00  0.00    -0.245 OA
ATOM     10  C   UNL     1      33.532 -22.396 -19.138  0.00  0.00    +0.338 C 
BRANCH  10  11
ATOM     11  O   UNL     1      33.967 -23.662 -19.383  0.00  0.00    -0.477 OA
ATOM     12  H   UNL     1      33.716 -24.362 -18.815  0.00  0.00    +0.295 HD
ENDBRANCH  10  11
ENDBRANCH   5  10
ENDBRANCH   1   3
BRANCH   1  13
ATOM     13  N   UNL     1      35.042 -17.359 -22.237  0.00  0.00    -0.120 NA
BRANCH  13  16
ATOM     14  N   UNL     1      34.106 -16.240 -25.510  0.00  0.00    -0.133 NA
ATOM     15  N   UNL     1      34.265 -17.497 -25.722  0.00  0.00    -0.133 NA
ATOM     16  C   UNL     1      34.726 -17.163 -23.471  0.00  0.00    +0.207 C 
ATOM     17  C   UNL     1      34.361 -15.939 -24.183  0.00  0.00    +0.168 C 
ATOM     18  C   UNL     1      34.639 -18.138 -24.555  0.00  0.00    +0.168 C 
BRANCH  17  19
ATOM     19  N   UNL     1      34.286 -14.766 -23.665  0.00  0.00    -0.249 NA
ATOM     20  H   UNL     1      33.438 -14.454 -23.274  0.00  0.00    +0.171 HD
ENDBRANCH  17  19
BRANCH  18  21
ATOM     21  N   UNL     1      34.873 -19.397 -24.435  0.00  0.00    -0.249 NA
ATOM     22  H   UNL     1      34.879 -19.814 -23.545  0.00  0.00    +0.171 HD
ENDBRANCH  18  21
ENDBRANCH  13  16
ENDBRANCH   1  13
TORSDOF 7
ENDMDL
MODEL 2
REMARK VINA RESULT:      -8.6      0.110      1.951
REMARK  Name = 11840990
REMARK  7 active torsions:
REMARK  status: ('A' for Active; 'I' for Inactive)
REMARK    1  A    between atoms: N_1  and  N_3
REMARK    2  A    between atoms: N_1  and  C_13
REMARK    3  A    between atoms: N_3  and  C_8
REMARK    4  A    between atoms: N_6  and  C_9
REMARK    5  A    between atoms: N_7  and  C_10
REMARK    6  A    between atoms: C_15  and  C_20
REMARK    7  A    between atoms: C_20  and  O_21
REMARK                            x       y       z     vdW  Elec       q    Type
REMARK                         _______ _______ _______ _____ _____    ______ ____
ROOT
ATOM      1  N   UNL     1      34.226 -18.197 -21.588  0.00  0.00    -0.261 N 
ATOM      2  H   UNL     1      33.247 -18.083 -21.601  0.00  0.00    +0.168 HD
ENDROOT
BRANCH   1   3
ATOM      3  C   UNL     1      34.792 -19.295 -20.909  0.00  0.00    +0.060 C 
ATOM      4  C   UNL     1      33.971 -20.298 -20.396  0.00  0.00    +0.022 C 
ATOM      5  C   UNL     1      34.532 -21.386 -19.725  0.00  0.00    +0.077 C 
ATOM      6  C   UNL     1      36.176 -19.379 -20.752  0.00  0.00    +0.016 C 
ATOM      7  C   UNL     1      35.916 -21.469 -19.569  0.00  0.00    +0.007 C 
ATOM      8  C   UNL     1      36.737 -20.465 -20.082  0.00  0.00    +0.002 C 
BRANCH   5  10
ATOM      9  O   UNL     1      33.947 -23.638 -19.170  0.00  0.00    -0.245 OA
ATOM     10  C   UNL     1      33.675 -22.433 -19.192  0.00  0.00    +0.338 C 
BRANCH  10  11
ATOM     11  O   UNL     1      32.504 -21.945 -18.699  0.00  0.00    -0.477 OA
ATOM     12  H   UNL     1      32.060 -21.252 -19.145  0.00  0.00    +0.295 HD
ENDBRANCH  10  11
ENDBRANCH   5  10
ENDBRANCH   1   3
BRANCH   1  13
ATOM     13  N   UNL     1      35.008 -17.304 -22.219  0.00  0.00    -0.120 NA
BRANCH  13  16
ATOM     14  N   UNL     1      34.273 -17.498 -25.720  0.00  0.00    -0.133 NA
ATOM     15  N   UNL     1      34.113 -16.241 -25.510  0.00  0.00    -0.133 NA
ATOM     16  C   UNL     1      34.712 -17.162 -23.464  0.00  0.00    +0.207 C 
ATOM     17  C   UNL     1      34.634 -18.141 -24.548  0.00  0.00    +0.168 C 
ATOM     18  C   UNL     1      34.355 -15.941 -24.182  0.00  0.00    +0.168 C 
BRANCH  17  19
ATOM     19  N   UNL     1      34.864 -19.399 -24.438  0.00  0.00    -0.249 NA
ATOM     20  H   UNL     1      35.790 -19.725 -24.357  0.00  0.00    +0.171 HD
ENDBRANCH  17  19
BRANCH  18  21
ATOM     21  N   UNL     1      34.280 -14.770 -23.654  0.00  0.00    -0.249 NA
ATOM     22  H   UNL     1      35.054 -14.394 -23.179  0.00  0.00    +0.171 HD
ENDBRANCH  18  21
ENDBRANCH  13  16
ENDBRANCH   1  13
TORSDOF 7
ENDMDL
MODEL 3
REMARK VINA RESULT:      -8.5      7.995     10.565
REMARK  Name = 11840990
REMARK  7 active torsions:
REMARK  status: ('A' for Active; 'I' for Inactive)
REMARK    1  A    between atoms: N_1  and  N_3
REMARK    2  A    between atoms: N_1  and  C_13
REMARK    3  A    between atoms: N_3  and  C_8
REMARK    4  A    between atoms: N_6  and  C_9
REMARK    5  A    between atoms: N_7  and  C_10
REMARK    6  A    between atoms: C_15  and  C_20
REMARK    7  A    between atoms: C_20  and  O_21
REMARK                            x       y       z     vdW  Elec       q    Type
REMARK                         _______ _______ _______ _____ _____    ______ ____
ROOT
ATOM      1  N   UNL     1      34.036 -24.451 -13.309  0.00  0.00    -0.261 N 
ATOM      2  H   UNL     1      33.640 -24.539 -12.411  0.00  0.00    +0.168 HD
ENDROOT
BRANCH   1   3
ATOM      3  C   UNL     1      33.241 -23.999 -14.383  0.00  0.00    +0.060 C 
ATOM      4  C   UNL     1      33.838 -23.639 -15.591  0.00  0.00    +0.022 C 
ATOM      5  C   UNL     1      33.051 -23.193 -16.653  0.00  0.00    +0.077 C 
ATOM      6  C   UNL     1      31.856 -23.913 -14.237  0.00  0.00    +0.016 C 
ATOM      7  C   UNL     1      31.666 -23.107 -16.506  0.00  0.00    +0.007 C 
ATOM      8  C   UNL     1      31.069 -23.467 -15.298  0.00  0.00    +0.002 C 
BRANCH   5  10
ATOM      9  O   UNL     1      34.881 -22.883 -18.162  0.00  0.00    -0.245 OA
ATOM     10  C   UNL     1      33.673 -22.819 -17.913  0.00  0.00    +0.338 C 
BRANCH  10  11
ATOM     11  O   UNL     1      32.768 -22.377 -18.828  0.00  0.00    -0.477 OA
ATOM     12  H   UNL     1      32.437 -22.962 -19.481  0.00  0.00    +0.295 HD
ENDBRANCH  10  11
ENDBRANCH   5  10
ENDBRANCH   1   3
BRANCH   1  13
ATOM     13  N   UNL     1      35.329 -24.761 -13.499  0.00  0.00    -0.120 NA
BRANCH  13  16
ATOM     14  N   UNL     1      37.230 -23.251 -10.864  0.00  0.00    -0.133 NA
ATOM     15  N   UNL     1      37.820 -22.763 -11.896  0.00  0.00    -0.133 NA
ATOM     16  C   UNL     1      36.125 -24.126 -12.710  0.00  0.00    +0.207 C 
ATOM     17  C   UNL     1      36.195 -24.086 -11.250  0.00  0.00    +0.168 C 
ATOM     18  C   UNL     1      37.226 -23.231 -13.055  0.00  0.00    +0.168 C 
BRANCH  17  19
ATOM     19  N   UNL     1      35.421 -24.721 -10.446  0.00  0.00    -0.249 NA
ATOM     20  H   UNL     1      34.507 -24.393 -10.280  0.00  0.00    +0.171 HD
ENDBRANCH  17  19
BRANCH  18  21
ATOM     21  N   UNL     1      37.584 -22.927 -14.252  0.00  0.00    -0.249 NA
ATOM     22  H   UNL     1      38.256 -22.225 -14.402  0.00  0.00    +0.171 HD
ENDBRANCH  18  21
ENDBRANCH  13  16
ENDBRANCH   1  13
TORSDOF 7
ENDMDL
MODEL 4
REMARK VINA RESULT:      -8.5      8.035     10.567
REMARK  Name = 11840990
REMARK  7 active torsions:
REMARK  status: ('A' for Active; 'I' for Inactive)
REMARK    1  A    between atoms: N_1  and  N_3
REMARK    2  A    between atoms: N_1  and  C_13
REMARK    3  A    between atoms: N_3  and  C_8
REMARK    4  A    between atoms: N_6  and  C_9
REMARK    5  A    between atoms: N_7  and  C_10
REMARK    6  A    between atoms: C_15  and  C_20
REMARK    7  A    between atoms: C_20  and  O_21
REMARK                            x       y       z     vdW  Elec       q    Type
REMARK                         _______ _______ _______ _____ _____    ______ ____
ROOT
ATOM      1  N   UNL     1      33.964 -24.346 -13.209  0.00  0.00    -0.261 N 
ATOM      2  H   UNL     1      33.626 -24.353 -12.284  0.00  0.00    +0.168 HD
ENDROOT
BRANCH   1   3
ATOM      3  C   UNL     1      33.116 -23.942 -14.260  0.00  0.00    +0.060 C 
ATOM      4  C   UNL     1      33.651 -23.628 -15.509  0.00  0.00    +0.022 C 
ATOM      5  C   UNL     1      32.811 -23.230 -16.550  0.00  0.00    +0.077 C 
ATOM      6  C   UNL     1      31.739 -23.858 -14.052  0.00  0.00    +0.016 C 
ATOM      7  C   UNL     1      31.435 -23.146 -16.340  0.00  0.00    +0.007 C 
ATOM      8  C   UNL     1      30.899 -23.460 -15.091  0.00  0.00    +0.002 C 
BRANCH   5  10
ATOM      9  O   UNL     1      34.489 -23.239 -18.256  0.00  0.00    -0.245 OA
ATOM     10  C   UNL     1      33.370 -22.905 -17.852  0.00  0.00    +0.338 C 
BRANCH  10  11
ATOM     11  O   UNL     1      32.514 -22.172 -18.616  0.00  0.00    -0.477 OA
ATOM     12  H   UNL     1      31.976 -22.595 -19.256  0.00  0.00    +0.295 HD
ENDBRANCH  10  11
ENDBRANCH   5  10
ENDBRANCH   1   3
BRANCH   1  13
ATOM     13  N   UNL     1      35.231 -24.718 -13.457  0.00  0.00    -0.120 NA
BRANCH  13  16
ATOM     14  N   UNL     1      37.856 -22.812 -11.936  0.00  0.00    -0.133 NA
ATOM     15  N   UNL     1      37.279 -23.298 -10.896  0.00  0.00    -0.133 NA
ATOM     16  C   UNL     1      36.094 -24.104 -12.724  0.00  0.00    +0.207 C 
ATOM     17  C   UNL     1      37.216 -23.239 -13.087  0.00  0.00    +0.168 C 
ATOM     18  C   UNL     1      36.206 -24.089 -11.268  0.00  0.00    +0.168 C 
BRANCH  17  19
ATOM     19  N   UNL     1      37.560 -22.922 -14.283  0.00  0.00    -0.249 NA
ATOM     20  H   UNL     1      37.018 -23.226 -15.048  0.00  0.00    +0.171 HD
ENDBRANCH  17  19
BRANCH  18  21
ATOM     21  N   UNL     1      35.426 -24.717 -10.461  0.00  0.00    -0.249 NA
ATOM     22  H   UNL     1      35.393 -25.700 -10.474  0.00  0.00    +0.171 HD
ENDBRANCH  18  21
ENDBRANCH  13  16
ENDBRANCH   1  13
TORSDOF 7
ENDMDL
MODEL 5
REMARK VINA RESULT:      -8.5      0.846      1.690
REMARK  Name = 11840990
REMARK  7 active torsions:
REMARK  status: ('A' for Active; 'I' for Inactive)
REMARK    1  A    between atoms: N_1  and  N_3
REMARK    2  A    between atoms: N_1  and  C_13
REMARK    3  A    between atoms: N_3  and  C_8
REMARK    4  A    between atoms: N_6  and  C_9
REMARK    5  A    between atoms: N_7  and  C_10
REMARK    6  A    between atoms: C_15  and  C_20
REMARK    7  A    between atoms: C_20  and  O_21
REMARK                            x       y       z     vdW  Elec       q    Type
REMARK                         _______ _______ _______ _____ _____    ______ ____
ROOT
ATOM      1  N   UNL     1      34.216 -18.812 -21.901  0.00  0.00    -0.261 N 
ATOM      2  H   UNL     1      33.261 -18.572 -21.883  0.00  0.00    +0.168 HD
ENDROOT
BRANCH   1   3
ATOM      3  C   UNL     1      34.716 -19.764 -20.988  0.00  0.00    +0.060 C 
ATOM      4  C   UNL     1      33.847 -20.667 -20.376  0.00  0.00    +0.022 C 
ATOM      5  C   UNL     1      34.341 -21.609 -19.473  0.00  0.00    +0.077 C 
ATOM      6  C   UNL     1      36.080 -19.803 -20.698  0.00  0.00    +0.016 C 
ATOM      7  C   UNL     1      35.705 -21.647 -19.184  0.00  0.00    +0.007 C 
ATOM      8  C   UNL     1      36.574 -20.744 -19.796  0.00  0.00    +0.002 C 
BRANCH   5  10
ATOM      9  O   UNL     1      32.385 -22.257 -18.257  0.00  0.00    -0.245 OA
ATOM     10  C   UNL     1      33.436 -22.552 -18.836  0.00  0.00    +0.338 C 
BRANCH  10  11
ATOM     11  O   UNL     1      33.867 -23.838 -18.941  0.00  0.00    -0.477 OA
ATOM     12  H   UNL     1      34.119 -24.313 -18.174  0.00  0.00    +0.295 HD
ENDBRANCH  10  11
ENDBRANCH   5  10
ENDBRANCH   1   3
BRANCH   1  13
ATOM     13  N   UNL     1      35.031 -18.230 -22.797  0.00  0.00    -0.120 NA
BRANCH  13  16
ATOM     14  N   UNL     1      34.455 -14.698 -22.629  0.00  0.00    -0.133 NA
ATOM     15  N   UNL     1      34.344 -14.899 -23.893  0.00  0.00    -0.133 NA
ATOM     16  C   UNL     1      34.801 -16.972 -22.950  0.00  0.00    +0.207 C 
ATOM     17  C   UNL     1      34.731 -15.886 -21.973  0.00  0.00    +0.168 C 
ATOM     18  C   UNL     1      34.536 -16.238 -24.185  0.00  0.00    +0.168 C 
BRANCH  17  19
ATOM     19  N   UNL     1      34.897 -16.007 -20.706  0.00  0.00    -0.249 NA
ATOM     20  H   UNL     1      34.688 -15.253 -20.107  0.00  0.00    +0.171 HD
ENDBRANCH  17  19
BRANCH  18  21
ATOM     21  N   UNL     1      34.489 -16.761 -25.358  0.00  0.00    -0.249 NA
ATOM     22  H   UNL     1      34.693 -16.213 -26.150  0.00  0.00    +0.171 HD
ENDBRANCH  18  21
ENDBRANCH  13  16
ENDBRANCH   1  13
TORSDOF 7
ENDMDL
MODEL 6
REMARK VINA RESULT:      -8.5      8.176     10.299
REMARK  Name = 11840990
REMARK  7 active torsions:
REMARK  status: ('A' for Active; 'I' for Inactive)
REMARK    1  A    between atoms: N_1  and  N_3
REMARK    2  A    between atoms: N_1  and  C_13
REMARK    3  A    between atoms: N_3  and  C_8
REMARK    4  A    between atoms: N_6  and  C_9
REMARK    5  A    between atoms: N_7  and  C_10
REMARK    6  A    between atoms: C_15  and  C_20
REMARK    7  A    between atoms: C_20  and  O_21
REMARK                            x       y       z     vdW  Elec       q    Type
REMARK                         _______ _______ _______ _____ _____    ______ ____
ROOT
ATOM      1  N   UNL     1      35.003 -24.784 -14.067  0.00  0.00    -0.261 N 
ATOM      2  H   UNL     1      34.828 -25.588 -13.525  0.00  0.00    +0.168 HD
ENDROOT
BRANCH   1   3
ATOM      3  C   UNL     1      33.972 -24.237 -14.859  0.00  0.00    +0.060 C 
ATOM      4  C   UNL     1      34.259 -23.735 -16.128  0.00  0.00    +0.022 C 
ATOM      5  C   UNL     1      33.239 -23.195 -16.912  0.00  0.00    +0.077 C 
ATOM      6  C   UNL     1      32.665 -24.200 -14.374  0.00  0.00    +0.016 C 
ATOM      7  C   UNL     1      31.932 -23.158 -16.426  0.00  0.00    +0.007 C 
ATOM      8  C   UNL     1      31.645 -23.661 -15.157  0.00  0.00    +0.002 C 
BRANCH   5  10
ATOM      9  O   UNL     1      32.712 -22.192 -19.020  0.00  0.00    -0.245 OA
ATOM     10  C   UNL     1      33.538 -22.673 -18.236  0.00  0.00    +0.338 C 
BRANCH  10  11
ATOM     11  O   UNL     1      34.860 -22.764 -18.545  0.00  0.00    -0.477 OA
ATOM     12  H   UNL     1      35.507 -22.507 -17.918  0.00  0.00    +0.295 HD
ENDBRANCH  10  11
ENDBRANCH   5  10
ENDBRANCH   1   3
BRANCH   1  13
ATOM     13  N   UNL     1      36.221 -24.217 -14.042  0.00  0.00    -0.120 NA
BRANCH  13  16
ATOM     14  N   UNL     1      38.546 -26.863 -14.699  0.00  0.00    -0.133 NA
ATOM     15  N   UNL     1      39.185 -26.197 -13.805  0.00  0.00    -0.133 NA
ATOM     16  C   UNL     1      37.180 -25.073 -14.130  0.00  0.00    +0.207 C 
ATOM     17  C   UNL     1      37.326 -26.265 -14.964  0.00  0.00    +0.168 C 
ATOM     18  C   UNL     1      38.445 -25.101 -13.401  0.00  0.00    +0.168 C 
BRANCH  17  19
ATOM     19  N   UNL     1      36.462 -26.696 -15.811  0.00  0.00    -0.249 NA
ATOM     20  H   UNL     1      36.534 -26.444 -16.761  0.00  0.00    +0.171 HD
ENDBRANCH  17  19
BRANCH  18  21
ATOM     21  N   UNL     1      38.807 -24.239 -12.519  0.00  0.00    -0.249 NA
ATOM     22  H   UNL     1      38.275 -24.118 -11.701  0.00  0.00    +0.171 HD
ENDBRANCH  18  21
ENDBRANCH  13  16
ENDBRANCH   1  13
TORSDOF 7
ENDMDL
MODEL 7
REMARK VINA RESULT:      -8.4      0.869      1.965
REMARK  Name = 11840990
REMARK  7 active torsions:
REMARK  status: ('A' for Active; 'I' for Inactive)
REMARK    1  A    between atoms: N_1  and  N_3
REMARK    2  A    between atoms: N_1  and  C_13
REMARK    3  A    between atoms: N_3  and  C_8
REMARK    4  A    between atoms: N_6  and  C_9
REMARK    5  A    between atoms: N_7  and  C_10
REMARK    6  A    between atoms: C_15  and  C_20
REMARK    7  A    between atoms: C_20  and  O_21
REMARK                            x       y       z     vdW  Elec       q    Type
REMARK                         _______ _______ _______ _____ _____    ______ ____
ROOT
ATOM      1  N   UNL     1      34.368 -18.873 -21.957  0.00  0.00    -0.261 N 
ATOM      2  H   UNL     1      33.404 -18.696 -22.050  0.00  0.00    +0.168 HD
ENDROOT
BRANCH   1   3
ATOM      3  C   UNL     1      34.818 -19.807 -21.001  0.00  0.00    +0.060 C 
ATOM      4  C   UNL     1      33.912 -20.674 -20.391  0.00  0.00    +0.022 C 
ATOM      5  C   UNL     1      34.357 -21.598 -19.445  0.00  0.00    +0.077 C 
ATOM      6  C   UNL     1      36.171 -19.865 -20.666  0.00  0.00    +0.016 C 
ATOM      7  C   UNL     1      35.711 -21.655 -19.111  0.00  0.00    +0.007 C 
ATOM      8  C   UNL     1      36.617 -20.788 -19.721  0.00  0.00    +0.002 C 
BRANCH   5  10
ATOM      9  O   UNL     1      32.320 -22.178 -18.333  0.00  0.00    -0.245 OA
ATOM     10  C   UNL     1      33.413 -22.503 -18.810  0.00  0.00    +0.338 C 
BRANCH  10  11
ATOM     11  O   UNL     1      33.858 -23.789 -18.790  0.00  0.00    -0.477 OA
ATOM     12  H   UNL     1      34.055 -24.204 -17.974  0.00  0.00    +0.295 HD
ENDBRANCH  10  11
ENDBRANCH   5  10
ENDBRANCH   1   3
BRANCH   1  13
ATOM     13  N   UNL     1      35.243 -18.225 -22.744  0.00  0.00    -0.120 NA
BRANCH  13  16
ATOM     14  N   UNL     1      34.370 -14.931 -23.852  0.00  0.00    -0.133 NA
ATOM     15  N   UNL     1      34.434 -14.748 -22.582  0.00  0.00    -0.133 NA
ATOM     16  C   UNL     1      34.935 -16.988 -22.934  0.00  0.00    +0.207 C 
ATOM     17  C   UNL     1      34.655 -16.250 -24.165  0.00  0.00    +0.168 C 
ATOM     18  C   UNL     1      34.767 -15.929 -21.943  0.00  0.00    +0.168 C 
BRANCH  17  19
ATOM     19  N   UNL     1      34.670 -16.739 -25.352  0.00  0.00    -0.249 NA
ATOM     20  H   UNL     1      35.139 -16.262 -26.075  0.00  0.00    +0.171 HD
ENDBRANCH  17  19
BRANCH  18  21
ATOM     21  N   UNL     1      34.910 -16.077 -20.674  0.00  0.00    -0.249 NA
ATOM     22  H   UNL     1      34.431 -15.484 -20.052  0.00  0.00    +0.171 HD
ENDBRANCH  18  21
ENDBRANCH  13  16
ENDBRANCH   1  13
TORSDOF 7
ENDMDL
MODEL 8
REMARK VINA RESULT:      -8.4      8.482     10.400
REMARK  Name = 11840990
REMARK  7 active torsions:
REMARK  status: ('A' for Active; 'I' for Inactive)
REMARK    1  A    between atoms: N_1  and  N_3
REMARK    2  A    between atoms: N_1  and  C_13
REMARK    3  A    between atoms: N_3  and  C_8
REMARK    4  A    between atoms: N_6  and  C_9
REMARK    5  A    between atoms: N_7  and  C_10
REMARK    6  A    between atoms: C_15  and  C_20
REMARK    7  A    between atoms: C_20  and  O_21
REMARK                            x       y       z     vdW  Elec       q    Type
REMARK                         _______ _______ _______ _____ _____    ______ ____
ROOT
ATOM      1  N   UNL     1      35.148 -23.953 -14.702  0.00  0.00    -0.261 N 
ATOM      2  H   UNL     1      35.345 -23.760 -13.756  0.00  0.00    +0.168 HD
ENDROOT
BRANCH   1   3
ATOM      3  C   UNL     1      33.827 -23.824 -15.181  0.00  0.00    +0.060 C 
ATOM      4  C   UNL     1      32.759 -24.295 -14.419  0.00  0.00    +0.022 C 
ATOM      5  C   UNL     1      31.453 -24.166 -14.892  0.00  0.00    +0.077 C 
ATOM      6  C   UNL     1      33.590 -23.223 -16.417  0.00  0.00    +0.016 C 
ATOM      7  C   UNL     1      31.216 -23.565 -16.128  0.00  0.00    +0.007 C 
ATOM      8  C   UNL     1      32.285 -23.094 -16.891  0.00  0.00    +0.002 C 
BRANCH   5  10
ATOM      9  O   UNL     1      29.207 -24.908 -14.526  0.00  0.00    -0.245 OA
ATOM     10  C   UNL     1      30.338 -24.656 -14.096  0.00  0.00    +0.338 C 
BRANCH  10  11
ATOM     11  O   UNL     1      30.668 -24.820 -12.786  0.00  0.00    -0.477 OA
ATOM     12  H   UNL     1      30.687 -24.081 -12.211  0.00  0.00    +0.295 HD
ENDBRANCH  10  11
ENDBRANCH   5  10
ENDBRANCH   1   3
BRANCH   1  13
ATOM     13  N   UNL     1      36.139 -24.335 -15.524  0.00  0.00    -0.120 NA
BRANCH  13  16
ATOM     14  N   UNL     1      38.208 -27.042 -14.417  0.00  0.00    -0.133 NA
ATOM     15  N   UNL     1      38.565 -26.117 -13.600  0.00  0.00    -0.133 NA
ATOM     16  C   UNL     1      36.957 -25.169 -14.980  0.00  0.00    +0.207 C 
ATOM     17  C   UNL     1      37.243 -26.569 -15.289  0.00  0.00    +0.168 C 
ATOM     18  C   UNL     1      37.868 -24.951 -13.859  0.00  0.00    +0.168 C 
BRANCH  17  19
ATOM     19  N   UNL     1      36.689 -27.258 -16.221  0.00  0.00    -0.249 NA
ATOM     20  H   UNL     1      35.712 -27.223 -16.345  0.00  0.00    +0.171 HD
ENDBRANCH  17  19
BRANCH  18  21
ATOM     21  N   UNL     1      37.996 -23.845 -13.217  0.00  0.00    -0.249 NA
ATOM     22  H   UNL     1      37.627 -23.013 -13.590  0.00  0.00    +0.171 HD
ENDBRANCH  18  21
ENDBRANCH  13  16
ENDBRANCH   1  13
TORSDOF 7
ENDMDL
MODEL 9
REMARK VINA RESULT:      -8.4      3.862      6.320
REMARK  Name = 11840990
REMARK  7 active torsions:
REMARK  status: ('A' for Active; 'I' for Inactive)
REMARK    1  A    between atoms: N_1  and  N_3
REMARK    2  A    between atoms: N_1  and  C_13
REMARK    3  A    between atoms: N_3  and  C_8
REMARK    4  A    between atoms: N_6  and  C_9
REMARK    5  A    between atoms: N_7  and  C_10
REMARK    6  A    between atoms: C_15  and  C_20
REMARK    7  A    between atoms: C_20  and  O_21
REMARK                            x       y       z     vdW  Elec       q    Type
REMARK                         _______ _______ _______ _____ _____    ______ ____
ROOT
ATOM      1  N   UNL     1      35.486 -18.510 -20.654  0.00  0.00    -0.261 N 
ATOM      2  H   UNL     1      35.803 -18.306 -19.743  0.00  0.00    +0.168 HD
ENDROOT
BRANCH   1   3
ATOM      3  C   UNL     1      35.070 -17.461 -21.500  0.00  0.00    +0.060 C 
ATOM      4  C   UNL     1      34.954 -17.676 -22.873  0.00  0.00    +0.022 C 
ATOM      5  C   UNL     1      34.541 -16.639 -23.710  0.00  0.00    +0.077 C 
ATOM      6  C   UNL     1      34.773 -16.208 -20.963  0.00  0.00    +0.016 C 
ATOM      7  C   UNL     1      34.244 -15.386 -23.172  0.00  0.00    +0.007 C 
ATOM      8  C   UNL     1      34.361 -15.171 -21.799  0.00  0.00    +0.002 C 
BRANCH   5  10
ATOM      9  O   UNL     1      34.196 -15.990 -25.987  0.00  0.00    -0.245 OA
ATOM     10  C   UNL     1      34.418 -16.863 -25.141  0.00  0.00    +0.338 C 
BRANCH  10  11
ATOM     11  O   UNL     1      34.576 -18.172 -25.477  0.00  0.00    -0.477 OA
ATOM     12  H   UNL     1      35.432 -18.551 -25.498  0.00  0.00    +0.295 HD
ENDBRANCH  10  11
ENDBRANCH   5  10
ENDBRANCH   1   3
BRANCH   1  13
ATOM     13  N   UNL     1      35.456 -19.784 -21.078  0.00  0.00    -0.120 NA
BRANCH  13  16
ATOM     14  N   UNL     1      33.031 -21.681 -19.245  0.00  0.00    -0.133 NA
ATOM     15  N   UNL     1      34.122 -22.133 -18.739  0.00  0.00    -0.133 NA
ATOM     16  C   UNL     1      34.754 -20.555 -20.321  0.00  0.00    +0.207 C 
ATOM     17  C   UNL     1      33.306 -20.725 -20.209  0.00  0.00    +0.168 C 
ATOM     18  C   UNL     1      35.214 -21.516 -19.323  0.00  0.00    +0.168 C 
BRANCH  17  19
ATOM     19  N   UNL     1      32.422 -20.091 -20.892  0.00  0.00    -0.249 NA
ATOM     20  H   UNL     1      32.223 -20.367 -21.816  0.00  0.00    +0.171 HD
ENDBRANCH  17  19
BRANCH  18  21
ATOM     21  N   UNL     1      36.446 -21.748 -19.034  0.00  0.00    -0.249 NA
ATOM     22  H   UNL     1      36.849 -21.340 -18.235  0.00  0.00    +0.171 HD
ENDBRANCH  18  21
ENDBRANCH  13  16
ENDBRANCH   1  13
TORSDOF 7
ENDMDL
