MODEL 1
REMARK VINA RESULT:      -7.3      0.000      0.000
REMARK  Name = 54688710
REMARK  6 active torsions:
REMARK  status: ('A' for Active; 'I' for Inactive)
REMARK    1  A    between atoms: C_2  and  O_7
REMARK    2  A    between atoms: C_3  and  O_9
REMARK    3  A    between atoms: C_4  and  O_11
REMARK    4  A    between atoms: C_5  and  O_13
REMARK    5  A    between atoms: C_6  and  C_16
REMARK    6  A    between atoms: C_16  and  O_17
REMARK                            x       y       z     vdW  Elec       q    Type
REMARK                         _______ _______ _______ _____ _____    ______ ____
ROOT
ATOM      1  O   UNL     1      39.143 -24.812 -12.990  0.00  0.00    -0.441 OA
ATOM      2  C   UNL     1      36.711 -24.995 -12.633  0.00  0.00    +0.215 C 
ATOM      3  C   UNL     1      36.516 -25.551 -14.047  0.00  0.00    +0.203 C 
ATOM      4  C   UNL     1      37.967 -24.124 -12.542  0.00  0.00    +0.315 C 
ATOM      5  C   UNL     1      37.828 -25.916 -14.682  0.00  0.00    +0.181 C 
ATOM      6  C   UNL     1      39.004 -25.566 -14.133  0.00  0.00    +0.248 C 
ENDROOT
BRANCH   2   7
ATOM      7  O   UNL     1      36.831 -26.091 -11.727  0.00  0.00    -0.376 OA
ATOM      8  H   UNL     1      37.769 -26.301 -11.595  0.00  0.00    +0.211 HD
ENDBRANCH   2   7
BRANCH   3   9
ATOM      9  O   UNL     1      35.874 -24.561 -14.848  0.00  0.00    -0.375 OA
ATOM     10  H   UNL     1      36.143 -23.678 -14.549  0.00  0.00    +0.211 HD
ENDBRANCH   3   9
BRANCH   4  11
ATOM     11  O   UNL     1      37.764 -22.916 -13.271  0.00  0.00    -0.348 OA
ATOM     12  H   UNL     1      37.303 -22.273 -12.711  0.00  0.00    +0.214 HD
ENDBRANCH   4  11
BRANCH   5  13
ATOM     13  O   UNL     1      37.751 -26.674 -15.835  0.00  0.00    -0.505 OA
ATOM     14  H   UNL     1      37.556 -27.589 -15.781  0.00  0.00    +0.292 HD
ENDBRANCH   5  13
BRANCH   6  16
ATOM     15  O   UNL     1      41.151 -26.587 -14.176  0.00  0.00    -0.242 OA
ATOM     16  C   UNL     1      40.256 -26.005 -14.759  0.00  0.00    +0.375 C 
BRANCH  16  17
ATOM     17  O   UNL     1      40.251 -25.663 -16.064  0.00  0.00    -0.475 OA
ATOM     18  H   UNL     1      40.644 -24.859 -16.339  0.00  0.00    +0.296 HD
ENDBRANCH  16  17
ENDBRANCH   6  16
TORSDOF 6
ENDMDL
MODEL 2
REMARK VINA RESULT:      -7.1      1.498      2.155
REMARK  Name = 54688710
REMARK  6 active torsions:
REMARK  status: ('A' for Active; 'I' for Inactive)
REMARK    1  A    between atoms: C_2  and  O_7
REMARK    2  A    between atoms: C_3  and  O_9
REMARK    3  A    between atoms: C_4  and  O_11
REMARK    4  A    between atoms: C_5  and  O_13
REMARK    5  A    between atoms: C_6  and  C_16
REMARK    6  A    between atoms: C_16  and  O_17
REMARK                            x       y       z     vdW  Elec       q    Type
REMARK                         _______ _______ _______ _____ _____    ______ ____
ROOT
ATOM      1  O   UNL     1      38.464 -26.428 -13.762  0.00  0.00    -0.441 OA
ATOM      2  C   UNL     1      36.142 -25.629 -13.988  0.00  0.00    +0.215 C 
ATOM      3  C   UNL     1      36.624 -24.316 -14.615  0.00  0.00    +0.203 C 
ATOM      4  C   UNL     1      37.214 -26.243 -13.083  0.00  0.00    +0.315 C 
ATOM      5  C   UNL     1      38.081 -24.381 -14.977  0.00  0.00    +0.181 C 
ATOM      6  C   UNL     1      38.869 -25.392 -14.572  0.00  0.00    +0.248 C 
ENDROOT
BRANCH   2   7
ATOM      7  O   UNL     1      35.829 -26.545 -15.036  0.00  0.00    -0.376 OA
ATOM      8  H   UNL     1      36.508 -26.490 -15.727  0.00  0.00    +0.211 HD
ENDBRANCH   2   7
BRANCH   3   9
ATOM      9  O   UNL     1      36.425 -23.258 -13.680  0.00  0.00    -0.375 OA
ATOM     10  H   UNL     1      36.641 -22.410 -14.100  0.00  0.00    +0.211 HD
ENDBRANCH   3   9
BRANCH   4  11
ATOM     11  O   UNL     1      37.371 -25.439 -11.916  0.00  0.00    -0.348 OA
ATOM     12  H   UNL     1      36.504 -25.279 -11.514  0.00  0.00    +0.214 HD
ENDBRANCH   4  11
BRANCH   5  13
ATOM     13  O   UNL     1      38.546 -23.365 -15.791  0.00  0.00    -0.505 OA
ATOM     14  H   UNL     1      39.282 -22.850 -15.523  0.00  0.00    +0.292 HD
ENDBRANCH   5  13
BRANCH   6  16
ATOM     15  O   UNL     1      40.686 -26.149 -15.905  0.00  0.00    -0.242 OA
ATOM     16  C   UNL     1      40.269 -25.439 -15.010  0.00  0.00    +0.375 C 
BRANCH  16  17
ATOM     17  O   UNL     1      41.002 -24.583 -14.269  0.00  0.00    -0.475 OA
ATOM     18  H   UNL     1      40.836 -23.662 -14.317  0.00  0.00    +0.296 HD
ENDBRANCH  16  17
ENDBRANCH   6  16
TORSDOF 6
ENDMDL
MODEL 3
REMARK VINA RESULT:      -7.0      1.740      3.746
REMARK  Name = 54688710
REMARK  6 active torsions:
REMARK  status: ('A' for Active; 'I' for Inactive)
REMARK    1  A    between atoms: C_2  and  O_7
REMARK    2  A    between atoms: C_3  and  O_9
REMARK    3  A    between atoms: C_4  and  O_11
REMARK    4  A    between atoms: C_5  and  O_13
REMARK    5  A    between atoms: C_6  and  C_16
REMARK    6  A    between atoms: C_16  and  O_17
REMARK                            x       y       z     vdW  Elec       q    Type
REMARK                         _______ _______ _______ _____ _____    ______ ____
ROOT
ATOM      1  O   UNL     1      37.453 -23.450 -13.916  0.00  0.00    -0.441 OA
ATOM      2  C   UNL     1      36.891 -25.365 -15.364  0.00  0.00    +0.215 C 
ATOM      3  C   UNL     1      37.100 -26.342 -14.203  0.00  0.00    +0.203 C 
ATOM      4  C   UNL     1      37.713 -24.086 -15.174  0.00  0.00    +0.315 C 
ATOM      5  C   UNL     1      37.223 -25.620 -12.890  0.00  0.00    +0.181 C 
ATOM      6  C   UNL     1      37.360 -24.284 -12.825  0.00  0.00    +0.248 C 
ENDROOT
BRANCH   2   7
ATOM      7  O   UNL     1      35.506 -25.029 -15.432  0.00  0.00    -0.376 OA
ATOM      8  H   UNL     1      34.995 -25.812 -15.688  0.00  0.00    +0.211 HD
ENDBRANCH   2   7
BRANCH   3   9
ATOM      9  O   UNL     1      38.293 -27.088 -14.436  0.00  0.00    -0.375 OA
ATOM     10  H   UNL     1      38.963 -26.841 -13.779  0.00  0.00    +0.211 HD
ENDBRANCH   3   9
BRANCH   4  11
ATOM     11  O   UNL     1      39.100 -24.383 -15.329  0.00  0.00    -0.348 OA
ATOM     12  H   UNL     1      39.389 -24.126 -16.218  0.00  0.00    +0.214 HD
ENDBRANCH   4  11
BRANCH   5  13
ATOM     13  O   UNL     1      37.138 -26.408 -11.758  0.00  0.00    -0.505 OA
ATOM     14  H   UNL     1      36.406 -26.318 -11.180  0.00  0.00    +0.292 HD
ENDBRANCH   5  13
BRANCH   6  16
ATOM     15  O   UNL     1      36.731 -23.943 -10.558  0.00  0.00    -0.242 OA
ATOM     16  C   UNL     1      37.410 -23.625 -11.516  0.00  0.00    +0.375 C 
BRANCH  16  17
ATOM     17  O   UNL     1      38.315 -22.625 -11.549  0.00  0.00    -0.475 OA
ATOM     18  H   UNL     1      38.293 -21.997 -12.244  0.00  0.00    +0.296 HD
ENDBRANCH  16  17
ENDBRANCH   6  16
TORSDOF 6
ENDMDL
MODEL 4
REMARK VINA RESULT:      -6.9      1.588      2.658
REMARK  Name = 54688710
REMARK  6 active torsions:
REMARK  status: ('A' for Active; 'I' for Inactive)
REMARK    1  A    between atoms: C_2  and  O_7
REMARK    2  A    between atoms: C_3  and  O_9
REMARK    3  A    between atoms: C_4  and  O_11
REMARK    4  A    between atoms: C_5  and  O_13
REMARK    5  A    between atoms: C_6  and  C_16
REMARK    6  A    between atoms: C_16  and  O_17
REMARK                            x       y       z     vdW  Elec       q    Type
REMARK                         _______ _______ _______ _____ _____    ______ ____
ROOT
ATOM      1  O   UNL     1      37.502 -23.950 -14.265  0.00  0.00    -0.441 OA
ATOM      2  C   UNL     1      36.810 -23.152 -12.037  0.00  0.00    +0.215 C 
ATOM      3  C   UNL     1      36.465 -24.580 -11.601  0.00  0.00    +0.203 C 
ATOM      4  C   UNL     1      36.705 -22.991 -13.557  0.00  0.00    +0.315 C 
ATOM      5  C   UNL     1      36.980 -25.596 -12.582  0.00  0.00    +0.181 C 
ATOM      6  C   UNL     1      37.466 -25.239 -13.784  0.00  0.00    +0.248 C 
ENDROOT
BRANCH   2   7
ATOM      7  O   UNL     1      38.144 -22.860 -11.624  0.00  0.00    -0.376 OA
ATOM      8  H   UNL     1      38.220 -21.915 -11.419  0.00  0.00    +0.211 HD
ENDBRANCH   2   7
BRANCH   3   9
ATOM      9  O   UNL     1      35.048 -24.704 -11.505  0.00  0.00    -0.375 OA
ATOM     10  H   UNL     1      34.627 -24.116 -12.152  0.00  0.00    +0.211 HD
ENDBRANCH   3   9
BRANCH   4  11
ATOM     11  O   UNL     1      35.336 -23.062 -13.952  0.00  0.00    -0.348 OA
ATOM     12  H   UNL     1      35.004 -22.169 -14.129  0.00  0.00    +0.214 HD
ENDBRANCH   4  11
BRANCH   5  13
ATOM     13  O   UNL     1      36.968 -26.909 -12.153  0.00  0.00    -0.505 OA
ATOM     14  H   UNL     1      37.576 -27.194 -11.500  0.00  0.00    +0.292 HD
ENDBRANCH   5  13
BRANCH   6  16
ATOM     15  O   UNL     1      39.055 -26.865 -14.477  0.00  0.00    -0.242 OA
ATOM     16  C   UNL     1      38.016 -26.266 -14.676  0.00  0.00    +0.375 C 
BRANCH  16  17
ATOM     17  O   UNL     1      37.195 -26.430 -15.734  0.00  0.00    -0.475 OA
ATOM     18  H   UNL     1      36.271 -26.499 -15.602  0.00  0.00    +0.296 HD
ENDBRANCH  16  17
ENDBRANCH   6  16
TORSDOF 6
ENDMDL
MODEL 5
REMARK VINA RESULT:      -6.8      1.491      4.162
REMARK  Name = 54688710
REMARK  6 active torsions:
REMARK  status: ('A' for Active; 'I' for Inactive)
REMARK    1  A    between atoms: C_2  and  O_7
REMARK    2  A    between atoms: C_3  and  O_9
REMARK    3  A    between atoms: C_4  and  O_11
REMARK    4  A    between atoms: C_5  and  O_13
REMARK    5  A    between atoms: C_6  and  C_16
REMARK    6  A    between atoms: C_16  and  O_17
REMARK                            x       y       z     vdW  Elec       q    Type
REMARK                         _______ _______ _______ _____ _____    ______ ____
ROOT
ATOM      1  O   UNL     1      36.869 -26.456 -12.767  0.00  0.00    -0.441 OA
ATOM      2  C   UNL     1      38.418 -26.082 -14.649  0.00  0.00    +0.215 C 
ATOM      3  C   UNL     1      38.135 -24.576 -14.621  0.00  0.00    +0.203 C 
ATOM      4  C   UNL     1      37.241 -26.883 -14.084  0.00  0.00    +0.315 C 
ATOM      5  C   UNL     1      37.376 -24.181 -13.385  0.00  0.00    +0.181 C 
ATOM      6  C   UNL     1      36.837 -25.095 -12.560  0.00  0.00    +0.248 C 
ENDROOT
BRANCH   2   7
ATOM      7  O   UNL     1      39.582 -26.340 -13.865  0.00  0.00    -0.376 OA
ATOM      8  H   UNL     1      40.211 -25.609 -13.968  0.00  0.00    +0.211 HD
ENDBRANCH   2   7
BRANCH   3   9
ATOM      9  O   UNL     1      37.363 -24.230 -15.769  0.00  0.00    -0.375 OA
ATOM     10  H   UNL     1      37.936 -23.809 -16.429  0.00  0.00    +0.211 HD
ENDBRANCH   3   9
BRANCH   4  11
ATOM     11  O   UNL     1      36.137 -26.809 -14.984  0.00  0.00    -0.348 OA
ATOM     12  H   UNL     1      35.638 -25.995 -14.817  0.00  0.00    +0.214 HD
ENDBRANCH   4  11
BRANCH   5  13
ATOM     13  O   UNL     1      37.310 -22.825 -13.126  0.00  0.00    -0.505 OA
ATOM     14  H   UNL     1      37.138 -22.523 -12.256  0.00  0.00    +0.292 HD
ENDBRANCH   5  13
BRANCH   6  16
ATOM     15  O   UNL     1      35.017 -24.935 -11.038  0.00  0.00    -0.242 OA
ATOM     16  C   UNL     1      36.164 -24.656 -11.333  0.00  0.00    +0.375 C 
BRANCH  16  17
ATOM     17  O   UNL     1      37.010 -23.903 -10.599  0.00  0.00    -0.475 OA
ATOM     18  H   UNL     1      36.744 -23.057 -10.298  0.00  0.00    +0.296 HD
ENDBRANCH  16  17
ENDBRANCH   6  16
TORSDOF 6
ENDMDL
MODEL 6
REMARK VINA RESULT:      -6.8      1.753      4.316
REMARK  Name = 54688710
REMARK  6 active torsions:
REMARK  status: ('A' for Active; 'I' for Inactive)
REMARK    1  A    between atoms: C_2  and  O_7
REMARK    2  A    between atoms: C_3  and  O_9
REMARK    3  A    between atoms: C_4  and  O_11
REMARK    4  A    between atoms: C_5  and  O_13
REMARK    5  A    between atoms: C_6  and  C_16
REMARK    6  A    between atoms: C_16  and  O_17
REMARK                            x       y       z     vdW  Elec       q    Type
REMARK                         _______ _______ _______ _____ _____    ______ ____
ROOT
ATOM      1  O   UNL     1      35.529 -25.695 -15.314  0.00  0.00    -0.441 OA
ATOM      2  C   UNL     1      37.445 -26.707 -14.138  0.00  0.00    +0.215 C 
ATOM      3  C   UNL     1      38.310 -25.475 -14.425  0.00  0.00    +0.203 C 
ATOM      4  C   UNL     1      36.339 -26.871 -15.185  0.00  0.00    +0.315 C 
ATOM      5  C   UNL     1      37.485 -24.333 -14.950  0.00  0.00    +0.181 C 
ATOM      6  C   UNL     1      36.203 -24.495 -15.321  0.00  0.00    +0.248 C 
ENDROOT
BRANCH   2   7
ATOM      7  O   UNL     1      36.854 -26.557 -12.849  0.00  0.00    -0.376 OA
ATOM      8  H   UNL     1      37.530 -26.279 -12.212  0.00  0.00    +0.211 HD
ENDBRANCH   2   7
BRANCH   3   9
ATOM      9  O   UNL     1      39.295 -25.819 -15.396  0.00  0.00    -0.375 OA
ATOM     10  H   UNL     1      38.861 -26.187 -16.182  0.00  0.00    +0.211 HD
ENDBRANCH   3   9
BRANCH   4  11
ATOM     11  O   UNL     1      36.917 -27.243 -16.435  0.00  0.00    -0.348 OA
ATOM     12  H   UNL     1      36.506 -26.729 -17.147  0.00  0.00    +0.214 HD
ENDBRANCH   4  11
BRANCH   5  13
ATOM     13  O   UNL     1      38.111 -23.102 -14.979  0.00  0.00    -0.505 OA
ATOM     14  H   UNL     1      37.599 -22.317 -14.988  0.00  0.00    +0.292 HD
ENDBRANCH   5  13
BRANCH   6  16
ATOM     15  O   UNL     1      35.111 -23.112 -16.917  0.00  0.00    -0.242 OA
ATOM     16  C   UNL     1      35.425 -23.332 -15.763  0.00  0.00    +0.375 C 
BRANCH  16  17
ATOM     17  O   UNL     1      35.123 -22.561 -14.698  0.00  0.00    -0.475 OA
ATOM     18  H   UNL     1      35.484 -21.699 -14.627  0.00  0.00    +0.296 HD
ENDBRANCH  16  17
ENDBRANCH   6  16
TORSDOF 6
ENDMDL
MODEL 7
REMARK VINA RESULT:      -6.7      1.638      4.001
REMARK  Name = 54688710
REMARK  6 active torsions:
REMARK  status: ('A' for Active; 'I' for Inactive)
REMARK    1  A    between atoms: C_2  and  O_7
REMARK    2  A    between atoms: C_3  and  O_9
REMARK    3  A    between atoms: C_4  and  O_11
REMARK    4  A    between atoms: C_5  and  O_13
REMARK    5  A    between atoms: C_6  and  C_16
REMARK    6  A    between atoms: C_16  and  O_17
REMARK                            x       y       z     vdW  Elec       q    Type
REMARK                         _______ _______ _______ _____ _____    ______ ____
ROOT
ATOM      1  O   UNL     1      38.533 -24.063 -12.791  0.00  0.00    -0.441 OA
ATOM      2  C   UNL     1      37.874 -25.185 -14.886  0.00  0.00    +0.215 C 
ATOM      3  C   UNL     1      36.560 -25.657 -14.253  0.00  0.00    +0.203 C 
ATOM      4  C   UNL     1      38.956 -24.962 -13.825  0.00  0.00    +0.315 C 
ATOM      5  C   UNL     1      36.307 -24.978 -12.936  0.00  0.00    +0.181 C 
ATOM      6  C   UNL     1      37.250 -24.239 -12.326  0.00  0.00    +0.248 C 
ENDROOT
BRANCH   2   7
ATOM      7  O   UNL     1      37.631 -23.960 -15.576  0.00  0.00    -0.376 OA
ATOM      8  H   UNL     1      37.402 -24.149 -16.499  0.00  0.00    +0.211 HD
ENDBRANCH   2   7
BRANCH   3   9
ATOM      9  O   UNL     1      36.629 -27.066 -14.043  0.00  0.00    -0.375 OA
ATOM     10  H   UNL     1      36.519 -27.258 -13.098  0.00  0.00    +0.211 HD
ENDBRANCH   3   9
BRANCH   4  11
ATOM     11  O   UNL     1      39.363 -26.218 -13.286  0.00  0.00    -0.348 OA
ATOM     12  H   UNL     1      38.593 -26.802 -13.211  0.00  0.00    +0.214 HD
ENDBRANCH   4  11
BRANCH   5  13
ATOM     13  O   UNL     1      35.034 -25.121 -12.419  0.00  0.00    -0.505 OA
ATOM     14  H   UNL     1      34.372 -25.557 -12.919  0.00  0.00    +0.292 HD
ENDBRANCH   5  13
BRANCH   6  16
ATOM     15  O   UNL     1      36.370 -24.061 -10.124  0.00  0.00    -0.242 OA
ATOM     16  C   UNL     1      36.927 -23.545 -11.075  0.00  0.00    +0.375 C 
BRANCH  16  17
ATOM     17  O   UNL     1      37.342 -22.263 -11.151  0.00  0.00    -0.475 OA
ATOM     18  H   UNL     1      37.053 -21.719 -11.857  0.00  0.00    +0.296 HD
ENDBRANCH  16  17
ENDBRANCH   6  16
TORSDOF 6
ENDMDL
MODEL 8
REMARK VINA RESULT:      -6.5      1.924      2.861
REMARK  Name = 54688710
REMARK  6 active torsions:
REMARK  status: ('A' for Active; 'I' for Inactive)
REMARK    1  A    between atoms: C_2  and  O_7
REMARK    2  A    between atoms: C_3  and  O_9
REMARK    3  A    between atoms: C_4  and  O_11
REMARK    4  A    between atoms: C_5  and  O_13
REMARK    5  A    between atoms: C_6  and  C_16
REMARK    6  A    between atoms: C_16  and  O_17
REMARK                            x       y       z     vdW  Elec       q    Type
REMARK                         _______ _______ _______ _____ _____    ______ ____
ROOT
ATOM      1  O   UNL     1      36.581 -26.077 -12.747  0.00  0.00    -0.441 OA
ATOM      2  C   UNL     1      35.842 -23.785 -12.219  0.00  0.00    +0.215 C 
ATOM      3  C   UNL     1      36.391 -23.269 -13.553  0.00  0.00    +0.203 C 
ATOM      4  C   UNL     1      36.586 -25.041 -11.756  0.00  0.00    +0.315 C 
ATOM      5  C   UNL     1      36.764 -24.400 -14.470  0.00  0.00    +0.181 C 
ATOM      6  C   UNL     1      36.810 -25.674 -14.043  0.00  0.00    +0.248 C 
ENDROOT
BRANCH   2   7
ATOM      7  O   UNL     1      34.459 -24.091 -12.385  0.00  0.00    -0.376 OA
ATOM      8  H   UNL     1      34.319 -25.042 -12.252  0.00  0.00    +0.211 HD
ENDBRANCH   2   7
BRANCH   3   9
ATOM      9  O   UNL     1      37.549 -22.476 -13.300  0.00  0.00    -0.375 OA
ATOM     10  H   UNL     1      37.356 -21.547 -13.502  0.00  0.00    +0.211 HD
ENDBRANCH   3   9
BRANCH   4  11
ATOM     11  O   UNL     1      37.916 -24.695 -11.374  0.00  0.00    -0.348 OA
ATOM     12  H   UNL     1      38.548 -25.222 -11.887  0.00  0.00    +0.214 HD
ENDBRANCH   4  11
BRANCH   5  13
ATOM     13  O   UNL     1      37.006 -24.055 -15.786  0.00  0.00    -0.505 OA
ATOM     14  H   UNL     1      37.887 -23.944 -16.086  0.00  0.00    +0.292 HD
ENDBRANCH   5  13
BRANCH   6  16
ATOM     15  O   UNL     1      36.402 -27.062 -15.930  0.00  0.00    -0.242 OA
ATOM     16  C   UNL     1      37.116 -26.746 -14.997  0.00  0.00    +0.375 C 
BRANCH  16  17
ATOM     17  O   UNL     1      38.295 -27.315 -14.672  0.00  0.00    -0.475 OA
ATOM     18  H   UNL     1      38.750 -27.042 -13.900  0.00  0.00    +0.296 HD
ENDBRANCH  16  17
ENDBRANCH   6  16
TORSDOF 6
ENDMDL
MODEL 9
REMARK VINA RESULT:      -6.5      2.343      3.013
REMARK  Name = 54688710
REMARK  6 active torsions:
REMARK  status: ('A' for Active; 'I' for Inactive)
REMARK    1  A    between atoms: C_2  and  O_7
REMARK    2  A    between atoms: C_3  and  O_9
REMARK    3  A    between atoms: C_4  and  O_11
REMARK    4  A    between atoms: C_5  and  O_13
REMARK    5  A    between atoms: C_6  and  C_16
REMARK    6  A    between atoms: C_16  and  O_17
REMARK                            x       y       z     vdW  Elec       q    Type
REMARK                         _______ _______ _______ _____ _____    ______ ____
ROOT
ATOM      1  O   UNL     1      38.100 -23.647 -13.173  0.00  0.00    -0.441 OA
ATOM      2  C   UNL     1      36.492 -24.805 -11.707  0.00  0.00    +0.215 C 
ATOM      3  C   UNL     1      35.338 -24.466 -12.655  0.00  0.00    +0.203 C 
ATOM      4  C   UNL     1      37.631 -23.789 -11.825  0.00  0.00    +0.315 C 
ATOM      5  C   UNL     1      35.841 -23.930 -13.966  0.00  0.00    +0.181 C 
ATOM      6  C   UNL     1      37.130 -23.593 -14.148  0.00  0.00    +0.248 C 
ENDROOT
BRANCH   2   7
ATOM      7  O   UNL     1      36.983 -26.104 -12.036  0.00  0.00    -0.376 OA
ATOM      8  H   UNL     1      36.282 -26.616 -12.467  0.00  0.00    +0.211 HD
ENDBRANCH   2   7
BRANCH   3   9
ATOM      9  O   UNL     1      34.509 -23.482 -12.040  0.00  0.00    -0.375 OA
ATOM     10  H   UNL     1      34.998 -23.048 -11.324  0.00  0.00    +0.211 HD
ENDBRANCH   3   9
BRANCH   4  11
ATOM     11  O   UNL     1      37.211 -22.536 -11.288  0.00  0.00    -0.348 OA
ATOM     12  H   UNL     1      36.251 -22.547 -11.154  0.00  0.00    +0.214 HD
ENDBRANCH   4  11
BRANCH   5  13
ATOM     13  O   UNL     1      34.909 -23.853 -14.984  0.00  0.00    -0.505 OA
ATOM     14  H   UNL     1      34.222 -23.218 -14.942  0.00  0.00    +0.292 HD
ENDBRANCH   5  13
BRANCH   6  16
ATOM     15  O   UNL     1      36.963 -22.368 -16.178  0.00  0.00    -0.242 OA
ATOM     16  C   UNL     1      37.580 -23.138 -15.468  0.00  0.00    +0.375 C 
BRANCH  16  17
ATOM     17  O   UNL     1      38.769 -23.706 -15.758  0.00  0.00    -0.475 OA
ATOM     18  H   UNL     1      39.068 -24.445 -15.266  0.00  0.00    +0.296 HD
ENDBRANCH  16  17
ENDBRANCH   6  16
TORSDOF 6
ENDMDL
