MODEL 1
REMARK VINA RESULT:     -10.4      0.000      0.000
REMARK  Name = 6540268
REMARK  6 active torsions:
REMARK  status: ('A' for Active; 'I' for Inactive)
REMARK    1  A    between atoms: N_1  and  C_24
REMARK    2  A    between atoms: C_2  and  C_12
REMARK    3  A    between atoms: N_11  and  C_15
REMARK    4  A    between atoms: N_14  and  C_21
REMARK    5  A    between atoms: C_24  and  C_27
REMARK    6  A    between atoms: N_26  and  C_30
REMARK                            x       y       z     vdW  Elec       q    Type
REMARK                         _______ _______ _______ _____ _____    ______ ____
ROOT
ATOM      1  N   UNL     1      33.022 -23.795 -14.939  0.00  0.00    -0.275 N 
ATOM      2  C   UNL     1      32.996 -23.757 -13.593  0.00  0.00    +0.106 C 
ATOM      3  C   UNL     1      31.790 -23.409 -15.418  0.00  0.00    +0.052 C 
ATOM      4  C   UNL     1      31.782 -23.355 -13.151  0.00  0.00    +0.021 C 
ATOM      5  C   UNL     1      30.989 -23.126 -14.310  0.00  0.00    +0.015 C 
ATOM      6  C   UNL     1      31.329 -23.289 -16.733  0.00  0.00    +0.015 C 
ATOM      7  C   UNL     1      29.662 -22.702 -14.522  0.00  0.00    +0.001 C 
ATOM      8  C   UNL     1      30.009 -22.868 -16.920  0.00  0.00    +0.001 C 
ATOM      9  C   UNL     1      29.187 -22.578 -15.834  0.00  0.00    +0.000 C 
ENDROOT
BRANCH   2  12
ATOM     10  O   UNL     1      34.156 -25.110 -12.031  0.00  0.00    -0.269 OA
ATOM     11  N   UNL     1      35.228 -23.230 -12.802  0.00  0.00    -0.302 N 
ATOM     12  C   UNL     1      34.150 -24.111 -12.753  0.00  0.00    +0.260 C 
ATOM     13  H   UNL     1      35.175 -22.446 -13.396  0.00  0.00    +0.150 HD
BRANCH  11  15
ATOM     14  N   UNL     1      38.395 -24.927 -13.589  0.00  0.00    +0.388 N 
ATOM     15  C   UNL     1      36.420 -23.428 -12.010  0.00  0.00    +0.068 C 
ATOM     16  C   UNL     1      37.633 -22.761 -12.662  0.00  0.00    -0.003 C 
ATOM     17  C   UNL     1      36.695 -24.918 -11.790  0.00  0.00    -0.003 C 
ATOM     18  C   UNL     1      38.111 -23.520 -13.904  0.00  0.00    -0.076 C 
ATOM     19  C   UNL     1      37.203 -25.605 -13.061  0.00  0.00    -0.076 C 
ATOM     20  H   UNL     1      39.114 -24.947 -12.867  0.00  0.00    -0.080 HD
BRANCH  14  21
ATOM     21  C   UNL     1      38.899 -25.624 -14.772  0.00  0.00    -0.058 C 
ATOM     22  C   UNL     1      40.340 -26.060 -14.529  0.00  0.00    -0.023 C 
ATOM     23  C   UNL     1      38.011 -26.823 -15.098  0.00  0.00    -0.023 C 
ENDBRANCH  14  21
ENDBRANCH  11  15
ENDBRANCH   2  12
BRANCH   1  24
ATOM     24  C   UNL     1      34.149 -24.178 -15.764  0.00  0.00    +0.181 C 
BRANCH  24  27
ATOM     25  O   UNL     1      35.586 -22.249 -15.881  0.00  0.00    -0.273 OA
ATOM     26  N   UNL     1      34.371 -22.912 -17.779  0.00  0.00    -0.283 N 
ATOM     27  C   UNL     1      34.801 -22.994 -16.457  0.00  0.00    +0.247 C 
ATOM     28  H   UNL     1      33.732 -23.602 -18.072  0.00  0.00    +0.155 HD
BRANCH  26  30
ATOM     29 CL   UNL     1      35.936 -18.910 -21.830  0.00  0.00    -0.082 Cl
ATOM     30  C   UNL     1      34.747 -21.953 -18.749  0.00  0.00    +0.050 C 
ATOM     31  C   UNL     1      33.762 -21.315 -19.487  0.00  0.00    +0.016 C 
ATOM     32  C   UNL     1      36.089 -21.673 -18.941  0.00  0.00    +0.016 C 
ATOM     33  C   UNL     1      34.133 -20.370 -20.443  0.00  0.00    +0.013 C 
ATOM     34  C   UNL     1      36.459 -20.728 -19.898  0.00  0.00    +0.013 C 
ATOM     35  C   UNL     1      35.481 -20.076 -20.650  0.00  0.00    +0.058 C 
ENDBRANCH  26  30
ENDBRANCH  24  27
ENDBRANCH   1  24
TORSDOF 6
ENDMDL
MODEL 2
REMARK VINA RESULT:      -9.4      1.384      5.956
REMARK  Name = 6540268
REMARK  6 active torsions:
REMARK  status: ('A' for Active; 'I' for Inactive)
REMARK    1  A    between atoms: N_1  and  C_24
REMARK    2  A    between atoms: C_2  and  C_12
REMARK    3  A    between atoms: N_11  and  C_15
REMARK    4  A    between atoms: N_14  and  C_21
REMARK    5  A    between atoms: C_24  and  C_27
REMARK    6  A    between atoms: N_26  and  C_30
REMARK                            x       y       z     vdW  Elec       q    Type
REMARK                         _______ _______ _______ _____ _____    ______ ____
ROOT
ATOM      1  N   UNL     1      35.194 -24.457 -14.385  0.00  0.00    -0.275 N 
ATOM      2  C   UNL     1      34.664 -24.390 -13.148  0.00  0.00    +0.106 C 
ATOM      3  C   UNL     1      36.536 -24.741 -14.277  0.00  0.00    +0.052 C 
ATOM      4  C   UNL     1      35.611 -24.621 -12.211  0.00  0.00    +0.021 C 
ATOM      5  C   UNL     1      36.826 -24.849 -12.916  0.00  0.00    +0.015 C 
ATOM      6  C   UNL     1      37.507 -24.909 -15.271  0.00  0.00    +0.015 C 
ATOM      7  C   UNL     1      38.148 -25.140 -12.524  0.00  0.00    +0.001 C 
ATOM      8  C   UNL     1      38.812 -25.196 -14.859  0.00  0.00    +0.001 C 
ATOM      9  C   UNL     1      39.130 -25.310 -13.508  0.00  0.00    +0.000 C 
ENDROOT
BRANCH   2  12
ATOM     10  O   UNL     1      32.875 -23.083 -12.306  0.00  0.00    -0.269 OA
ATOM     11  N   UNL     1      32.342 -25.068 -13.333  0.00  0.00    -0.302 N 
ATOM     12  C   UNL     1      33.245 -24.101 -12.894  0.00  0.00    +0.260 C 
ATOM     13  H   UNL     1      32.686 -25.864 -13.799  0.00  0.00    +0.150 HD
BRANCH  11  15
ATOM     14  N   UNL     1      29.692 -23.769 -15.530  0.00  0.00    +0.388 N 
ATOM     15  C   UNL     1      30.917 -24.940 -13.127  0.00  0.00    +0.068 C 
ATOM     16  C   UNL     1      30.136 -25.774 -14.145  0.00  0.00    -0.003 C 
ATOM     17  C   UNL     1      30.479 -23.475 -13.201  0.00  0.00    -0.003 C 
ATOM     18  C   UNL     1      30.174 -25.157 -15.547  0.00  0.00    -0.076 C 
ATOM     19  C   UNL     1      30.506 -22.936 -14.634  0.00  0.00    -0.076 C 
ATOM     20  H   UNL     1      28.737 -23.774 -15.173  0.00  0.00    -0.080 HD
BRANCH  14  21
ATOM     21  C   UNL     1      29.686 -23.213 -16.882  0.00  0.00    -0.058 C 
ATOM     22  C   UNL     1      28.443 -22.349 -17.070  0.00  0.00    -0.023 C 
ATOM     23  C   UNL     1      30.957 -22.405 -17.128  0.00  0.00    -0.023 C 
ENDBRANCH  14  21
ENDBRANCH  11  15
ENDBRANCH   2  12
BRANCH   1  24
ATOM     24  C   UNL     1      34.484 -24.265 -15.633  0.00  0.00    +0.181 C 
BRANCH  24  27
ATOM     25  O   UNL     1      35.490 -22.083 -15.792  0.00  0.00    -0.273 OA
ATOM     26  N   UNL     1      34.504 -23.051 -17.691  0.00  0.00    -0.283 N 
ATOM     27  C   UNL     1      34.897 -22.996 -16.357  0.00  0.00    +0.247 C 
ATOM     28  H   UNL     1      34.033 -23.869 -17.972  0.00  0.00    +0.155 HD
BRANCH  26  30
ATOM     29 CL   UNL     1      35.334 -18.951 -21.860  0.00  0.00    -0.082 Cl
ATOM     30  C   UNL     1      34.703 -22.068 -18.690  0.00  0.00    +0.050 C 
ATOM     31  C   UNL     1      35.994 -21.696 -19.027  0.00  0.00    +0.016 C 
ATOM     32  C   UNL     1      33.602 -21.500 -19.310  0.00  0.00    +0.016 C 
ATOM     33  C   UNL     1      36.189 -20.728 -20.012  0.00  0.00    +0.013 C 
ATOM     34  C   UNL     1      33.798 -20.532 -20.294  0.00  0.00    +0.013 C 
ATOM     35  C   UNL     1      35.091 -20.145 -20.646  0.00  0.00    +0.058 C 
ENDBRANCH  26  30
ENDBRANCH  24  27
ENDBRANCH   1  24
TORSDOF 6
ENDMDL
MODEL 3
REMARK VINA RESULT:      -9.4      9.479     14.540
REMARK  Name = 6540268
REMARK  6 active torsions:
REMARK  status: ('A' for Active; 'I' for Inactive)
REMARK    1  A    between atoms: N_1  and  C_24
REMARK    2  A    between atoms: C_2  and  C_12
REMARK    3  A    between atoms: N_11  and  C_15
REMARK    4  A    between atoms: N_14  and  C_21
REMARK    5  A    between atoms: C_24  and  C_27
REMARK    6  A    between atoms: N_26  and  C_30
REMARK                            x       y       z     vdW  Elec       q    Type
REMARK                         _______ _______ _______ _____ _____    ______ ____
ROOT
ATOM      1  N   UNL     1      33.552 -14.001 -22.959  0.00  0.00    -0.275 N 
ATOM      2  C   UNL     1      32.720 -12.991 -23.282  0.00  0.00    +0.106 C 
ATOM      3  C   UNL     1      33.668 -14.843 -24.042  0.00  0.00    +0.052 C 
ATOM      4  C   UNL     1      32.273 -13.130 -24.551  0.00  0.00    +0.021 C 
ATOM      5  C   UNL     1      32.871 -14.317 -25.060  0.00  0.00    +0.015 C 
ATOM      6  C   UNL     1      34.411 -16.019 -24.196  0.00  0.00    +0.015 C 
ATOM      7  C   UNL     1      32.810 -14.995 -26.294  0.00  0.00    +0.001 C 
ATOM      8  C   UNL     1      34.335 -16.676 -25.428  0.00  0.00    +0.001 C 
ATOM      9  C   UNL     1      33.548 -16.173 -26.462  0.00  0.00    +0.000 C 
ENDROOT
BRANCH   2  12
ATOM     10  O   UNL     1      31.911 -12.124 -21.231  0.00  0.00    -0.269 OA
ATOM     11  N   UNL     1      32.562 -10.613 -22.834  0.00  0.00    -0.302 N 
ATOM     12  C   UNL     1      32.370 -11.906 -22.354  0.00  0.00    +0.260 C 
ATOM     13  H   UNL     1      32.933 -10.490 -23.738  0.00  0.00    +0.150 HD
BRANCH  11  15
ATOM     14  N   UNL     1      32.497  -7.044 -23.726  0.00  0.00    +0.388 N 
ATOM     15  C   UNL     1      32.235  -9.444 -22.049  0.00  0.00    +0.068 C 
ATOM     16  C   UNL     1      31.026  -8.708 -22.632  0.00  0.00    -0.003 C 
ATOM     17  C   UNL     1      33.431  -8.494 -21.949  0.00  0.00    -0.003 C 
ATOM     18  C   UNL     1      31.372  -7.967 -23.927  0.00  0.00    -0.076 C 
ATOM     19  C   UNL     1      33.696  -7.760 -23.267  0.00  0.00    -0.076 C 
ATOM     20  H   UNL     1      32.231  -6.379 -23.000  0.00  0.00    -0.080 HD
BRANCH  14  21
ATOM     21  C   UNL     1      32.780  -6.307 -24.957  0.00  0.00    -0.058 C 
ATOM     22  C   UNL     1      32.233  -4.888 -24.837  0.00  0.00    -0.023 C 
ATOM     23  C   UNL     1      34.282  -6.293 -25.232  0.00  0.00    -0.023 C 
ENDBRANCH  14  21
ENDBRANCH  11  15
ENDBRANCH   2  12
BRANCH   1  24
ATOM     24  C   UNL     1      34.222 -14.186 -21.689  0.00  0.00    +0.181 C 
BRANCH  24  27
ATOM     25  O   UNL     1      32.964 -15.660 -20.259  0.00  0.00    -0.273 OA
ATOM     26  N   UNL     1      34.799 -16.494 -21.465  0.00  0.00    -0.283 N 
ATOM     27  C   UNL     1      33.899 -15.520 -21.041  0.00  0.00    +0.247 C 
ATOM     28  H   UNL     1      35.493 -16.198 -22.099  0.00  0.00    +0.155 HD
BRANCH  26  30
ATOM     29 CL   UNL     1      34.947 -22.187 -19.900  0.00  0.00    -0.082 Cl
ATOM     30  C   UNL     1      34.835 -17.858 -21.090  0.00  0.00    +0.050 C 
ATOM     31  C   UNL     1      36.057 -18.460 -20.841  0.00  0.00    +0.016 C 
ATOM     32  C   UNL     1      33.647 -18.561 -20.980  0.00  0.00    +0.016 C 
ATOM     33  C   UNL     1      36.091 -19.805 -20.471  0.00  0.00    +0.013 C 
ATOM     34  C   UNL     1      33.681 -19.905 -20.611  0.00  0.00    +0.013 C 
ATOM     35  C   UNL     1      34.904 -20.529 -20.356  0.00  0.00    +0.058 C 
ENDBRANCH  26  30
ENDBRANCH  24  27
ENDBRANCH   1  24
TORSDOF 6
ENDMDL
MODEL 4
REMARK VINA RESULT:      -9.3      3.541      8.391
REMARK  Name = 6540268
REMARK  6 active torsions:
REMARK  status: ('A' for Active; 'I' for Inactive)
REMARK    1  A    between atoms: N_1  and  C_24
REMARK    2  A    between atoms: C_2  and  C_12
REMARK    3  A    between atoms: N_11  and  C_15
REMARK    4  A    between atoms: N_14  and  C_21
REMARK    5  A    between atoms: C_24  and  C_27
REMARK    6  A    between atoms: N_26  and  C_30
REMARK                            x       y       z     vdW  Elec       q    Type
REMARK                         _______ _______ _______ _____ _____    ______ ____
ROOT
ATOM      1  N   UNL     1      34.980 -22.839 -17.590  0.00  0.00    -0.275 N 
ATOM      2  C   UNL     1      35.872 -22.030 -18.196  0.00  0.00    +0.106 C 
ATOM      3  C   UNL     1      35.336 -22.979 -16.268  0.00  0.00    +0.052 C 
ATOM      4  C   UNL     1      36.818 -21.623 -17.320  0.00  0.00    +0.021 C 
ATOM      5  C   UNL     1      36.493 -22.222 -16.071  0.00  0.00    +0.015 C 
ATOM      6  C   UNL     1      34.729 -23.711 -15.242  0.00  0.00    +0.015 C 
ATOM      7  C   UNL     1      37.074 -22.192 -14.787  0.00  0.00    +0.001 C 
ATOM      8  C   UNL     1      35.323 -23.667 -13.977  0.00  0.00    +0.001 C 
ATOM      9  C   UNL     1      36.477 -22.920 -13.751  0.00  0.00    +0.000 C 
ENDROOT
BRANCH   2  12
ATOM     10  O   UNL     1      36.372 -22.309 -20.496  0.00  0.00    -0.269 OA
ATOM     11  N   UNL     1      35.046 -20.526 -19.911  0.00  0.00    -0.302 N 
ATOM     12  C   UNL     1      35.793 -21.665 -19.619  0.00  0.00    +0.260 C 
ATOM     13  H   UNL     1      34.601 -20.047 -19.175  0.00  0.00    +0.150 HD
BRANCH  11  15
ATOM     14  N   UNL     1      34.121 -17.194 -21.165  0.00  0.00    +0.388 N 
ATOM     15  C   UNL     1      34.902 -20.026 -21.259  0.00  0.00    +0.068 C 
ATOM     16  C   UNL     1      35.888 -18.888 -21.533  0.00  0.00    -0.003 C 
ATOM     17  C   UNL     1      33.470 -19.555 -21.524  0.00  0.00    -0.003 C 
ATOM     18  C   UNL     1      35.490 -17.595 -20.816  0.00  0.00    -0.076 C 
ATOM     19  C   UNL     1      33.153 -18.240 -20.806  0.00  0.00    -0.076 C 
ATOM     20  H   UNL     1      34.081 -17.062 -22.175  0.00  0.00    -0.080 HD
BRANCH  14  21
ATOM     21  C   UNL     1      33.775 -15.931 -20.513  0.00  0.00    -0.058 C 
ATOM     22  C   UNL     1      34.577 -14.797 -21.144  0.00  0.00    -0.023 C 
ATOM     23  C   UNL     1      32.275 -15.671 -20.626  0.00  0.00    -0.023 C 
ENDBRANCH  14  21
ENDBRANCH  11  15
ENDBRANCH   2  12
BRANCH   1  24
ATOM     24  C   UNL     1      33.831 -23.465 -18.211  0.00  0.00    +0.181 C 
BRANCH  24  27
ATOM     25  O   UNL     1      32.322 -21.600 -18.426  0.00  0.00    -0.273 OA
ATOM     26  N   UNL     1      31.698 -23.460 -17.135  0.00  0.00    -0.283 N 
ATOM     27  C   UNL     1      32.539 -22.711 -17.953  0.00  0.00    +0.247 C 
ATOM     28  H   UNL     1      32.040 -24.338 -16.847  0.00  0.00    +0.155 HD
BRANCH  26  30
ATOM     29 CL   UNL     1      26.319 -21.987 -15.190  0.00  0.00    -0.082 Cl
ATOM     30  C   UNL     1      30.409 -23.107 -16.669  0.00  0.00    +0.050 C 
ATOM     31  C   UNL     1      30.275 -22.543 -15.411  0.00  0.00    +0.016 C 
ATOM     32  C   UNL     1      29.309 -23.334 -17.481  0.00  0.00    +0.016 C 
ATOM     33  C   UNL     1      29.004 -22.194 -14.952  0.00  0.00    +0.013 C 
ATOM     34  C   UNL     1      28.040 -22.986 -17.022  0.00  0.00    +0.013 C 
ATOM     35  C   UNL     1      27.886 -22.416 -15.757  0.00  0.00    +0.058 C 
ENDBRANCH  26  30
ENDBRANCH  24  27
ENDBRANCH   1  24
TORSDOF 6
ENDMDL
MODEL 5
REMARK VINA RESULT:      -9.3     11.063     16.159
REMARK  Name = 6540268
REMARK  6 active torsions:
REMARK  status: ('A' for Active; 'I' for Inactive)
REMARK    1  A    between atoms: N_1  and  C_24
REMARK    2  A    between atoms: C_2  and  C_12
REMARK    3  A    between atoms: N_11  and  C_15
REMARK    4  A    between atoms: N_14  and  C_21
REMARK    5  A    between atoms: C_24  and  C_27
REMARK    6  A    between atoms: N_26  and  C_30
REMARK                            x       y       z     vdW  Elec       q    Type
REMARK                         _______ _______ _______ _____ _____    ______ ____
ROOT
ATOM      1  N   UNL     1      33.315 -12.150 -24.183  0.00  0.00    -0.275 N 
ATOM      2  C   UNL     1      33.904 -11.053 -24.698  0.00  0.00    +0.106 C 
ATOM      3  C   UNL     1      33.210 -13.102 -25.172  0.00  0.00    +0.052 C 
ATOM      4  C   UNL     1      34.198 -11.239 -26.005  0.00  0.00    +0.021 C 
ATOM      5  C   UNL     1      33.759 -12.553 -26.332  0.00  0.00    +0.015 C 
ATOM      6  C   UNL     1      32.675 -14.395 -25.128  0.00  0.00    +0.015 C 
ATOM      7  C   UNL     1      33.778 -13.330 -27.507  0.00  0.00    +0.001 C 
ATOM      8  C   UNL     1      32.704 -15.147 -26.306  0.00  0.00    +0.001 C 
ATOM      9  C   UNL     1      33.247 -14.625 -27.478  0.00  0.00    +0.000 C 
ENDROOT
BRANCH   2  12
ATOM     10  O   UNL     1      35.314  -9.412 -23.731  0.00  0.00    -0.269 OA
ATOM     11  N   UNL     1      33.055  -9.215 -23.362  0.00  0.00    -0.302 N 
ATOM     12  C   UNL     1      34.172  -9.838 -23.914  0.00  0.00    +0.260 C 
ATOM     13  H   UNL     1      32.163  -9.593 -23.537  0.00  0.00    +0.150 HD
BRANCH  11  15
ATOM     14  N   UNL     1      32.198  -5.706 -24.063  0.00  0.00    +0.388 N 
ATOM     15  C   UNL     1      33.163  -8.030 -22.542  0.00  0.00    +0.068 C 
ATOM     16  C   UNL     1      31.789  -7.398 -22.302  0.00  0.00    -0.003 C 
ATOM     17  C   UNL     1      34.109  -7.005 -23.173  0.00  0.00    -0.003 C 
ATOM     18  C   UNL     1      31.247  -6.704 -23.555  0.00  0.00    -0.076 C 
ATOM     19  C   UNL     1      33.489  -6.324 -24.397  0.00  0.00    -0.076 C 
ATOM     20  H   UNL     1      32.360  -5.023 -23.324  0.00  0.00    -0.080 HD
BRANCH  14  21
ATOM     21  C   UNL     1      31.644  -5.016 -25.228  0.00  0.00    -0.058 C 
ATOM     22  C   UNL     1      31.005  -3.704 -24.784  0.00  0.00    -0.023 C 
ATOM     23  C   UNL     1      32.735  -4.771 -26.266  0.00  0.00    -0.023 C 
ENDBRANCH  14  21
ENDBRANCH  11  15
ENDBRANCH   2  12
BRANCH   1  24
ATOM     24  C   UNL     1      32.861 -12.318 -22.818  0.00  0.00    +0.181 C 
BRANCH  24  27
ATOM     25  O   UNL     1      31.965 -14.344 -21.874  0.00  0.00    -0.273 OA
ATOM     26  N   UNL     1      34.218 -14.264 -22.531  0.00  0.00    -0.283 N 
ATOM     27  C   UNL     1      32.935 -13.759 -22.346  0.00  0.00    +0.247 C 
ATOM     28  H   UNL     1      34.876 -13.645 -22.926  0.00  0.00    +0.155 HD
BRANCH  26  30
ATOM     29 CL   UNL     1      36.180 -19.679 -21.224  0.00  0.00    -0.082 Cl
ATOM     30  C   UNL     1      34.689 -15.561 -22.218  0.00  0.00    +0.050 C 
ATOM     31  C   UNL     1      34.717 -15.970 -20.894  0.00  0.00    +0.016 C 
ATOM     32  C   UNL     1      35.110 -16.395 -23.241  0.00  0.00    +0.016 C 
ATOM     33  C   UNL     1      35.181 -17.250 -20.587  0.00  0.00    +0.013 C 
ATOM     34  C   UNL     1      35.573 -17.673 -22.933  0.00  0.00    +0.013 C 
ATOM     35  C   UNL     1      35.609 -18.102 -21.605  0.00  0.00    +0.058 C 
ENDBRANCH  26  30
ENDBRANCH  24  27
ENDBRANCH   1  24
TORSDOF 6
ENDMDL
MODEL 6
REMARK VINA RESULT:      -9.1      8.364     11.842
REMARK  Name = 6540268
REMARK  6 active torsions:
REMARK  status: ('A' for Active; 'I' for Inactive)
REMARK    1  A    between atoms: N_1  and  C_24
REMARK    2  A    between atoms: C_2  and  C_12
REMARK    3  A    between atoms: N_11  and  C_15
REMARK    4  A    between atoms: N_14  and  C_21
REMARK    5  A    between atoms: C_24  and  C_27
REMARK    6  A    between atoms: N_26  and  C_30
REMARK                            x       y       z     vdW  Elec       q    Type
REMARK                         _______ _______ _______ _____ _____    ______ ____
ROOT
ATOM      1  N   UNL     1      33.143 -14.232 -22.913  0.00  0.00    -0.275 N 
ATOM      2  C   UNL     1      33.952 -15.011 -22.169  0.00  0.00    +0.106 C 
ATOM      3  C   UNL     1      32.467 -13.371 -22.079  0.00  0.00    +0.052 C 
ATOM      4  C   UNL     1      33.841 -14.699 -20.858  0.00  0.00    +0.021 C 
ATOM      5  C   UNL     1      32.888 -13.645 -20.776  0.00  0.00    +0.015 C 
ATOM      6  C   UNL     1      31.523 -12.381 -22.375  0.00  0.00    +0.015 C 
ATOM      7  C   UNL     1      32.344 -12.894 -19.715  0.00  0.00    +0.001 C 
ATOM      8  C   UNL     1      30.997 -11.649 -21.306  0.00  0.00    +0.001 C 
ATOM      9  C   UNL     1      31.399 -11.900 -19.996  0.00  0.00    +0.000 C 
ENDROOT
BRANCH   2  12
ATOM     10  O   UNL     1      35.601 -15.816 -23.670  0.00  0.00    -0.269 OA
ATOM     11  N   UNL     1      34.691 -17.322 -22.192  0.00  0.00    -0.302 N 
ATOM     12  C   UNL     1      34.823 -16.049 -22.743  0.00  0.00    +0.260 C 
ATOM     13  H   UNL     1      34.056 -17.457 -21.452  0.00  0.00    +0.150 HD
BRANCH  11  15
ATOM     14  N   UNL     1      35.552 -20.516 -20.582  0.00  0.00    +0.388 N 
ATOM     15  C   UNL     1      35.457 -18.450 -22.671  0.00  0.00    +0.068 C 
ATOM     16  C   UNL     1      34.599 -19.717 -22.723  0.00  0.00    -0.003 C 
ATOM     17  C   UNL     1      36.693 -18.688 -21.801  0.00  0.00    -0.003 C 
ATOM     18  C   UNL     1      34.309 -20.274 -21.326  0.00  0.00    -0.076 C 
ATOM     19  C   UNL     1      36.332 -19.279 -20.435  0.00  0.00    -0.076 C 
ATOM     20  H   UNL     1      36.113 -21.179 -21.115  0.00  0.00    -0.080 HD
BRANCH  14  21
ATOM     21  C   UNL     1      35.260 -21.096 -19.271  0.00  0.00    -0.058 C 
ATOM     22  C   UNL     1      34.248 -22.226 -19.431  0.00  0.00    -0.023 C 
ATOM     23  C   UNL     1      36.544 -21.598 -18.617  0.00  0.00    -0.023 C 
ENDBRANCH  14  21
ENDBRANCH  11  15
ENDBRANCH   2  12
BRANCH   1  24
ATOM     24  C   UNL     1      32.995 -14.279 -24.353  0.00  0.00    +0.181 C 
BRANCH  24  27
ATOM     25  O   UNL     1      33.298 -12.814 -26.240  0.00  0.00    -0.273 OA
ATOM     26  N   UNL     1      33.606 -11.987 -24.064  0.00  0.00    -0.283 N 
ATOM     27  C   UNL     1      33.312 -12.953 -25.021  0.00  0.00    +0.247 C 
ATOM     28  H   UNL     1      33.569 -12.281 -23.124  0.00  0.00    +0.155 HD
BRANCH  26  30
ATOM     29 CL   UNL     1      35.044  -6.332 -24.978  0.00  0.00    -0.082 Cl
ATOM     30  C   UNL     1      33.950 -10.632 -24.282  0.00  0.00    +0.050 C 
ATOM     31  C   UNL     1      34.953 -10.326 -25.189  0.00  0.00    +0.016 C 
ATOM     32  C   UNL     1      33.278  -9.641 -23.586  0.00  0.00    +0.016 C 
ATOM     33  C   UNL     1      35.291  -8.990 -25.405  0.00  0.00    +0.013 C 
ATOM     34  C   UNL     1      33.618  -8.306 -23.802  0.00  0.00    +0.013 C 
ATOM     35  C   UNL     1      34.625  -7.979 -24.711  0.00  0.00    +0.058 C 
ENDBRANCH  26  30
ENDBRANCH  24  27
ENDBRANCH   1  24
TORSDOF 6
ENDMDL
MODEL 7
REMARK VINA RESULT:      -9.0      1.715      2.947
REMARK  Name = 6540268
REMARK  6 active torsions:
REMARK  status: ('A' for Active; 'I' for Inactive)
REMARK    1  A    between atoms: N_1  and  C_24
REMARK    2  A    between atoms: C_2  and  C_12
REMARK    3  A    between atoms: N_11  and  C_15
REMARK    4  A    between atoms: N_14  and  C_21
REMARK    5  A    between atoms: C_24  and  C_27
REMARK    6  A    between atoms: N_26  and  C_30
REMARK                            x       y       z     vdW  Elec       q    Type
REMARK                         _______ _______ _______ _____ _____    ______ ____
ROOT
ATOM      1  N   UNL     1      32.624 -23.336 -16.808  0.00  0.00    -0.275 N 
ATOM      2  C   UNL     1      33.390 -23.558 -15.722  0.00  0.00    +0.106 C 
ATOM      3  C   UNL     1      31.337 -23.076 -16.396  0.00  0.00    +0.052 C 
ATOM      4  C   UNL     1      32.656 -23.455 -14.591  0.00  0.00    +0.021 C 
ATOM      5  C   UNL     1      31.329 -23.145 -15.002  0.00  0.00    +0.015 C 
ATOM      6  C   UNL     1      30.190 -22.788 -17.144  0.00  0.00    +0.015 C 
ATOM      7  C   UNL     1      30.118 -22.916 -14.317  0.00  0.00    +0.001 C 
ATOM      8  C   UNL     1      29.000 -22.564 -16.444  0.00  0.00    +0.001 C 
ATOM      9  C   UNL     1      28.963 -22.627 -15.053  0.00  0.00    +0.000 C 
ENDROOT
BRANCH   2  12
ATOM     10  O   UNL     1      35.631 -23.123 -16.361  0.00  0.00    -0.269 OA
ATOM     11  N   UNL     1      35.217 -25.073 -15.218  0.00  0.00    -0.302 N 
ATOM     12  C   UNL     1      34.826 -23.867 -15.798  0.00  0.00    +0.260 C 
ATOM     13  H   UNL     1      34.537 -25.633 -14.780  0.00  0.00    +0.150 HD
BRANCH  11  15
ATOM     14  N   UNL     1      37.955 -24.607 -12.806  0.00  0.00    +0.388 N 
ATOM     15  C   UNL     1      36.588 -25.527 -15.241  0.00  0.00    +0.068 C 
ATOM     16  C   UNL     1      36.882 -26.454 -14.058  0.00  0.00    -0.003 C 
ATOM     17  C   UNL     1      37.562 -24.346 -15.237  0.00  0.00    -0.003 C 
ATOM     18  C   UNL     1      36.965 -25.689 -12.734  0.00  0.00    -0.076 C 
ATOM     19  C   UNL     1      37.622 -23.652 -13.873  0.00  0.00    -0.076 C 
ATOM     20  H   UNL     1      38.859 -25.023 -13.029  0.00  0.00    -0.080 HD
BRANCH  14  21
ATOM     21  C   UNL     1      38.059 -23.920 -11.519  0.00  0.00    -0.058 C 
ATOM     22  C   UNL     1      38.540 -22.490 -11.743  0.00  0.00    -0.023 C 
ATOM     23  C   UNL     1      36.714 -23.940 -10.799  0.00  0.00    -0.023 C 
ENDBRANCH  14  21
ENDBRANCH  11  15
ENDBRANCH   2  12
BRANCH   1  24
ATOM     24  C   UNL     1      33.065 -23.361 -18.187  0.00  0.00    +0.181 C 
BRANCH  24  27
ATOM     25  O   UNL     1      32.161 -21.188 -18.695  0.00  0.00    -0.273 OA
ATOM     26  N   UNL     1      34.265 -21.800 -19.541  0.00  0.00    -0.283 N 
ATOM     27  C   UNL     1      33.085 -21.984 -18.825  0.00  0.00    +0.247 C 
ATOM     28  H   UNL     1      34.898 -22.555 -19.536  0.00  0.00    +0.155 HD
BRANCH  26  30
ATOM     29 CL   UNL     1      35.914 -17.026 -22.601  0.00  0.00    -0.082 Cl
ATOM     30  C   UNL     1      34.660 -20.656 -20.274  0.00  0.00    +0.050 C 
ATOM     31  C   UNL     1      35.997 -20.294 -20.295  0.00  0.00    +0.016 C 
ATOM     32  C   UNL     1      33.702 -19.923 -20.955  0.00  0.00    +0.016 C 
ATOM     33  C   UNL     1      36.386 -19.166 -21.019  0.00  0.00    +0.013 C 
ATOM     34  C   UNL     1      34.091 -18.796 -21.677  0.00  0.00    +0.013 C 
ATOM     35  C   UNL     1      35.433 -18.416 -21.709  0.00  0.00    +0.058 C 
ENDBRANCH  26  30
ENDBRANCH  24  27
ENDBRANCH   1  24
TORSDOF 6
ENDMDL
MODEL 8
REMARK VINA RESULT:      -8.8      1.673      2.359
REMARK  Name = 6540268
REMARK  6 active torsions:
REMARK  status: ('A' for Active; 'I' for Inactive)
REMARK    1  A    between atoms: N_1  and  C_24
REMARK    2  A    between atoms: C_2  and  C_12
REMARK    3  A    between atoms: N_11  and  C_15
REMARK    4  A    between atoms: N_14  and  C_21
REMARK    5  A    between atoms: C_24  and  C_27
REMARK    6  A    between atoms: N_26  and  C_30
REMARK                            x       y       z     vdW  Elec       q    Type
REMARK                         _______ _______ _______ _____ _____    ______ ____
ROOT
ATOM      1  N   UNL     1      32.637 -23.362 -16.682  0.00  0.00    -0.275 N 
ATOM      2  C   UNL     1      33.426 -23.111 -15.619  0.00  0.00    +0.106 C 
ATOM      3  C   UNL     1      31.350 -23.570 -16.239  0.00  0.00    +0.052 C 
ATOM      4  C   UNL     1      32.707 -23.145 -14.473  0.00  0.00    +0.021 C 
ATOM      5  C   UNL     1      31.367 -23.439 -14.849  0.00  0.00    +0.015 C 
ATOM      6  C   UNL     1      30.184 -23.861 -16.956  0.00  0.00    +0.015 C 
ATOM      7  C   UNL     1      30.162 -23.605 -14.137  0.00  0.00    +0.001 C 
ATOM      8  C   UNL     1      29.001 -24.022 -16.229  0.00  0.00    +0.001 C 
ATOM      9  C   UNL     1      28.988 -23.897 -14.841  0.00  0.00    +0.000 C 
ENDROOT
BRANCH   2  12
ATOM     10  O   UNL     1      35.466 -22.897 -16.807  0.00  0.00    -0.269 OA
ATOM     11  N   UNL     1      35.524 -22.556 -14.535  0.00  0.00    -0.302 N 
ATOM     12  C   UNL     1      34.868 -22.844 -15.730  0.00  0.00    +0.260 C 
ATOM     13  H   UNL     1      35.003 -22.524 -13.701  0.00  0.00    +0.150 HD
BRANCH  11  15
ATOM     14  N   UNL     1      38.342 -24.764 -13.687  0.00  0.00    +0.388 N 
ATOM     15  C   UNL     1      36.946 -22.301 -14.481  0.00  0.00    +0.068 C 
ATOM     16  C   UNL     1      37.702 -23.181 -15.480  0.00  0.00    -0.003 C 
ATOM     17  C   UNL     1      37.492 -22.522 -13.068  0.00  0.00    -0.003 C 
ATOM     18  C   UNL     1      37.761 -24.644 -15.031  0.00  0.00    -0.076 C 
ATOM     19  C   UNL     1      37.559 -24.007 -12.700  0.00  0.00    -0.076 C 
ATOM     20  H   UNL     1      39.280 -24.366 -13.714  0.00  0.00    -0.080 HD
BRANCH  14  21
ATOM     21  C   UNL     1      38.439 -26.169 -13.294  0.00  0.00    -0.058 C 
ATOM     22  C   UNL     1      37.599 -26.407 -12.044  0.00  0.00    -0.023 C 
ATOM     23  C   UNL     1      37.985 -27.071 -14.439  0.00  0.00    -0.023 C 
ENDBRANCH  14  21
ENDBRANCH  11  15
ENDBRANCH   2  12
BRANCH   1  24
ATOM     24  C   UNL     1      33.055 -23.408 -18.067  0.00  0.00    +0.181 C 
BRANCH  24  27
ATOM     25  O   UNL     1      32.069 -21.289 -18.647  0.00  0.00    -0.273 OA
ATOM     26  N   UNL     1      34.218 -21.826 -19.428  0.00  0.00    -0.283 N 
ATOM     27  C   UNL     1      33.030 -22.046 -18.737  0.00  0.00    +0.247 C 
ATOM     28  H   UNL     1      34.884 -22.551 -19.391  0.00  0.00    +0.155 HD
BRANCH  26  30
ATOM     29 CL   UNL     1      35.728 -17.050 -22.558  0.00  0.00    -0.082 Cl
ATOM     30  C   UNL     1      34.580 -20.681 -20.178  0.00  0.00    +0.050 C 
ATOM     31  C   UNL     1      33.591 -19.945 -20.810  0.00  0.00    +0.016 C 
ATOM     32  C   UNL     1      35.915 -20.322 -20.265  0.00  0.00    +0.016 C 
ATOM     33  C   UNL     1      33.949 -18.816 -21.548  0.00  0.00    +0.013 C 
ATOM     34  C   UNL     1      36.272 -19.195 -21.003  0.00  0.00    +0.013 C 
ATOM     35  C   UNL     1      35.289 -18.441 -21.646  0.00  0.00    +0.058 C 
ENDBRANCH  26  30
ENDBRANCH  24  27
ENDBRANCH   1  24
TORSDOF 6
ENDMDL
MODEL 9
REMARK VINA RESULT:      -8.4      2.908      7.311
REMARK  Name = 6540268
REMARK  6 active torsions:
REMARK  status: ('A' for Active; 'I' for Inactive)
REMARK    1  A    between atoms: N_1  and  C_24
REMARK    2  A    between atoms: C_2  and  C_12
REMARK    3  A    between atoms: N_11  and  C_15
REMARK    4  A    between atoms: N_14  and  C_21
REMARK    5  A    between atoms: C_24  and  C_27
REMARK    6  A    between atoms: N_26  and  C_30
REMARK                            x       y       z     vdW  Elec       q    Type
REMARK                         _______ _______ _______ _____ _____    ______ ____
ROOT
ATOM      1  N   UNL     1      34.381 -23.969 -14.598  0.00  0.00    -0.275 N 
ATOM      2  C   UNL     1      34.890 -23.492 -15.750  0.00  0.00    +0.106 C 
ATOM      3  C   UNL     1      35.268 -23.707 -13.579  0.00  0.00    +0.052 C 
ATOM      4  C   UNL     1      36.095 -22.916 -15.536  0.00  0.00    +0.021 C 
ATOM      5  C   UNL     1      36.359 -23.043 -14.144  0.00  0.00    +0.015 C 
ATOM      6  C   UNL     1      35.189 -24.003 -12.213  0.00  0.00    +0.015 C 
ATOM      7  C   UNL     1      37.425 -22.655 -13.308  0.00  0.00    +0.001 C 
ATOM      8  C   UNL     1      36.258 -23.609 -11.403  0.00  0.00    +0.001 C 
ATOM      9  C   UNL     1      37.360 -22.945 -11.940  0.00  0.00    +0.000 C 
ENDROOT
BRANCH   2  12
ATOM     10  O   UNL     1      33.437 -24.535 -17.305  0.00  0.00    -0.269 OA
ATOM     11  N   UNL     1      34.485 -22.602 -17.970  0.00  0.00    -0.302 N 
ATOM     12  C   UNL     1      34.200 -23.603 -17.044  0.00  0.00    +0.260 C 
ATOM     13  H   UNL     1      35.101 -21.877 -17.714  0.00  0.00    +0.150 HD
BRANCH  11  15
ATOM     14  N   UNL     1      34.939 -20.279 -20.787  0.00  0.00    +0.388 N 
ATOM     15  C   UNL     1      33.907 -22.593 -19.295  0.00  0.00    +0.068 C 
ATOM     16  C   UNL     1      34.989 -22.720 -20.370  0.00  0.00    -0.003 C 
ATOM     17  C   UNL     1      33.081 -21.325 -19.528  0.00  0.00    -0.003 C 
ATOM     18  C   UNL     1      35.808 -21.433 -20.519  0.00  0.00    -0.076 C 
ATOM     19  C   UNL     1      33.964 -20.086 -19.705  0.00  0.00    -0.076 C 
ATOM     20  H   UNL     1      34.422 -20.469 -21.645  0.00  0.00    -0.080 HD
BRANCH  14  21
ATOM     21  C   UNL     1      35.739 -19.070 -20.978  0.00  0.00    -0.058 C 
ATOM     22  C   UNL     1      37.201 -19.374 -20.668  0.00  0.00    -0.023 C 
ATOM     23  C   UNL     1      35.578 -18.549 -22.404  0.00  0.00    -0.023 C 
ENDBRANCH  14  21
ENDBRANCH  11  15
ENDBRANCH   2  12
BRANCH   1  24
ATOM     24  C   UNL     1      33.111 -24.648 -14.438  0.00  0.00    +0.181 C 
BRANCH  24  27
ATOM     25  O   UNL     1      31.844 -22.724 -13.736  0.00  0.00    -0.273 OA
ATOM     26  N   UNL     1      31.009 -24.110 -15.438  0.00  0.00    -0.283 N 
ATOM     27  C   UNL     1      31.927 -23.699 -14.476  0.00  0.00    +0.247 C 
ATOM     28  H   UNL     1      31.242 -24.925 -15.941  0.00  0.00    +0.155 HD
BRANCH  26  30
ATOM     29 CL   UNL     1      25.881 -21.544 -16.852  0.00  0.00    -0.082 Cl
ATOM     30  C   UNL     1      29.780 -23.495 -15.777  0.00  0.00    +0.050 C 
ATOM     31  C   UNL     1      29.162 -23.829 -16.971  0.00  0.00    +0.016 C 
ATOM     32  C   UNL     1      29.222 -22.573 -14.907  0.00  0.00    +0.016 C 
ATOM     33  C   UNL     1      27.950 -23.223 -17.304  0.00  0.00    +0.013 C 
ATOM     34  C   UNL     1      28.011 -21.967 -15.241  0.00  0.00    +0.013 C 
ATOM     35  C   UNL     1      27.375 -22.291 -16.440  0.00  0.00    +0.058 C 
ENDBRANCH  26  30
ENDBRANCH  24  27
ENDBRANCH   1  24
TORSDOF 6
ENDMDL
