MODEL 1
REMARK VINA RESULT:     -10.2      0.000      0.000
REMARK  Name = 6323390
REMARK  5 active torsions:
REMARK  status: ('A' for Active; 'I' for Inactive)
REMARK    1  A    between atoms: C_5  and  C_16
REMARK    2  A    between atoms: C_8  and  C_24
REMARK    3  A    between atoms: C_16  and  S_17
REMARK    4  A    between atoms: S_17  and  C_18
REMARK    5  A    between atoms: C_24  and  N_25
REMARK                            x       y       z     vdW  Elec       q    Type
REMARK                         _______ _______ _______ _____ _____    ______ ____
ROOT
ATOM      1  O   UNL     1      30.760 -23.893 -12.926  0.00  0.00    -0.209 OA
ATOM      2  N   UNL     1      31.050 -22.961 -16.811  0.00  0.00    -0.275 N 
ATOM      3  N   UNL     1      29.711 -23.282 -14.870  0.00  0.00    -0.302 NA
ATOM      4  N   UNL     1      28.780 -22.653 -16.926  0.00  0.00    -0.320 N 
ATOM      5  C   UNL     1      33.471 -23.264 -16.775  0.00  0.00    +0.003 C 
ATOM      6  C   UNL     1      32.230 -23.273 -16.134  0.00  0.00    +0.060 C 
ATOM      7  C   UNL     1      32.162 -23.604 -14.774  0.00  0.00    +0.108 C 
ATOM      8  C   UNL     1      34.554 -23.911 -14.710  0.00  0.00    -0.044 C 
ATOM      9  C   UNL     1      34.630 -23.582 -16.064  0.00  0.00    -0.008 C 
ATOM     10  C   UNL     1      33.320 -23.923 -14.060  0.00  0.00    +0.008 C 
ATOM     11  C   UNL     1      30.827 -23.605 -14.117  0.00  0.00    +0.208 C 
ATOM     12  C   UNL     1      29.852 -22.984 -16.135  0.00  0.00    +0.248 C 
ATOM     13  H   UNL     1      31.075 -22.727 -17.767  0.00  0.00    +0.156 HD
ATOM     14  H   UNL     1      28.919 -22.433 -17.875  0.00  0.00    +0.146 HD
ATOM     15  H   UNL     1      27.873 -22.636 -16.545  0.00  0.00    +0.146 HD
ENDROOT
BRANCH   5  16
ATOM     16  C   UNL     1      33.599 -22.918 -18.223  0.00  0.00    +0.090 C 
BRANCH  16  17
ATOM     17  S   UNL     1      35.230 -22.228 -18.630  0.00  0.00    -0.109 S 
BRANCH  17  18
ATOM     18  C   UNL     1      34.749 -20.976 -19.779  0.00  0.00    +0.026 C 
ATOM     19  C   UNL     1      33.393 -20.697 -20.005  0.00  0.00    +0.006 C 
ATOM     20  C   UNL     1      35.717 -20.243 -20.483  0.00  0.00    +0.006 C 
ATOM     21  C   UNL     1      33.012 -19.709 -20.913  0.00  0.00    +0.001 C 
ATOM     22  C   UNL     1      35.337 -19.254 -21.390  0.00  0.00    +0.001 C 
ATOM     23  C   UNL     1      33.985 -18.986 -21.605  0.00  0.00    +0.000 C 
ENDBRANCH  17  18
ENDBRANCH  16  17
ENDBRANCH   5  16
BRANCH   8  24
ATOM     24  C   UNL     1      35.796 -24.250 -13.956  0.00  0.00    -0.059 C 
BRANCH  24  25
ATOM     25  N   UNL     1      36.067 -25.665 -13.958  0.00  0.00    +0.383 N 
ATOM     26  H   UNL     1      36.202 -25.986 -12.999  0.00  0.00    -0.089 HD
ATOM     27  H   UNL     1      36.911 -25.849 -14.500  0.00  0.00    -0.089 HD
ATOM     28  H   UNL     1      35.280 -26.162 -14.374  0.00  0.00    -0.089 HD
ENDBRANCH  24  25
ENDBRANCH   8  24
TORSDOF 5
ENDMDL
MODEL 2
REMARK VINA RESULT:     -10.0      2.201      4.614
REMARK  Name = 6323390
REMARK  5 active torsions:
REMARK  status: ('A' for Active; 'I' for Inactive)
REMARK    1  A    between atoms: C_5  and  C_16
REMARK    2  A    between atoms: C_8  and  C_24
REMARK    3  A    between atoms: C_16  and  S_17
REMARK    4  A    between atoms: S_17  and  C_18
REMARK    5  A    between atoms: C_24  and  N_25
REMARK                            x       y       z     vdW  Elec       q    Type
REMARK                         _______ _______ _______ _____ _____    ______ ____
ROOT
ATOM      1  O   UNL     1      36.104 -25.477 -11.817  0.00  0.00    -0.209 OA
ATOM      2  N   UNL     1      36.954 -24.084 -15.476  0.00  0.00    -0.275 N 
ATOM      3  N   UNL     1      37.665 -25.130 -13.459  0.00  0.00    -0.302 NA
ATOM      4  N   UNL     1      39.146 -24.713 -15.227  0.00  0.00    -0.320 N 
ATOM      5  C   UNL     1      34.642 -23.387 -15.824  0.00  0.00    +0.003 C 
ATOM      6  C   UNL     1      35.636 -23.966 -15.032  0.00  0.00    +0.060 C 
ATOM      7  C   UNL     1      35.306 -24.444 -13.757  0.00  0.00    +0.108 C 
ATOM      8  C   UNL     1      33.014 -23.765 -14.074  0.00  0.00    -0.044 C 
ATOM      9  C   UNL     1      33.334 -23.287 -15.345  0.00  0.00    -0.008 C 
ATOM     10  C   UNL     1      33.998 -24.345 -13.274  0.00  0.00    +0.008 C 
ATOM     11  C   UNL     1      36.386 -25.056 -12.935  0.00  0.00    +0.208 C 
ATOM     12  C   UNL     1      37.898 -24.662 -14.658  0.00  0.00    +0.248 C 
ATOM     13  H   UNL     1      37.207 -23.754 -16.368  0.00  0.00    +0.156 HD
ATOM     14  H   UNL     1      39.289 -24.353 -16.131  0.00  0.00    +0.146 HD
ATOM     15  H   UNL     1      39.898 -25.109 -14.730  0.00  0.00    +0.146 HD
ENDROOT
BRANCH   5  16
ATOM     16  C   UNL     1      34.940 -22.863 -17.191  0.00  0.00    +0.090 C 
BRANCH  16  17
ATOM     17  S   UNL     1      33.464 -22.807 -18.250  0.00  0.00    -0.109 S 
BRANCH  17  18
ATOM     18  C   UNL     1      33.946 -21.530 -19.370  0.00  0.00    +0.026 C 
ATOM     19  C   UNL     1      35.298 -21.331 -19.687  0.00  0.00    +0.006 C 
ATOM     20  C   UNL     1      32.983 -20.695 -19.957  0.00  0.00    +0.006 C 
ATOM     21  C   UNL     1      35.679 -20.322 -20.572  0.00  0.00    +0.001 C 
ATOM     22  C   UNL     1      33.363 -19.686 -20.842  0.00  0.00    +0.001 C 
ATOM     23  C   UNL     1      34.711 -19.500 -21.150  0.00  0.00    +0.000 C 
ENDBRANCH  17  18
ENDBRANCH  16  17
ENDBRANCH   5  16
BRANCH   8  24
ATOM     24  C   UNL     1      31.615 -23.654 -13.568  0.00  0.00    -0.059 C 
BRANCH  24  25
ATOM     25  N   UNL     1      30.987 -24.941 -13.411  0.00  0.00    +0.383 N 
ATOM     26  H   UNL     1      30.210 -24.863 -12.754  0.00  0.00    -0.089 HD
ATOM     27  H   UNL     1      31.668 -25.610 -13.051  0.00  0.00    -0.089 HD
ATOM     28  H   UNL     1      30.639 -25.263 -14.313  0.00  0.00    -0.089 HD
ENDBRANCH  24  25
ENDBRANCH   8  24
TORSDOF 5
ENDMDL
MODEL 3
REMARK VINA RESULT:      -9.5      7.546     10.513
REMARK  Name = 6323390
REMARK  5 active torsions:
REMARK  status: ('A' for Active; 'I' for Inactive)
REMARK    1  A    between atoms: C_5  and  C_16
REMARK    2  A    between atoms: C_8  and  C_24
REMARK    3  A    between atoms: C_16  and  S_17
REMARK    4  A    between atoms: S_17  and  C_18
REMARK    5  A    between atoms: C_24  and  N_25
REMARK                            x       y       z     vdW  Elec       q    Type
REMARK                         _______ _______ _______ _____ _____    ______ ____
ROOT
ATOM      1  O   UNL     1      34.654 -18.170 -25.845  0.00  0.00    -0.209 OA
ATOM      2  N   UNL     1      33.674 -14.826 -23.869  0.00  0.00    -0.275 N 
ATOM      3  N   UNL     1      33.754 -16.063 -25.902  0.00  0.00    -0.302 NA
ATOM      4  N   UNL     1      32.859 -13.899 -25.803  0.00  0.00    -0.320 N 
ATOM      5  C   UNL     1      34.515 -15.737 -21.768  0.00  0.00    +0.003 C 
ATOM      6  C   UNL     1      34.268 -15.855 -23.138  0.00  0.00    +0.060 C 
ATOM      7  C   UNL     1      34.622 -17.038 -23.800  0.00  0.00    +0.108 C 
ATOM      8  C   UNL     1      35.461 -17.964 -21.736  0.00  0.00    -0.044 C 
ATOM      9  C   UNL     1      35.111 -16.790 -21.070  0.00  0.00    -0.008 C 
ATOM     10  C   UNL     1      35.219 -18.093 -23.104  0.00  0.00    +0.008 C 
ATOM     11  C   UNL     1      34.346 -17.136 -25.259  0.00  0.00    +0.208 C 
ATOM     12  C   UNL     1      33.451 -14.990 -25.218  0.00  0.00    +0.248 C 
ATOM     13  H   UNL     1      33.418 -13.986 -23.424  0.00  0.00    +0.156 HD
ATOM     14  H   UNL     1      32.643 -13.107 -25.261  0.00  0.00    +0.146 HD
ATOM     15  H   UNL     1      32.652 -13.908 -26.765  0.00  0.00    +0.146 HD
ENDROOT
BRANCH   5  16
ATOM     16  C   UNL     1      34.155 -14.498 -21.015  0.00  0.00    +0.090 C 
BRANCH  16  17
ATOM     17  S   UNL     1      32.400 -14.458 -20.543  0.00  0.00    -0.109 S 
BRANCH  17  18
ATOM     18  C   UNL     1      32.048 -12.753 -20.841  0.00  0.00    +0.026 C 
ATOM     19  C   UNL     1      31.810 -11.876 -19.772  0.00  0.00    +0.006 C 
ATOM     20  C   UNL     1      32.001 -12.252 -22.151  0.00  0.00    +0.006 C 
ATOM     21  C   UNL     1      31.531 -10.529 -20.008  0.00  0.00    +0.001 C 
ATOM     22  C   UNL     1      31.724 -10.907 -22.387  0.00  0.00    +0.001 C 
ATOM     23  C   UNL     1      31.489 -10.044 -21.315  0.00  0.00    +0.000 C 
ENDBRANCH  17  18
ENDBRANCH  16  17
ENDBRANCH   5  16
BRANCH   8  24
ATOM     24  C   UNL     1      36.098 -19.084 -20.985  0.00  0.00    -0.059 C 
BRANCH  24  25
ATOM     25  N   UNL     1      35.126 -19.956 -20.376  0.00  0.00    +0.383 N 
ATOM     26  H   UNL     1      35.498 -20.321 -19.498  0.00  0.00    -0.089 HD
ATOM     27  H   UNL     1      34.923 -20.732 -21.006  0.00  0.00    -0.089 HD
ATOM     28  H   UNL     1      34.269 -19.435 -20.192  0.00  0.00    -0.089 HD
ENDBRANCH  24  25
ENDBRANCH   8  24
TORSDOF 5
ENDMDL
MODEL 4
REMARK VINA RESULT:      -9.5      1.234      3.930
REMARK  Name = 6323390
REMARK  5 active torsions:
REMARK  status: ('A' for Active; 'I' for Inactive)
REMARK    1  A    between atoms: C_5  and  C_16
REMARK    2  A    between atoms: C_8  and  C_24
REMARK    3  A    between atoms: C_16  and  S_17
REMARK    4  A    between atoms: S_17  and  C_18
REMARK    5  A    between atoms: C_24  and  N_25
REMARK                            x       y       z     vdW  Elec       q    Type
REMARK                         _______ _______ _______ _____ _____    ______ ____
ROOT
ATOM      1  O   UNL     1      33.950 -24.016 -12.438  0.00  0.00    -0.209 OA
ATOM      2  N   UNL     1      35.506 -23.826 -16.124  0.00  0.00    -0.275 N 
ATOM      3  N   UNL     1      35.789 -24.207 -13.791  0.00  0.00    -0.302 NA
ATOM      4  N   UNL     1      37.576 -24.371 -15.298  0.00  0.00    -0.320 N 
ATOM      5  C   UNL     1      33.340 -23.246 -17.085  0.00  0.00    +0.003 C 
ATOM      6  C   UNL     1      34.143 -23.563 -15.987  0.00  0.00    +0.060 C 
ATOM      7  C   UNL     1      33.567 -23.622 -14.710  0.00  0.00    +0.108 C 
ATOM      8  C   UNL     1      31.414 -23.049 -15.633  0.00  0.00    -0.044 C 
ATOM      9  C   UNL     1      31.979 -22.990 -16.907  0.00  0.00    -0.008 C 
ATOM     10  C   UNL     1      32.206 -23.365 -14.530  0.00  0.00    +0.008 C 
ATOM     11  C   UNL     1      34.447 -23.963 -13.559  0.00  0.00    +0.208 C 
ATOM     12  C   UNL     1      36.255 -24.134 -15.011  0.00  0.00    +0.248 C 
ATOM     13  H   UNL     1      35.931 -23.790 -17.012  0.00  0.00    +0.156 HD
ATOM     14  H   UNL     1      37.896 -24.308 -16.227  0.00  0.00    +0.146 HD
ATOM     15  H   UNL     1      38.203 -24.602 -14.576  0.00  0.00    +0.146 HD
ENDROOT
BRANCH   5  16
ATOM     16  C   UNL     1      33.903 -23.172 -18.467  0.00  0.00    +0.090 C 
BRANCH  16  17
ATOM     17  S   UNL     1      35.337 -22.061 -18.573  0.00  0.00    -0.109 S 
BRANCH  17  18
ATOM     18  C   UNL     1      34.752 -20.931 -19.797  0.00  0.00    +0.026 C 
ATOM     19  C   UNL     1      33.376 -20.725 -19.980  0.00  0.00    +0.006 C 
ATOM     20  C   UNL     1      35.655 -20.224 -20.606  0.00  0.00    +0.006 C 
ATOM     21  C   UNL     1      32.913 -19.833 -20.947  0.00  0.00    +0.001 C 
ATOM     22  C   UNL     1      35.193 -19.331 -21.572  0.00  0.00    +0.001 C 
ATOM     23  C   UNL     1      33.822 -19.135 -21.743  0.00  0.00    +0.000 C 
ENDBRANCH  17  18
ENDBRANCH  16  17
ENDBRANCH   5  16
BRANCH   8  24
ATOM     24  C   UNL     1      29.959 -22.774 -15.451  0.00  0.00    -0.059 C 
BRANCH  24  25
ATOM     25  N   UNL     1      29.273 -22.606 -16.706  0.00  0.00    +0.383 N 
ATOM     26  H   UNL     1      29.281 -21.620 -16.969  0.00  0.00    -0.089 HD
ATOM     27  H   UNL     1      28.308 -22.924 -16.612  0.00  0.00    -0.089 HD
ATOM     28  H   UNL     1      29.742 -23.154 -17.427  0.00  0.00    -0.089 HD
ENDBRANCH  24  25
ENDBRANCH   8  24
TORSDOF 5
ENDMDL
MODEL 5
REMARK VINA RESULT:      -9.3      9.209     12.276
REMARK  Name = 6323390
REMARK  5 active torsions:
REMARK  status: ('A' for Active; 'I' for Inactive)
REMARK    1  A    between atoms: C_5  and  C_16
REMARK    2  A    between atoms: C_8  and  C_24
REMARK    3  A    between atoms: C_16  and  S_17
REMARK    4  A    between atoms: S_17  and  C_18
REMARK    5  A    between atoms: C_24  and  N_25
REMARK                            x       y       z     vdW  Elec       q    Type
REMARK                         _______ _______ _______ _____ _____    ______ ____
ROOT
ATOM      1  O   UNL     1      34.640 -17.055 -25.563  0.00  0.00    -0.209 OA
ATOM      2  N   UNL     1      32.646 -13.593 -25.268  0.00  0.00    -0.275 N 
ATOM      3  N   UNL     1      33.527 -15.349 -26.613  0.00  0.00    -0.302 NA
ATOM      4  N   UNL     1      32.361 -13.542 -27.543  0.00  0.00    -0.320 N 
ATOM      5  C   UNL     1      32.901 -13.572 -22.842  0.00  0.00    +0.003 C 
ATOM      6  C   UNL     1      33.114 -14.170 -24.086  0.00  0.00    +0.060 C 
ATOM      7  C   UNL     1      33.815 -15.381 -24.155  0.00  0.00    +0.108 C 
ATOM      8  C   UNL     1      34.083 -15.385 -21.758  0.00  0.00    -0.044 C 
ATOM      9  C   UNL     1      33.385 -14.180 -21.681  0.00  0.00    -0.008 C 
ATOM     10  C   UNL     1      34.301 -15.990 -22.995  0.00  0.00    +0.008 C 
ATOM     11  C   UNL     1      34.027 -15.994 -25.495  0.00  0.00    +0.208 C 
ATOM     12  C   UNL     1      32.882 -14.221 -26.470  0.00  0.00    +0.248 C 
ATOM     13  H   UNL     1      32.152 -12.742 -25.242  0.00  0.00    +0.156 HD
ATOM     14  H   UNL     1      31.880 -12.695 -27.404  0.00  0.00    +0.146 HD
ATOM     15  H   UNL     1      32.469 -13.902 -28.453  0.00  0.00    +0.146 HD
ENDROOT
BRANCH   5  16
ATOM     16  C   UNL     1      32.158 -12.282 -22.712  0.00  0.00    +0.090 C 
BRANCH  16  17
ATOM     17  S   UNL     1      31.705 -11.912 -20.992  0.00  0.00    -0.109 S 
BRANCH  17  18
ATOM     18  C   UNL     1      31.862 -10.154 -21.011  0.00  0.00    +0.026 C 
ATOM     19  C   UNL     1      31.974  -9.433 -19.813  0.00  0.00    +0.006 C 
ATOM     20  C   UNL     1      31.876  -9.452 -22.227  0.00  0.00    +0.006 C 
ATOM     21  C   UNL     1      32.098  -8.043 -19.829  0.00  0.00    +0.001 C 
ATOM     22  C   UNL     1      32.001  -8.064 -22.243  0.00  0.00    +0.001 C 
ATOM     23  C   UNL     1      32.113  -7.359 -21.044  0.00  0.00    +0.000 C 
ENDBRANCH  17  18
ENDBRANCH  16  17
ENDBRANCH   5  16
BRANCH   8  24
ATOM     24  C   UNL     1      34.597 -16.028 -20.514  0.00  0.00    -0.059 C 
BRANCH  24  25
ATOM     25  N   UNL     1      35.234 -17.293 -20.776  0.00  0.00    +0.383 N 
ATOM     26  H   UNL     1      36.053 -17.147 -21.367  0.00  0.00    -0.089 HD
ATOM     27  H   UNL     1      34.578 -17.912 -21.254  0.00  0.00    -0.089 HD
ATOM     28  H   UNL     1      35.522 -17.718 -19.896  0.00  0.00    -0.089 HD
ENDBRANCH  24  25
ENDBRANCH   8  24
TORSDOF 5
ENDMDL
MODEL 6
REMARK VINA RESULT:      -9.3      7.626     10.905
REMARK  Name = 6323390
REMARK  5 active torsions:
REMARK  status: ('A' for Active; 'I' for Inactive)
REMARK    1  A    between atoms: C_5  and  C_16
REMARK    2  A    between atoms: C_8  and  C_24
REMARK    3  A    between atoms: C_16  and  S_17
REMARK    4  A    between atoms: S_17  and  C_18
REMARK    5  A    between atoms: C_24  and  N_25
REMARK                            x       y       z     vdW  Elec       q    Type
REMARK                         _______ _______ _______ _____ _____    ______ ____
ROOT
ATOM      1  O   UNL     1      34.934 -19.712 -24.870  0.00  0.00    -0.209 OA
ATOM      2  N   UNL     1      35.081 -17.397 -21.604  0.00  0.00    -0.275 N 
ATOM      3  N   UNL     1      35.405 -19.518 -22.635  0.00  0.00    -0.302 NA
ATOM      4  N   UNL     1      35.847 -19.166 -20.361  0.00  0.00    -0.320 N 
ATOM      5  C   UNL     1      34.275 -15.462 -22.854  0.00  0.00    +0.003 C 
ATOM      6  C   UNL     1      34.646 -16.807 -22.792  0.00  0.00    +0.060 C 
ATOM      7  C   UNL     1      34.584 -17.591 -23.953  0.00  0.00    +0.108 C 
ATOM      8  C   UNL     1      33.785 -15.695 -25.212  0.00  0.00    -0.044 C 
ATOM      9  C   UNL     1      33.845 -14.909 -24.061  0.00  0.00    -0.008 C 
ATOM     10  C   UNL     1      34.154 -17.039 -25.162  0.00  0.00    +0.008 C 
ATOM     11  C   UNL     1      34.986 -19.021 -23.857  0.00  0.00    +0.208 C 
ATOM     12  C   UNL     1      35.437 -18.727 -21.595  0.00  0.00    +0.248 C 
ATOM     13  H   UNL     1      35.132 -16.865 -20.777  0.00  0.00    +0.156 HD
ATOM     14  H   UNL     1      35.860 -18.546 -19.597  0.00  0.00    +0.146 HD
ATOM     15  H   UNL     1      36.126 -20.102 -20.240  0.00  0.00    +0.146 HD
ENDROOT
BRANCH   5  16
ATOM     16  C   UNL     1      34.325 -14.584 -21.646  0.00  0.00    +0.090 C 
BRANCH  16  17
ATOM     17  S   UNL     1      32.782 -14.634 -20.687  0.00  0.00    -0.109 S 
BRANCH  17  18
ATOM     18  C   UNL     1      32.230 -12.973 -20.918  0.00  0.00    +0.026 C 
ATOM     19  C   UNL     1      32.097 -12.437 -22.207  0.00  0.00    +0.006 C 
ATOM     20  C   UNL     1      31.917 -12.165 -19.814  0.00  0.00    +0.006 C 
ATOM     21  C   UNL     1      31.661 -11.124 -22.390  0.00  0.00    +0.001 C 
ATOM     22  C   UNL     1      31.481 -10.853 -19.996  0.00  0.00    +0.001 C 
ATOM     23  C   UNL     1      31.352 -10.333 -21.283  0.00  0.00    +0.000 C 
ENDBRANCH  17  18
ENDBRANCH  16  17
ENDBRANCH   5  16
BRANCH   8  24
ATOM     24  C   UNL     1      33.324 -15.097 -26.498  0.00  0.00    -0.059 C 
BRANCH  24  25
ATOM     25  N   UNL     1      32.196 -14.219 -26.320  0.00  0.00    +0.383 N 
ATOM     26  H   UNL     1      32.466 -13.265 -26.563  0.00  0.00    -0.089 HD
ATOM     27  H   UNL     1      31.893 -14.247 -25.346  0.00  0.00    -0.089 HD
ATOM     28  H   UNL     1      31.431 -14.520 -26.923  0.00  0.00    -0.089 HD
ENDBRANCH  24  25
ENDBRANCH   8  24
TORSDOF 5
ENDMDL
MODEL 7
REMARK VINA RESULT:      -9.0      9.857     13.238
REMARK  Name = 6323390
REMARK  5 active torsions:
REMARK  status: ('A' for Active; 'I' for Inactive)
REMARK    1  A    between atoms: C_5  and  C_16
REMARK    2  A    between atoms: C_8  and  C_24
REMARK    3  A    between atoms: C_16  and  S_17
REMARK    4  A    between atoms: S_17  and  C_18
REMARK    5  A    between atoms: C_24  and  N_25
REMARK                            x       y       z     vdW  Elec       q    Type
REMARK                         _______ _______ _______ _____ _____    ______ ____
ROOT
ATOM      1  O   UNL     1      33.300  -7.812 -23.305  0.00  0.00    -0.209 OA
ATOM      2  N   UNL     1      34.506 -11.377 -24.677  0.00  0.00    -0.275 N 
ATOM      3  N   UNL     1      34.648  -9.001 -24.727  0.00  0.00    -0.302 NA
ATOM      4  N   UNL     1      35.965 -10.350 -26.119  0.00  0.00    -0.320 N 
ATOM      5  C   UNL     1      32.985 -12.549 -23.172  0.00  0.00    +0.003 C 
ATOM      6  C   UNL     1      33.529 -11.368 -23.681  0.00  0.00    +0.060 C 
ATOM      7  C   UNL     1      33.086 -10.136 -23.179  0.00  0.00    +0.108 C 
ATOM      8  C   UNL     1      31.572 -11.270 -21.682  0.00  0.00    -0.044 C 
ATOM      9  C   UNL     1      32.009 -12.499 -22.175  0.00  0.00    -0.008 C 
ATOM     10  C   UNL     1      32.109 -10.083 -22.182  0.00  0.00    +0.008 C 
ATOM     11  C   UNL     1      33.684  -8.894 -23.740  0.00  0.00    +0.208 C 
ATOM     12  C   UNL     1      35.012 -10.185 -25.145  0.00  0.00    +0.248 C 
ATOM     13  H   UNL     1      34.831 -12.231 -25.044  0.00  0.00    +0.156 HD
ATOM     14  H   UNL     1      36.218 -11.255 -26.412  0.00  0.00    +0.146 HD
ATOM     15  H   UNL     1      36.396  -9.563 -26.524  0.00  0.00    +0.146 HD
ENDROOT
BRANCH   5  16
ATOM     16  C   UNL     1      33.424 -13.888 -23.671  0.00  0.00    +0.090 C 
BRANCH  16  17
ATOM     17  S   UNL     1      34.448 -14.777 -22.461  0.00  0.00    -0.109 S 
BRANCH  17  18
ATOM     18  C   UNL     1      34.523 -16.361 -23.238  0.00  0.00    +0.026 C 
ATOM     19  C   UNL     1      34.369 -16.484 -24.627  0.00  0.00    +0.006 C 
ATOM     20  C   UNL     1      34.738 -17.520 -22.477  0.00  0.00    +0.006 C 
ATOM     21  C   UNL     1      34.428 -17.735 -25.241  0.00  0.00    +0.001 C 
ATOM     22  C   UNL     1      34.798 -18.771 -23.089  0.00  0.00    +0.001 C 
ATOM     23  C   UNL     1      34.643 -18.879 -24.471  0.00  0.00    +0.000 C 
ENDBRANCH  17  18
ENDBRANCH  16  17
ENDBRANCH   5  16
BRANCH   8  24
ATOM     24  C   UNL     1      30.529 -11.223 -20.617  0.00  0.00    -0.059 C 
BRANCH  24  25
ATOM     25  N   UNL     1      31.068 -10.832 -19.340  0.00  0.00    +0.383 N 
ATOM     26  H   UNL     1      30.365 -10.978 -18.614  0.00  0.00    -0.089 HD
ATOM     27  H   UNL     1      31.327  -9.846 -19.368  0.00  0.00    -0.089 HD
ATOM     28  H   UNL     1      31.892 -11.394 -19.132  0.00  0.00    -0.089 HD
ENDBRANCH  24  25
ENDBRANCH   8  24
TORSDOF 5
ENDMDL
MODEL 8
REMARK VINA RESULT:      -8.9      7.141     10.684
REMARK  Name = 6323390
REMARK  5 active torsions:
REMARK  status: ('A' for Active; 'I' for Inactive)
REMARK    1  A    between atoms: C_5  and  C_16
REMARK    2  A    between atoms: C_8  and  C_24
REMARK    3  A    between atoms: C_16  and  S_17
REMARK    4  A    between atoms: S_17  and  C_18
REMARK    5  A    between atoms: C_24  and  N_25
REMARK                            x       y       z     vdW  Elec       q    Type
REMARK                         _______ _______ _______ _____ _____    ______ ____
ROOT
ATOM      1  O   UNL     1      32.687 -13.808 -26.054  0.00  0.00    -0.209 OA
ATOM      2  N   UNL     1      34.278 -16.623 -23.689  0.00  0.00    -0.275 N 
ATOM      3  N   UNL     1      33.794 -15.807 -25.873  0.00  0.00    -0.302 NA
ATOM      4  N   UNL     1      34.924 -17.831 -25.530  0.00  0.00    -0.320 N 
ATOM      5  C   UNL     1      33.632 -15.400 -21.680  0.00  0.00    +0.003 C 
ATOM      6  C   UNL     1      33.680 -15.525 -23.070  0.00  0.00    +0.060 C 
ATOM      7  C   UNL     1      33.114 -14.523 -23.869  0.00  0.00    +0.108 C 
ATOM      8  C   UNL     1      32.462 -13.293 -21.899  0.00  0.00    -0.044 C 
ATOM      9  C   UNL     1      33.024 -14.286 -21.097  0.00  0.00    -0.008 C 
ATOM     10  C   UNL     1      32.505 -13.407 -23.289  0.00  0.00    +0.008 C 
ATOM     11  C   UNL     1      33.180 -14.683 -25.348  0.00  0.00    +0.208 C 
ATOM     12  C   UNL     1      34.301 -16.700 -25.064  0.00  0.00    +0.248 C 
ATOM     13  H   UNL     1      34.681 -17.339 -23.147  0.00  0.00    +0.156 HD
ATOM     14  H   UNL     1      35.295 -18.485 -24.895  0.00  0.00    +0.146 HD
ATOM     15  H   UNL     1      34.999 -17.988 -26.499  0.00  0.00    +0.146 HD
ENDROOT
BRANCH   5  16
ATOM     16  C   UNL     1      34.221 -16.439 -20.783  0.00  0.00    +0.090 C 
BRANCH  16  17
ATOM     17  S   UNL     1      35.296 -17.600 -21.678  0.00  0.00    -0.109 S 
BRANCH  17  18
ATOM     18  C   UNL     1      34.790 -19.117 -20.929  0.00  0.00    +0.026 C 
ATOM     19  C   UNL     1      33.429 -19.423 -20.784  0.00  0.00    +0.006 C 
ATOM     20  C   UNL     1      35.743 -20.037 -20.467  0.00  0.00    +0.006 C 
ATOM     21  C   UNL     1      33.029 -20.621 -20.192  0.00  0.00    +0.001 C 
ATOM     22  C   UNL     1      35.345 -21.235 -19.876  0.00  0.00    +0.001 C 
ATOM     23  C   UNL     1      33.988 -21.528 -19.739  0.00  0.00    +0.000 C 
ENDBRANCH  17  18
ENDBRANCH  16  17
ENDBRANCH   5  16
BRANCH   8  24
ATOM     24  C   UNL     1      31.814 -12.106 -21.270  0.00  0.00    -0.059 C 
BRANCH  24  25
ATOM     25  N   UNL     1      30.792 -11.533 -22.108  0.00  0.00    +0.383 N 
ATOM     26  H   UNL     1      30.661 -10.552 -21.861  0.00  0.00    -0.089 HD
ATOM     27  H   UNL     1      29.916 -12.038 -21.970  0.00  0.00    -0.089 HD
ATOM     28  H   UNL     1      31.074 -11.603 -23.085  0.00  0.00    -0.089 HD
ENDBRANCH  24  25
ENDBRANCH   8  24
TORSDOF 5
ENDMDL
MODEL 9
REMARK VINA RESULT:      -8.9      2.507      5.944
REMARK  Name = 6323390
REMARK  5 active torsions:
REMARK  status: ('A' for Active; 'I' for Inactive)
REMARK    1  A    between atoms: C_5  and  C_16
REMARK    2  A    between atoms: C_8  and  C_24
REMARK    3  A    between atoms: C_16  and  S_17
REMARK    4  A    between atoms: S_17  and  C_18
REMARK    5  A    between atoms: C_24  and  N_25
REMARK                            x       y       z     vdW  Elec       q    Type
REMARK                         _______ _______ _______ _____ _____    ______ ____
ROOT
ATOM      1  O   UNL     1      29.332 -22.434 -16.900  0.00  0.00    -0.209 OA
ATOM      2  N   UNL     1      31.999 -24.205 -14.493  0.00  0.00    -0.275 N 
ATOM      3  N   UNL     1      29.751 -23.573 -14.956  0.00  0.00    -0.302 NA
ATOM      4  N   UNL     1      30.333 -24.745 -13.012  0.00  0.00    -0.320 N 
ATOM      5  C   UNL     1      33.830 -23.674 -16.016  0.00  0.00    +0.003 C 
ATOM      6  C   UNL     1      32.477 -23.635 -15.674  0.00  0.00    +0.060 C 
ATOM      7  C   UNL     1      31.569 -23.008 -16.538  0.00  0.00    +0.108 C 
ATOM      8  C   UNL     1      33.360 -22.470 -18.061  0.00  0.00    -0.044 C 
ATOM      9  C   UNL     1      34.270 -23.093 -17.207  0.00  0.00    -0.008 C 
ATOM     10  C   UNL     1      32.006 -22.425 -17.730  0.00  0.00    +0.008 C 
ATOM     11  C   UNL     1      30.132 -22.981 -16.148  0.00  0.00    +0.208 C 
ATOM     12  C   UNL     1      30.656 -24.140 -14.201  0.00  0.00    +0.248 C 
ATOM     13  H   UNL     1      32.620 -24.650 -13.872  0.00  0.00    +0.156 HD
ATOM     14  H   UNL     1      31.037 -25.163 -12.466  0.00  0.00    +0.146 HD
ATOM     15  H   UNL     1      29.398 -24.759 -12.705  0.00  0.00    +0.146 HD
ENDROOT
BRANCH   5  16
ATOM     16  C   UNL     1      34.839 -24.332 -15.131  0.00  0.00    +0.090 C 
BRANCH  16  17
ATOM     17  S   UNL     1      35.967 -23.135 -14.356  0.00  0.00    -0.109 S 
BRANCH  17  18
ATOM     18  C   UNL     1      37.416 -24.134 -14.218  0.00  0.00    +0.026 C 
ATOM     19  C   UNL     1      37.627 -24.933 -13.084  0.00  0.00    +0.006 C 
ATOM     20  C   UNL     1      38.377 -24.142 -15.240  0.00  0.00    +0.006 C 
ATOM     21  C   UNL     1      38.773 -25.722 -12.974  0.00  0.00    +0.001 C 
ATOM     22  C   UNL     1      39.522 -24.931 -15.131  0.00  0.00    +0.001 C 
ATOM     23  C   UNL     1      39.720 -25.722 -13.999  0.00  0.00    +0.000 C 
ENDBRANCH  17  18
ENDBRANCH  16  17
ENDBRANCH   5  16
BRANCH   8  24
ATOM     24  C   UNL     1      33.836 -21.850 -19.332  0.00  0.00    -0.059 C 
BRANCH  24  25
ATOM     25  N   UNL     1      32.908 -20.876 -19.846  0.00  0.00    +0.383 N 
ATOM     26  H   UNL     1      33.071 -19.977 -19.390  0.00  0.00    -0.089 HD
ATOM     27  H   UNL     1      31.954 -21.183 -19.659  0.00  0.00    -0.089 HD
ATOM     28  H   UNL     1      33.042 -20.776 -20.852  0.00  0.00    -0.089 HD
ENDBRANCH  24  25
ENDBRANCH   8  24
TORSDOF 5
ENDMDL
