MODEL 1
REMARK VINA RESULT:     -10.2      0.000      0.000
REMARK  Name = 16058637
REMARK  4 active torsions:
REMARK  status: ('A' for Active; 'I' for Inactive)
REMARK    1  A    between atoms: N_1  and  C_11
REMARK    2  A    between atoms: N_2  and  C_22
REMARK    3  A    between atoms: C_12  and  C_19
REMARK    4  A    between atoms: C_25  and  O_28
REMARK                            x       y       z     vdW  Elec       q    Type
REMARK                         _______ _______ _______ _____ _____    ______ ____
ROOT
ATOM      1  N   UNL     1      33.570 -23.167 -16.958  0.00  0.00    -0.287 N 
ATOM      2  N   UNL     1      34.326 -24.753 -12.570  0.00  0.00    -0.247 N 
ATOM      3  N   UNL     1      33.973 -23.965 -14.752  0.00  0.00    -0.322 NA
ATOM      4  N   UNL     1      32.115 -24.474 -13.303  0.00  0.00    -0.170 NA
ATOM      5  C   UNL     1      33.102 -23.600 -15.749  0.00  0.00    +0.198 C 
ATOM      6  C   UNL     1      33.426 -24.379 -13.592  0.00  0.00    +0.150 C 
ATOM      7  C   UNL     1      31.716 -23.667 -15.536  0.00  0.00    +0.070 C 
ATOM      8  C   UNL     1      31.285 -24.109 -14.302  0.00  0.00    +0.116 C 
ATOM      9  H   UNL     1      32.939 -23.264 -17.708  0.00  0.00    +0.155 HD
ATOM     10  H   UNL     1      33.920 -25.153 -11.767  0.00  0.00    +0.165 HD
ENDROOT
BRANCH   1  11
ATOM     11  C   UNL     1      34.819 -22.603 -17.298  0.00  0.00    +0.054 C 
ATOM     12  C   UNL     1      34.994 -21.919 -18.501  0.00  0.00    +0.067 C 
ATOM     13  C   UNL     1      35.887 -22.736 -16.410  0.00  0.00    +0.015 C 
ATOM     14  C   UNL     1      36.236 -21.369 -18.817  0.00  0.00    +0.006 C 
ATOM     15  C   UNL     1      37.129 -22.185 -16.725  0.00  0.00    +0.001 C 
ATOM     16  C   UNL     1      37.304 -21.502 -17.929  0.00  0.00    +0.000 C 
BRANCH  12  19
ATOM     17  O   UNL     1      33.110 -22.694 -19.683  0.00  0.00    -0.270 OA
ATOM     18  N   UNL     1      33.756 -20.529 -20.074  0.00  0.00    -0.325 N 
ATOM     19  C   UNL     1      33.899 -21.763 -19.451  0.00  0.00    +0.244 C 
ATOM     20  H   UNL     1      33.028 -20.386 -20.720  0.00  0.00    +0.145 HD
ATOM     21  H   UNL     1      34.382 -19.799 -19.868  0.00  0.00    +0.145 HD
ENDBRANCH  12  19
ENDBRANCH   1  11
BRANCH   2  22
ATOM     22  C   UNL     1      35.707 -24.629 -12.551  0.00  0.00    +0.061 C 
ATOM     23  C   UNL     1      36.318 -23.411 -12.203  0.00  0.00    +0.052 C 
ATOM     24  C   UNL     1      36.533 -25.720 -12.881  0.00  0.00    +0.015 C 
ATOM     25  C   UNL     1      37.708 -23.287 -12.185  0.00  0.00    +0.135 C 
ATOM     26  C   UNL     1      37.923 -25.596 -12.863  0.00  0.00    +0.004 C 
ATOM     27  C   UNL     1      38.509 -24.380 -12.515  0.00  0.00    +0.037 C 
BRANCH  25  28
ATOM     28  O   UNL     1      38.281 -22.100 -11.848  0.00  0.00    -0.505 OA
ATOM     29  H   UNL     1      38.212 -21.778 -10.970  0.00  0.00    +0.292 HD
ENDBRANCH  25  28
ENDBRANCH   2  22
TORSDOF 4
ENDMDL
MODEL 2
REMARK VINA RESULT:     -10.1      1.969      6.152
REMARK  Name = 16058637
REMARK  4 active torsions:
REMARK  status: ('A' for Active; 'I' for Inactive)
REMARK    1  A    between atoms: N_1  and  C_11
REMARK    2  A    between atoms: N_2  and  C_22
REMARK    3  A    between atoms: C_12  and  C_19
REMARK    4  A    between atoms: C_25  and  O_28
REMARK                            x       y       z     vdW  Elec       q    Type
REMARK                         _______ _______ _______ _____ _____    ______ ____
ROOT
ATOM      1  N   UNL     1      34.694 -23.853 -14.253  0.00  0.00    -0.287 N 
ATOM      2  N   UNL     1      32.161 -22.454 -17.991  0.00  0.00    -0.247 N 
ATOM      3  N   UNL     1      33.436 -23.139 -16.144  0.00  0.00    -0.322 NA
ATOM      4  N   UNL     1      31.085 -23.649 -16.283  0.00  0.00    -0.170 NA
ATOM      5  C   UNL     1      33.509 -23.779 -14.931  0.00  0.00    +0.198 C 
ATOM      6  C   UNL     1      32.230 -23.113 -16.744  0.00  0.00    +0.150 C 
ATOM      7  C   UNL     1      32.364 -24.368 -14.373  0.00  0.00    +0.070 C 
ATOM      8  C   UNL     1      31.188 -24.272 -15.090  0.00  0.00    +0.116 C 
ATOM      9  H   UNL     1      34.610 -23.994 -13.282  0.00  0.00    +0.155 HD
ATOM     10  H   UNL     1      31.258 -22.348 -18.369  0.00  0.00    +0.165 HD
ENDROOT
BRANCH   1  11
ATOM     11  C   UNL     1      36.020 -23.757 -14.730  0.00  0.00    +0.054 C 
ATOM     12  C   UNL     1      36.993 -24.676 -14.336  0.00  0.00    +0.067 C 
ATOM     13  C   UNL     1      36.351 -22.726 -15.610  0.00  0.00    +0.015 C 
ATOM     14  C   UNL     1      38.296 -24.563 -14.819  0.00  0.00    +0.006 C 
ATOM     15  C   UNL     1      37.654 -22.613 -16.094  0.00  0.00    +0.001 C 
ATOM     16  C   UNL     1      38.627 -23.531 -15.699  0.00  0.00    +0.000 C 
BRANCH  12  19
ATOM     17  O   UNL     1      36.331 -25.539 -12.247  0.00  0.00    -0.270 OA
ATOM     18  N   UNL     1      36.767 -27.063 -13.904  0.00  0.00    -0.325 N 
ATOM     19  C   UNL     1      36.679 -25.764 -13.418  0.00  0.00    +0.244 C 
ATOM     20  H   UNL     1      36.562 -27.824 -13.314  0.00  0.00    +0.145 HD
ATOM     21  H   UNL     1      37.031 -27.222 -14.838  0.00  0.00    +0.145 HD
ENDBRANCH  12  19
ENDBRANCH   1  11
BRANCH   2  22
ATOM     22  C   UNL     1      33.199 -21.936 -18.749  0.00  0.00    +0.061 C 
ATOM     23  C   UNL     1      32.974 -20.888 -19.660  0.00  0.00    +0.052 C 
ATOM     24  C   UNL     1      34.505 -22.446 -18.627  0.00  0.00    +0.015 C 
ATOM     25  C   UNL     1      34.020 -20.368 -20.424  0.00  0.00    +0.135 C 
ATOM     26  C   UNL     1      35.550 -21.925 -19.391  0.00  0.00    +0.004 C 
ATOM     27  C   UNL     1      35.308 -20.886 -20.288  0.00  0.00    +0.037 C 
BRANCH  25  28
ATOM     28  O   UNL     1      33.783 -19.355 -21.302  0.00  0.00    -0.505 OA
ATOM     29  H   UNL     1      34.390 -18.645 -21.374  0.00  0.00    +0.292 HD
ENDBRANCH  25  28
ENDBRANCH   2  22
TORSDOF 4
ENDMDL
MODEL 3
REMARK VINA RESULT:     -10.0      1.862      2.259
REMARK  Name = 16058637
REMARK  4 active torsions:
REMARK  status: ('A' for Active; 'I' for Inactive)
REMARK    1  A    between atoms: N_1  and  C_11
REMARK    2  A    between atoms: N_2  and  C_22
REMARK    3  A    between atoms: C_12  and  C_19
REMARK    4  A    between atoms: C_25  and  O_28
REMARK                            x       y       z     vdW  Elec       q    Type
REMARK                         _______ _______ _______ _____ _____    ______ ____
ROOT
ATOM      1  N   UNL     1      32.938 -22.406 -18.278  0.00  0.00    -0.287 N 
ATOM      2  N   UNL     1      33.774 -24.512 -14.129  0.00  0.00    -0.247 N 
ATOM      3  N   UNL     1      33.381 -23.468 -16.194  0.00  0.00    -0.322 NA
ATOM      4  N   UNL     1      31.567 -23.939 -14.678  0.00  0.00    -0.170 NA
ATOM      5  C   UNL     1      32.497 -22.915 -17.089  0.00  0.00    +0.198 C 
ATOM      6  C   UNL     1      32.862 -23.945 -15.045  0.00  0.00    +0.150 C 
ATOM      7  C   UNL     1      31.127 -22.866 -16.789  0.00  0.00    +0.070 C 
ATOM      8  C   UNL     1      30.723 -23.390 -15.577  0.00  0.00    +0.116 C 
ATOM      9  H   UNL     1      32.258 -22.361 -18.989  0.00  0.00    +0.155 HD
ATOM     10  H   UNL     1      33.375 -24.952 -13.344  0.00  0.00    +0.165 HD
ENDROOT
BRANCH   1  11
ATOM     11  C   UNL     1      34.219 -21.937 -18.646  0.00  0.00    +0.054 C 
ATOM     12  C   UNL     1      34.381 -21.057 -19.715  0.00  0.00    +0.067 C 
ATOM     13  C   UNL     1      35.331 -22.365 -17.920  0.00  0.00    +0.015 C 
ATOM     14  C   UNL     1      35.654 -20.606 -20.061  0.00  0.00    +0.006 C 
ATOM     15  C   UNL     1      36.605 -21.913 -18.265  0.00  0.00    +0.001 C 
ATOM     16  C   UNL     1      36.766 -21.033 -19.336  0.00  0.00    +0.000 C 
BRANCH  12  19
ATOM     17  O   UNL     1      32.286 -21.346 -20.752  0.00  0.00    -0.270 OA
ATOM     18  N   UNL     1      33.245 -19.270 -20.922  0.00  0.00    -0.325 N 
ATOM     19  C   UNL     1      33.239 -20.592 -20.494  0.00  0.00    +0.244 C 
ATOM     20  H   UNL     1      32.491 -18.920 -21.448  0.00  0.00    +0.145 HD
ATOM     21  H   UNL     1      34.003 -18.684 -20.696  0.00  0.00    +0.145 HD
ENDBRANCH  12  19
ENDBRANCH   1  11
BRANCH   2  22
ATOM     22  C   UNL     1      35.159 -24.529 -14.193  0.00  0.00    +0.061 C 
ATOM     23  C   UNL     1      35.835 -25.511 -14.940  0.00  0.00    +0.052 C 
ATOM     24  C   UNL     1      35.924 -23.564 -13.512  0.00  0.00    +0.015 C 
ATOM     25  C   UNL     1      37.229 -25.528 -15.003  0.00  0.00    +0.135 C 
ATOM     26  C   UNL     1      37.318 -23.582 -13.576  0.00  0.00    +0.004 C 
ATOM     27  C   UNL     1      37.969 -24.563 -14.322  0.00  0.00    +0.037 C 
BRANCH  25  28
ATOM     28  O   UNL     1      37.865 -26.487 -15.730  0.00  0.00    -0.505 OA
ATOM     29  H   UNL     1      38.571 -26.972 -15.350  0.00  0.00    +0.292 HD
ENDBRANCH  25  28
ENDBRANCH   2  22
TORSDOF 4
ENDMDL
MODEL 4
REMARK VINA RESULT:     -10.0      1.924      5.857
REMARK  Name = 16058637
REMARK  4 active torsions:
REMARK  status: ('A' for Active; 'I' for Inactive)
REMARK    1  A    between atoms: N_1  and  C_11
REMARK    2  A    between atoms: N_2  and  C_22
REMARK    3  A    between atoms: C_12  and  C_19
REMARK    4  A    between atoms: C_25  and  O_28
REMARK                            x       y       z     vdW  Elec       q    Type
REMARK                         _______ _______ _______ _____ _____    ______ ____
ROOT
ATOM      1  N   UNL     1      34.279 -24.763 -13.216  0.00  0.00    -0.287 N 
ATOM      2  N   UNL     1      32.669 -22.913 -17.258  0.00  0.00    -0.247 N 
ATOM      3  N   UNL     1      33.489 -23.824 -15.256  0.00  0.00    -0.322 NA
ATOM      4  N   UNL     1      31.158 -24.016 -15.842  0.00  0.00    -0.170 NA
ATOM      5  C   UNL     1      33.258 -24.510 -14.089  0.00  0.00    +0.198 C 
ATOM      6  C   UNL     1      32.426 -23.619 -16.059  0.00  0.00    +0.150 C 
ATOM      7  C   UNL     1      31.966 -24.963 -13.780  0.00  0.00    +0.070 C 
ATOM      8  C   UNL     1      30.963 -24.688 -14.688  0.00  0.00    +0.116 C 
ATOM      9  H   UNL     1      34.001 -24.926 -12.286  0.00  0.00    +0.155 HD
ATOM     10  H   UNL     1      31.872 -22.676 -17.784  0.00  0.00    +0.165 HD
ENDROOT
BRANCH   1  11
ATOM     11  C   UNL     1      35.672 -24.825 -13.443  0.00  0.00    +0.054 C 
ATOM     12  C   UNL     1      36.578 -24.621 -12.402  0.00  0.00    +0.067 C 
ATOM     13  C   UNL     1      36.138 -25.096 -14.730  0.00  0.00    +0.015 C 
ATOM     14  C   UNL     1      37.949 -24.687 -12.648  0.00  0.00    +0.006 C 
ATOM     15  C   UNL     1      37.509 -25.163 -14.976  0.00  0.00    +0.001 C 
ATOM     16  C   UNL     1      38.415 -24.958 -13.935  0.00  0.00    +0.000 C 
BRANCH  12  19
ATOM     17  O   UNL     1      35.255 -25.033 -10.498  0.00  0.00    -0.270 OA
ATOM     18  N   UNL     1      36.709 -23.264 -10.383  0.00  0.00    -0.325 N 
ATOM     19  C   UNL     1      36.123 -24.335 -11.047  0.00  0.00    +0.244 C 
ATOM     20  H   UNL     1      36.428 -23.041  -9.466  0.00  0.00    +0.145 HD
ATOM     21  H   UNL     1      37.405 -22.730 -10.829  0.00  0.00    +0.145 HD
ENDBRANCH  12  19
ENDBRANCH   1  11
BRANCH   2  22
ATOM     22  C   UNL     1      33.885 -22.509 -17.787  0.00  0.00    +0.061 C 
ATOM     23  C   UNL     1      35.051 -22.512 -17.001  0.00  0.00    +0.052 C 
ATOM     24  C   UNL     1      33.983 -22.087 -19.126  0.00  0.00    +0.015 C 
ATOM     25  C   UNL     1      36.275 -22.105 -17.535  0.00  0.00    +0.135 C 
ATOM     26  C   UNL     1      35.207 -21.680 -19.659  0.00  0.00    +0.004 C 
ATOM     27  C   UNL     1      36.352 -21.690 -18.864  0.00  0.00    +0.037 C 
BRANCH  25  28
ATOM     28  O   UNL     1      37.392 -22.112 -16.757  0.00  0.00    -0.505 OA
ATOM     29  H   UNL     1      37.506 -22.776 -16.106  0.00  0.00    +0.292 HD
ENDBRANCH  25  28
ENDBRANCH   2  22
TORSDOF 4
ENDMDL
MODEL 5
REMARK VINA RESULT:      -9.9      2.494      6.063
REMARK  Name = 16058637
REMARK  4 active torsions:
REMARK  status: ('A' for Active; 'I' for Inactive)
REMARK    1  A    between atoms: N_1  and  C_11
REMARK    2  A    between atoms: N_2  and  C_22
REMARK    3  A    between atoms: C_12  and  C_19
REMARK    4  A    between atoms: C_25  and  O_28
REMARK                            x       y       z     vdW  Elec       q    Type
REMARK                         _______ _______ _______ _____ _____    ______ ____
ROOT
ATOM      1  N   UNL     1      37.545 -23.399 -15.270  0.00  0.00    -0.287 N 
ATOM      2  N   UNL     1      33.259 -22.899 -17.201  0.00  0.00    -0.247 N 
ATOM      3  N   UNL     1      35.378 -23.160 -16.226  0.00  0.00    -0.322 NA
ATOM      4  N   UNL     1      35.099 -21.911 -18.269  0.00  0.00    -0.170 NA
ATOM      5  C   UNL     1      36.729 -22.914 -16.254  0.00  0.00    +0.198 C 
ATOM      6  C   UNL     1      34.647 -22.643 -17.234  0.00  0.00    +0.150 C 
ATOM      7  C   UNL     1      37.288 -22.158 -17.296  0.00  0.00    +0.070 C 
ATOM      8  C   UNL     1      36.430 -21.686 -18.268  0.00  0.00    +0.116 C 
ATOM      9  H   UNL     1      38.491 -23.496 -15.524  0.00  0.00    +0.155 HD
ATOM     10  H   UNL     1      32.751 -22.610 -17.994  0.00  0.00    +0.165 HD
ENDROOT
BRANCH   1  11
ATOM     11  C   UNL     1      37.240 -23.784 -13.946  0.00  0.00    +0.054 C 
ATOM     12  C   UNL     1      37.033 -25.124 -13.618  0.00  0.00    +0.067 C 
ATOM     13  C   UNL     1      37.147 -22.802 -12.959  0.00  0.00    +0.015 C 
ATOM     14  C   UNL     1      36.733 -25.482 -12.304  0.00  0.00    +0.006 C 
ATOM     15  C   UNL     1      36.847 -23.160 -11.645  0.00  0.00    +0.001 C 
ATOM     16  C   UNL     1      36.640 -24.500 -11.317  0.00  0.00    +0.000 C 
BRANCH  12  19
ATOM     17  O   UNL     1      38.221 -26.571 -15.047  0.00  0.00    -0.270 OA
ATOM     18  N   UNL     1      35.933 -26.726 -15.088  0.00  0.00    -0.325 N 
ATOM     19  C   UNL     1      37.122 -26.173 -14.626  0.00  0.00    +0.244 C 
ATOM     20  H   UNL     1      35.953 -27.437 -15.767  0.00  0.00    +0.145 HD
ATOM     21  H   UNL     1      35.072 -26.407 -14.733  0.00  0.00    +0.145 HD
ENDBRANCH  12  19
ENDBRANCH   1  11
BRANCH   2  22
ATOM     22  C   UNL     1      32.519 -23.504 -16.197  0.00  0.00    +0.061 C 
ATOM     23  C   UNL     1      33.142 -23.979 -15.029  0.00  0.00    +0.052 C 
ATOM     24  C   UNL     1      31.126 -23.657 -16.321  0.00  0.00    +0.015 C 
ATOM     25  C   UNL     1      32.396 -24.589 -14.018  0.00  0.00    +0.135 C 
ATOM     26  C   UNL     1      30.381 -24.266 -15.310  0.00  0.00    +0.004 C 
ATOM     27  C   UNL     1      31.016 -24.731 -14.160  0.00  0.00    +0.037 C 
BRANCH  25  28
ATOM     28  O   UNL     1      33.017 -25.045 -12.896  0.00  0.00    -0.505 OA
ATOM     29  H   UNL     1      32.586 -25.665 -12.341  0.00  0.00    +0.292 HD
ENDBRANCH  25  28
ENDBRANCH   2  22
TORSDOF 4
ENDMDL
MODEL 6
REMARK VINA RESULT:      -9.8      2.409      4.976
REMARK  Name = 16058637
REMARK  4 active torsions:
REMARK  status: ('A' for Active; 'I' for Inactive)
REMARK    1  A    between atoms: N_1  and  C_11
REMARK    2  A    between atoms: N_2  and  C_22
REMARK    3  A    between atoms: C_12  and  C_19
REMARK    4  A    between atoms: C_25  and  O_28
REMARK                            x       y       z     vdW  Elec       q    Type
REMARK                         _______ _______ _______ _____ _____    ______ ____
ROOT
ATOM      1  N   UNL     1      31.903 -22.831 -16.866  0.00  0.00    -0.287 N 
ATOM      2  N   UNL     1      36.574 -23.144 -16.206  0.00  0.00    -0.247 N 
ATOM      3  N   UNL     1      34.252 -22.995 -16.512  0.00  0.00    -0.322 NA
ATOM      4  N   UNL     1      35.775 -22.432 -18.294  0.00  0.00    -0.170 NA
ATOM      5  C   UNL     1      33.184 -22.703 -17.325  0.00  0.00    +0.198 C 
ATOM      6  C   UNL     1      35.480 -22.842 -17.046  0.00  0.00    +0.150 C 
ATOM      7  C   UNL     1      33.398 -22.268 -18.643  0.00  0.00    +0.070 C 
ATOM      8  C   UNL     1      34.706 -22.153 -19.068  0.00  0.00    +0.116 C 
ATOM      9  H   UNL     1      31.233 -22.290 -17.343  0.00  0.00    +0.155 HD
ATOM     10  H   UNL     1      37.463 -22.928 -16.568  0.00  0.00    +0.165 HD
ENDROOT
BRANCH   1  11
ATOM     11  C   UNL     1      31.393 -23.619 -15.810  0.00  0.00    +0.054 C 
ATOM     12  C   UNL     1      30.021 -23.828 -15.670  0.00  0.00    +0.067 C 
ATOM     13  C   UNL     1      32.282 -24.194 -14.902  0.00  0.00    +0.015 C 
ATOM     14  C   UNL     1      29.538 -24.609 -14.621  0.00  0.00    +0.006 C 
ATOM     15  C   UNL     1      31.800 -24.976 -13.853  0.00  0.00    +0.001 C 
ATOM     16  C   UNL     1      30.428 -25.184 -13.712  0.00  0.00    +0.000 C 
BRANCH  12  19
ATOM     17  O   UNL     1      29.124 -22.040 -16.913  0.00  0.00    -0.270 OA
ATOM     18  N   UNL     1      28.097 -24.077 -17.144  0.00  0.00    -0.325 N 
ATOM     19  C   UNL     1      29.066 -23.241 -16.602  0.00  0.00    +0.244 C 
ATOM     20  H   UNL     1      27.435 -23.717 -17.778  0.00  0.00    +0.145 HD
ATOM     21  H   UNL     1      28.074 -25.029 -16.896  0.00  0.00    +0.145 HD
ENDBRANCH  12  19
ENDBRANCH   1  11
BRANCH   2  22
ATOM     22  C   UNL     1      36.556 -23.705 -14.938  0.00  0.00    +0.061 C 
ATOM     23  C   UNL     1      36.692 -25.094 -14.761  0.00  0.00    +0.052 C 
ATOM     24  C   UNL     1      36.402 -22.898 -13.795  0.00  0.00    +0.015 C 
ATOM     25  C   UNL     1      36.674 -25.657 -13.485  0.00  0.00    +0.135 C 
ATOM     26  C   UNL     1      36.384 -23.462 -12.519  0.00  0.00    +0.004 C 
ATOM     27  C   UNL     1      36.520 -24.841 -12.365  0.00  0.00    +0.037 C 
BRANCH  25  28
ATOM     28  O   UNL     1      36.804 -27.003 -13.334  0.00  0.00    -0.505 OA
ATOM     29  H   UNL     1      36.118 -27.576 -13.616  0.00  0.00    +0.292 HD
ENDBRANCH  25  28
ENDBRANCH   2  22
TORSDOF 4
ENDMDL
MODEL 7
REMARK VINA RESULT:      -9.6      9.459     13.992
REMARK  Name = 16058637
REMARK  4 active torsions:
REMARK  status: ('A' for Active; 'I' for Inactive)
REMARK    1  A    between atoms: N_1  and  C_11
REMARK    2  A    between atoms: N_2  and  C_22
REMARK    3  A    between atoms: C_12  and  C_19
REMARK    4  A    between atoms: C_25  and  O_28
REMARK                            x       y       z     vdW  Elec       q    Type
REMARK                         _______ _______ _______ _____ _____    ______ ____
ROOT
ATOM      1  N   UNL     1      33.362 -14.991 -21.883  0.00  0.00    -0.287 N 
ATOM      2  N   UNL     1      33.151 -10.696 -23.845  0.00  0.00    -0.247 N 
ATOM      3  N   UNL     1      33.270 -12.835 -22.887  0.00  0.00    -0.322 NA
ATOM      4  N   UNL     1      31.915 -11.106 -21.894  0.00  0.00    -0.170 NA
ATOM      5  C   UNL     1      32.892 -13.708 -21.896  0.00  0.00    +0.198 C 
ATOM      6  C   UNL     1      32.759 -11.589 -22.825  0.00  0.00    +0.150 C 
ATOM      7  C   UNL     1      32.013 -13.290 -20.884  0.00  0.00    +0.070 C 
ATOM      8  C   UNL     1      31.561 -11.987 -20.935  0.00  0.00    +0.116 C 
ATOM      9  H   UNL     1      33.347 -15.431 -21.001  0.00  0.00    +0.155 HD
ATOM     10  H   UNL     1      32.859  -9.762 -23.733  0.00  0.00    +0.165 HD
ENDROOT
BRANCH   1  11
ATOM     11  C   UNL     1      33.866 -15.784 -22.937  0.00  0.00    +0.054 C 
ATOM     12  C   UNL     1      34.584 -16.951 -22.677  0.00  0.00    +0.067 C 
ATOM     13  C   UNL     1      33.637 -15.385 -24.254  0.00  0.00    +0.015 C 
ATOM     14  C   UNL     1      35.073 -17.719 -23.733  0.00  0.00    +0.006 C 
ATOM     15  C   UNL     1      34.125 -16.154 -25.311  0.00  0.00    +0.001 C 
ATOM     16  C   UNL     1      34.843 -17.321 -25.050  0.00  0.00    +0.000 C 
BRANCH  12  19
ATOM     17  O   UNL     1      35.221 -16.599 -20.437  0.00  0.00    -0.270 OA
ATOM     18  N   UNL     1      34.630 -18.737 -21.019  0.00  0.00    -0.325 N 
ATOM     19  C   UNL     1      34.841 -17.394 -21.312  0.00  0.00    +0.244 C 
ATOM     20  H   UNL     1      34.792 -19.073 -20.109  0.00  0.00    +0.145 HD
ATOM     21  H   UNL     1      34.317 -19.350 -21.722  0.00  0.00    +0.145 HD
ENDBRANCH  12  19
ENDBRANCH   1  11
BRANCH   2  22
ATOM     22  C   UNL     1      33.895 -10.964 -24.984  0.00  0.00    +0.061 C 
ATOM     23  C   UNL     1      33.544 -12.022 -25.843  0.00  0.00    +0.052 C 
ATOM     24  C   UNL     1      35.019 -10.183 -25.311  0.00  0.00    +0.015 C 
ATOM     25  C   UNL     1      34.293 -12.291 -26.989  0.00  0.00    +0.135 C 
ATOM     26  C   UNL     1      35.768 -10.453 -26.458  0.00  0.00    +0.004 C 
ATOM     27  C   UNL     1      35.404 -11.506 -27.296  0.00  0.00    +0.037 C 
BRANCH  25  28
ATOM     28  O   UNL     1      33.940 -13.320 -27.806  0.00  0.00    -0.505 OA
ATOM     29  H   UNL     1      34.203 -13.317 -28.705  0.00  0.00    +0.292 HD
ENDBRANCH  25  28
ENDBRANCH   2  22
TORSDOF 4
ENDMDL
MODEL 8
REMARK VINA RESULT:      -9.4     13.515     16.322
REMARK  Name = 16058637
REMARK  4 active torsions:
REMARK  status: ('A' for Active; 'I' for Inactive)
REMARK    1  A    between atoms: N_1  and  C_11
REMARK    2  A    between atoms: N_2  and  C_22
REMARK    3  A    between atoms: C_12  and  C_19
REMARK    4  A    between atoms: C_25  and  O_28
REMARK                            x       y       z     vdW  Elec       q    Type
REMARK                         _______ _______ _______ _____ _____    ______ ____
ROOT
ATOM      1  N   UNL     1      32.081  -7.859 -21.508  0.00  0.00    -0.287 N 
ATOM      2  N   UNL     1      32.162 -12.568 -21.916  0.00  0.00    -0.247 N 
ATOM      3  N   UNL     1      32.128 -10.229 -21.735  0.00  0.00    -0.322 NA
ATOM      4  N   UNL     1      31.561 -11.625 -19.854  0.00  0.00    -0.170 NA
ATOM      5  C   UNL     1      31.912  -9.106 -20.974  0.00  0.00    +0.198 C 
ATOM      6  C   UNL     1      31.939 -11.418 -21.129  0.00  0.00    +0.150 C 
ATOM      7  C   UNL     1      31.516  -9.228 -19.632  0.00  0.00    +0.070 C 
ATOM      8  C   UNL     1      31.357 -10.504 -19.131  0.00  0.00    +0.116 C 
ATOM      9  H   UNL     1      31.587  -7.140 -21.052  0.00  0.00    +0.155 HD
ATOM     10  H   UNL     1      31.920 -13.426 -21.499  0.00  0.00    +0.165 HD
ENDROOT
BRANCH   1  11
ATOM     11  C   UNL     1      32.853  -7.444 -22.616  0.00  0.00    +0.054 C 
ATOM     12  C   UNL     1      32.391  -6.452 -23.481  0.00  0.00    +0.067 C 
ATOM     13  C   UNL     1      34.095  -8.040 -22.838  0.00  0.00    +0.015 C 
ATOM     14  C   UNL     1      33.169  -6.057 -24.568  0.00  0.00    +0.006 C 
ATOM     15  C   UNL     1      34.874  -7.644 -23.925  0.00  0.00    +0.001 C 
ATOM     16  C   UNL     1      34.412  -6.653 -24.790  0.00  0.00    +0.000 C 
BRANCH  12  19
ATOM     17  O   UNL     1      30.530  -5.844 -22.173  0.00  0.00    -0.270 OA
ATOM     18  N   UNL     1      30.530  -5.145 -24.357  0.00  0.00    -0.325 N 
ATOM     19  C   UNL     1      31.098  -5.811 -23.277  0.00  0.00    +0.244 C 
ATOM     20  H   UNL     1      29.659  -4.700 -24.257  0.00  0.00    +0.145 HD
ATOM     21  H   UNL     1      31.002  -5.119 -25.220  0.00  0.00    +0.145 HD
ENDBRANCH  12  19
ENDBRANCH   1  11
BRANCH   2  22
ATOM     22  C   UNL     1      32.678 -12.645 -23.201  0.00  0.00    +0.061 C 
ATOM     23  C   UNL     1      32.533 -13.816 -23.967  0.00  0.00    +0.052 C 
ATOM     24  C   UNL     1      33.359 -11.554 -23.771  0.00  0.00    +0.015 C 
ATOM     25  C   UNL     1      33.053 -13.893 -25.260  0.00  0.00    +0.135 C 
ATOM     26  C   UNL     1      33.878 -11.631 -25.064  0.00  0.00    +0.004 C 
ATOM     27  C   UNL     1      33.725 -12.800 -25.808  0.00  0.00    +0.037 C 
BRANCH  25  28
ATOM     28  O   UNL     1      32.905 -15.035 -25.986  0.00  0.00    -0.505 OA
ATOM     29  H   UNL     1      32.066 -15.264 -26.335  0.00  0.00    +0.292 HD
ENDBRANCH  25  28
ENDBRANCH   2  22
TORSDOF 4
ENDMDL
MODEL 9
REMARK VINA RESULT:      -9.3      2.506      6.963
REMARK  Name = 16058637
REMARK  4 active torsions:
REMARK  status: ('A' for Active; 'I' for Inactive)
REMARK    1  A    between atoms: N_1  and  C_11
REMARK    2  A    between atoms: N_2  and  C_22
REMARK    3  A    between atoms: C_12  and  C_19
REMARK    4  A    between atoms: C_25  and  O_28
REMARK                            x       y       z     vdW  Elec       q    Type
REMARK                         _______ _______ _______ _____ _____    ______ ____
ROOT
ATOM      1  N   UNL     1      33.934 -24.066 -15.280  0.00  0.00    -0.287 N 
ATOM      2  N   UNL     1      36.735 -21.681 -18.248  0.00  0.00    -0.247 N 
ATOM      3  N   UNL     1      35.327 -22.862 -16.788  0.00  0.00    -0.322 NA
ATOM      4  N   UNL     1      37.677 -22.613 -16.312  0.00  0.00    -0.170 NA
ATOM      5  C   UNL     1      35.163 -23.583 -15.631  0.00  0.00    +0.198 C 
ATOM      6  C   UNL     1      36.572 -22.422 -17.057  0.00  0.00    +0.150 C 
ATOM      7  C   UNL     1      36.261 -23.830 -14.791  0.00  0.00    +0.070 C 
ATOM      8  C   UNL     1      37.484 -23.324 -15.181  0.00  0.00    +0.116 C 
ATOM      9  H   UNL     1      33.949 -24.838 -14.668  0.00  0.00    +0.155 HD
ATOM     10  H   UNL     1      37.663 -21.457 -18.489  0.00  0.00    +0.165 HD
ENDROOT
BRANCH   1  11
ATOM     11  C   UNL     1      32.645 -23.631 -15.660  0.00  0.00    +0.054 C 
ATOM     12  C   UNL     1      31.543 -23.843 -14.833  0.00  0.00    +0.067 C 
ATOM     13  C   UNL     1      32.484 -22.980 -16.884  0.00  0.00    +0.015 C 
ATOM     14  C   UNL     1      30.279 -23.405 -15.228  0.00  0.00    +0.006 C 
ATOM     15  C   UNL     1      31.221 -22.541 -17.279  0.00  0.00    +0.001 C 
ATOM     16  C   UNL     1      30.118 -22.753 -16.451  0.00  0.00    +0.000 C 
BRANCH  12  19
ATOM     17  O   UNL     1      32.767 -24.561 -12.954  0.00  0.00    -0.270 OA
ATOM     18  N   UNL     1      30.540 -25.106 -13.006  0.00  0.00    -0.325 N 
ATOM     19  C   UNL     1      31.678 -24.521 -13.549  0.00  0.00    +0.244 C 
ATOM     20  H   UNL     1      30.592 -25.572 -12.141  0.00  0.00    +0.145 HD
ATOM     21  H   UNL     1      29.683 -25.053 -13.486  0.00  0.00    +0.145 HD
ENDBRANCH  12  19
ENDBRANCH   1  11
BRANCH   2  22
ATOM     22  C   UNL     1      35.758 -21.230 -19.122  0.00  0.00    +0.061 C 
ATOM     23  C   UNL     1      36.062 -20.290 -20.123  0.00  0.00    +0.052 C 
ATOM     24  C   UNL     1      34.435 -21.702 -19.029  0.00  0.00    +0.015 C 
ATOM     25  C   UNL     1      35.077 -19.837 -21.001  0.00  0.00    +0.135 C 
ATOM     26  C   UNL     1      33.451 -21.249 -19.908  0.00  0.00    +0.004 C 
ATOM     27  C   UNL     1      33.772 -20.317 -20.893  0.00  0.00    +0.037 C 
BRANCH  25  28
ATOM     28  O   UNL     1      35.390 -18.925 -21.962  0.00  0.00    -0.505 OA
ATOM     29  H   UNL     1      36.070 -19.110 -22.580  0.00  0.00    +0.292 HD
ENDBRANCH  25  28
ENDBRANCH   2  22
TORSDOF 4
ENDMDL
