MODEL 1
REMARK VINA RESULT:      -7.9      0.000      0.000
REMARK  Name = 446676
REMARK  1 active torsions:
REMARK  status: ('A' for Active; 'I' for Inactive)
REMARK    1  A    between atoms: C_11  and  N_16
REMARK                            x       y       z     vdW  Elec       q    Type
REMARK                         _______ _______ _______ _____ _____    ______ ____
ROOT
ATOM      1  O   UNL     1      34.302 -12.581 -24.017  0.00  0.00    -0.277 OA
ATOM      2  N   UNL     1      32.497 -13.949 -24.521  0.00  0.00    -0.306 N 
ATOM      3  C   UNL     1      34.330 -17.327 -21.729  0.00  0.00    -0.000 C 
ATOM      4  C   UNL     1      35.598 -17.405 -22.589  0.00  0.00    -0.000 C 
ATOM      5  C   UNL     1      34.415 -16.246 -20.643  0.00  0.00    -0.000 C 
ATOM      6  C   UNL     1      35.439 -18.230 -23.875  0.00  0.00    +0.000 C 
ATOM      7  C   UNL     1      34.275 -14.810 -21.171  0.00  0.00    -0.002 C 
ATOM      8  C   UNL     1      34.326 -17.775 -24.830  0.00  0.00    +0.000 C 
ATOM      9  C   UNL     1      32.829 -14.432 -21.532  0.00  0.00    -0.013 C 
ATOM     10  C   UNL     1      34.347 -16.275 -25.131  0.00  0.00    +0.002 C 
ATOM     11  C   UNL     1      32.751 -13.072 -22.247  0.00  0.00    +0.013 C 
ATOM     12  C   UNL     1      33.135 -15.836 -25.959  0.00  0.00    +0.021 C 
ATOM     13  C   UNL     1      32.895 -14.327 -25.870  0.00  0.00    +0.089 C 
ATOM     14  C   UNL     1      33.262 -13.150 -23.684  0.00  0.00    +0.202 C 
ATOM     15  H   UNL     1      31.634 -14.280 -24.182  0.00  0.00    +0.149 HD
ENDROOT
BRANCH  11  16
ATOM     16  N   UNL     1      31.381 -12.563 -22.291  0.00  0.00    +0.387 N 
ATOM     17  H   UNL     1      31.184 -12.042 -21.436  0.00  0.00    -0.089 HD
ATOM     18  H   UNL     1      30.729 -13.345 -22.368  0.00  0.00    -0.089 HD
ATOM     19  H   UNL     1      31.271 -11.949 -23.097  0.00  0.00    -0.089 HD
ENDBRANCH  11  16
TORSDOF 1
ENDMDL
MODEL 2
REMARK VINA RESULT:      -7.1      7.597     10.003
REMARK  Name = 446676
REMARK  1 active torsions:
REMARK  status: ('A' for Active; 'I' for Inactive)
REMARK    1  A    between atoms: C_11  and  N_16
REMARK                            x       y       z     vdW  Elec       q    Type
REMARK                         _______ _______ _______ _____ _____    ______ ____
ROOT
ATOM      1  O   UNL     1      31.953  -8.952 -22.710  0.00  0.00    -0.277 OA
ATOM      2  N   UNL     1      33.894  -7.691 -22.555  0.00  0.00    -0.306 N 
ATOM      3  C   UNL     1      31.379  -3.778 -23.519  0.00  0.00    -0.000 C 
ATOM      4  C   UNL     1      30.952  -4.339 -24.881  0.00  0.00    -0.000 C 
ATOM      5  C   UNL     1      30.449  -4.213 -22.379  0.00  0.00    -0.000 C 
ATOM      6  C   UNL     1      32.016  -4.206 -25.980  0.00  0.00    +0.000 C 
ATOM      7  C   UNL     1      30.622  -5.679 -21.949  0.00  0.00    -0.002 C 
ATOM      8  C   UNL     1      33.376  -4.853 -25.680  0.00  0.00    +0.000 C 
ATOM      9  C   UNL     1      31.884  -5.920 -21.105  0.00  0.00    -0.013 C 
ATOM     10  C   UNL     1      33.273  -6.295 -25.177  0.00  0.00    +0.002 C 
ATOM     11  C   UNL     1      32.138  -7.419 -20.868  0.00  0.00    +0.013 C 
ATOM     12  C   UNL     1      34.633  -6.852 -24.743  0.00  0.00    +0.021 C 
ATOM     13  C   UNL     1      34.490  -8.072 -23.829  0.00  0.00    +0.089 C 
ATOM     14  C   UNL     1      32.647  -8.120 -22.126  0.00  0.00    +0.202 C 
ATOM     15  H   UNL     1      34.406  -7.093 -21.965  0.00  0.00    +0.149 HD
ENDROOT
BRANCH  11  16
ATOM     16  N   UNL     1      33.123  -7.638 -19.809  0.00  0.00    +0.387 N 
ATOM     17  H   UNL     1      34.063  -7.597 -20.205  0.00  0.00    -0.089 HD
ATOM     18  H   UNL     1      32.973  -8.556 -19.389  0.00  0.00    -0.089 HD
ATOM     19  H   UNL     1      33.022  -6.917 -19.096  0.00  0.00    -0.089 HD
ENDBRANCH  11  16
TORSDOF 1
ENDMDL
MODEL 3
REMARK VINA RESULT:      -7.1      3.750      5.800
REMARK  Name = 446676
REMARK  1 active torsions:
REMARK  status: ('A' for Active; 'I' for Inactive)
REMARK    1  A    between atoms: C_11  and  N_16
REMARK                            x       y       z     vdW  Elec       q    Type
REMARK                         _______ _______ _______ _____ _____    ______ ____
ROOT
ATOM      1  O   UNL     1      30.949  -8.778 -22.926  0.00  0.00    -0.277 OA
ATOM      2  N   UNL     1      32.528  -9.098 -21.257  0.00  0.00    -0.306 N 
ATOM      3  C   UNL     1      33.953 -13.077 -23.426  0.00  0.00    -0.000 C 
ATOM      4  C   UNL     1      32.561 -13.704 -23.276  0.00  0.00    -0.000 C 
ATOM      5  C   UNL     1      34.086 -12.222 -24.693  0.00  0.00    -0.000 C 
ATOM      6  C   UNL     1      32.279 -14.288 -21.884  0.00  0.00    +0.000 C 
ATOM      7  C   UNL     1      33.365 -10.867 -24.618  0.00  0.00    -0.002 C 
ATOM      8  C   UNL     1      32.415 -13.313 -20.706  0.00  0.00    +0.000 C 
ATOM      9  C   UNL     1      34.107  -9.831 -23.758  0.00  0.00    -0.013 C 
ATOM     10  C   UNL     1      31.675 -11.990 -20.915  0.00  0.00    +0.002 C 
ATOM     11  C   UNL     1      33.265  -8.563 -23.533  0.00  0.00    +0.013 C 
ATOM     12  C   UNL     1      31.962 -10.986 -19.792  0.00  0.00    +0.021 C 
ATOM     13  C   UNL     1      31.629  -9.550 -20.205  0.00  0.00    +0.089 C 
ATOM     14  C   UNL     1      32.120  -8.801 -22.549  0.00  0.00    +0.202 C 
ATOM     15  H   UNL     1      33.483  -8.997 -21.039  0.00  0.00    +0.149 HD
ENDROOT
BRANCH  11  16
ATOM     16  N   UNL     1      34.075  -7.463 -23.010  0.00  0.00    +0.387 N 
ATOM     17  H   UNL     1      34.844  -7.841 -22.455  0.00  0.00    -0.089 HD
ATOM     18  H   UNL     1      33.496  -6.862 -22.423  0.00  0.00    -0.089 HD
ATOM     19  H   UNL     1      34.451  -6.919 -23.786  0.00  0.00    -0.089 HD
ENDBRANCH  11  16
TORSDOF 1
ENDMDL
MODEL 4
REMARK VINA RESULT:      -6.8      1.678      3.763
REMARK  Name = 446676
REMARK  1 active torsions:
REMARK  status: ('A' for Active; 'I' for Inactive)
REMARK    1  A    between atoms: C_11  and  N_16
REMARK                            x       y       z     vdW  Elec       q    Type
REMARK                         _______ _______ _______ _____ _____    ______ ____
ROOT
ATOM      1  O   UNL     1      31.936 -14.494 -22.466  0.00  0.00    -0.277 OA
ATOM      2  N   UNL     1      34.157 -14.231 -21.850  0.00  0.00    -0.306 N 
ATOM      3  C   UNL     1      35.271 -18.103 -24.367  0.00  0.00    -0.000 C 
ATOM      4  C   UNL     1      34.349 -18.976 -23.507  0.00  0.00    -0.000 C 
ATOM      5  C   UNL     1      34.535 -17.435 -25.537  0.00  0.00    -0.000 C 
ATOM      6  C   UNL     1      34.954 -19.395 -22.159  0.00  0.00    +0.000 C 
ATOM      7  C   UNL     1      33.631 -16.261 -25.124  0.00  0.00    -0.002 C 
ATOM      8  C   UNL     1      35.405 -18.250 -21.241  0.00  0.00    +0.000 C 
ATOM      9  C   UNL     1      34.412 -14.980 -24.792  0.00  0.00    -0.013 C 
ATOM     10  C   UNL     1      34.352 -17.155 -21.061  0.00  0.00    +0.002 C 
ATOM     11  C   UNL     1      33.503 -13.895 -24.188  0.00  0.00    +0.013 C 
ATOM     12  C   UNL     1      34.893 -15.960 -20.268  0.00  0.00    +0.021 C 
ATOM     13  C   UNL     1      34.048 -14.701 -20.476  0.00  0.00    +0.089 C 
ATOM     14  C   UNL     1      33.102 -14.219 -22.750  0.00  0.00    +0.202 C 
ATOM     15  H   UNL     1      35.032 -13.903 -22.159  0.00  0.00    +0.149 HD
ENDROOT
BRANCH  11  16
ATOM     16  N   UNL     1      34.157 -12.586 -24.181  0.00  0.00    +0.387 N 
ATOM     17  H   UNL     1      34.426 -12.346 -23.227  0.00  0.00    -0.089 HD
ATOM     18  H   UNL     1      33.511 -11.881 -24.539  0.00  0.00    -0.089 HD
ATOM     19  H   UNL     1      34.987 -12.618 -24.772  0.00  0.00    -0.089 HD
ENDBRANCH  11  16
TORSDOF 1
ENDMDL
MODEL 5
REMARK VINA RESULT:      -6.5      9.419     11.268
REMARK  Name = 446676
REMARK  1 active torsions:
REMARK  status: ('A' for Active; 'I' for Inactive)
REMARK    1  A    between atoms: C_11  and  N_16
REMARK                            x       y       z     vdW  Elec       q    Type
REMARK                         _______ _______ _______ _____ _____    ______ ____
ROOT
ATOM      1  O   UNL     1      35.883 -25.299 -15.380  0.00  0.00    -0.277 OA
ATOM      2  N   UNL     1      36.150 -23.072 -14.787  0.00  0.00    -0.306 N 
ATOM      3  C   UNL     1      33.408 -21.811 -18.456  0.00  0.00    -0.000 C 
ATOM      4  C   UNL     1      34.383 -22.447 -19.455  0.00  0.00    -0.000 C 
ATOM      5  C   UNL     1      32.382 -22.812 -17.907  0.00  0.00    -0.000 C 
ATOM      6  C   UNL     1      35.610 -21.581 -19.776  0.00  0.00    +0.000 C 
ATOM      7  C   UNL     1      32.955 -23.803 -16.881  0.00  0.00    -0.002 C 
ATOM      8  C   UNL     1      36.471 -21.165 -18.575  0.00  0.00    +0.000 C 
ATOM      9  C   UNL     1      33.189 -23.177 -15.496  0.00  0.00    -0.013 C 
ATOM     10  C   UNL     1      36.836 -22.326 -17.647  0.00  0.00    +0.002 C 
ATOM     11  C   UNL     1      33.951 -24.129 -14.558  0.00  0.00    +0.013 C 
ATOM     12  C   UNL     1      37.560 -21.849 -16.384  0.00  0.00    +0.021 C 
ATOM     13  C   UNL     1      37.514 -22.893 -15.265  0.00  0.00    +0.089 C 
ATOM     14  C   UNL     1      35.426 -24.246 -14.934  0.00  0.00    +0.202 C 
ATOM     15  H   UNL     1      35.714 -22.314 -14.334  0.00  0.00    +0.149 HD
ENDROOT
BRANCH  11  16
ATOM     16  N   UNL     1      33.883 -23.683 -13.166  0.00  0.00    +0.387 N 
ATOM     17  H   UNL     1      33.440 -22.764 -13.126  0.00  0.00    -0.089 HD
ATOM     18  H   UNL     1      34.826 -23.621 -12.782  0.00  0.00    -0.089 HD
ATOM     19  H   UNL     1      33.336 -24.349 -12.622  0.00  0.00    -0.089 HD
ENDBRANCH  11  16
TORSDOF 1
ENDMDL
MODEL 6
REMARK VINA RESULT:      -6.5      8.079     10.546
REMARK  Name = 446676
REMARK  1 active torsions:
REMARK  status: ('A' for Active; 'I' for Inactive)
REMARK    1  A    between atoms: C_11  and  N_16
REMARK                            x       y       z     vdW  Elec       q    Type
REMARK                         _______ _______ _______ _____ _____    ______ ____
ROOT
ATOM      1  O   UNL     1      30.791  -7.614 -23.390  0.00  0.00    -0.277 OA
ATOM      2  N   UNL     1      32.736  -6.730 -22.486  0.00  0.00    -0.306 N 
ATOM      3  C   UNL     1      32.819  -3.479 -25.949  0.00  0.00    -0.000 C 
ATOM      4  C   UNL     1      32.916  -4.569 -27.024  0.00  0.00    -0.000 C 
ATOM      5  C   UNL     1      31.371  -3.163 -25.553  0.00  0.00    -0.000 C 
ATOM      6  C   UNL     1      34.327  -5.145 -27.214  0.00  0.00    +0.000 C 
ATOM      7  C   UNL     1      30.708  -4.237 -24.676  0.00  0.00    -0.002 C 
ATOM      8  C   UNL     1      34.980  -5.748 -25.962  0.00  0.00    +0.000 C 
ATOM      9  C   UNL     1      31.187  -4.210 -23.215  0.00  0.00    -0.013 C 
ATOM     10  C   UNL     1      34.077  -6.727 -25.208  0.00  0.00    +0.002 C 
ATOM     11  C   UNL     1      30.666  -5.419 -22.418  0.00  0.00    +0.013 C 
ATOM     12  C   UNL     1      34.702  -7.186 -23.886  0.00  0.00    +0.021 C 
ATOM     13  C   UNL     1      33.659  -7.766 -22.928  0.00  0.00    +0.089 C 
ATOM     14  C   UNL     1      31.385  -6.711 -22.801  0.00  0.00    +0.202 C 
ATOM     15  H   UNL     1      33.091  -5.999 -21.931  0.00  0.00    +0.149 HD
ENDROOT
BRANCH  11  16
ATOM     16  N   UNL     1      30.836  -5.228 -20.978  0.00  0.00    +0.387 N 
ATOM     17  H   UNL     1      31.827  -5.114 -20.764  0.00  0.00    -0.089 HD
ATOM     18  H   UNL     1      30.474  -6.043 -20.482  0.00  0.00    -0.089 HD
ATOM     19  H   UNL     1      30.326  -4.396 -20.682  0.00  0.00    -0.089 HD
ENDBRANCH  11  16
TORSDOF 1
ENDMDL
MODEL 7
REMARK VINA RESULT:      -6.4      3.353      4.943
REMARK  Name = 446676
REMARK  1 active torsions:
REMARK  status: ('A' for Active; 'I' for Inactive)
REMARK    1  A    between atoms: C_11  and  N_16
REMARK                            x       y       z     vdW  Elec       q    Type
REMARK                         _______ _______ _______ _____ _____    ______ ____
ROOT
ATOM      1  O   UNL     1      34.860  -9.183 -23.317  0.00  0.00    -0.277 OA
ATOM      2  N   UNL     1      33.279 -10.171 -24.699  0.00  0.00    -0.306 N 
ATOM      3  C   UNL     1      31.147 -12.012 -20.874  0.00  0.00    -0.000 C 
ATOM      4  C   UNL     1      32.412 -12.794 -20.496  0.00  0.00    -0.000 C 
ATOM      5  C   UNL     1      31.141 -10.585 -20.311  0.00  0.00    -0.000 C 
ATOM      6  C   UNL     1      32.614 -14.091 -21.294  0.00  0.00    +0.000 C 
ATOM      7  C   UNL     1      32.087  -9.616 -21.039  0.00  0.00    -0.002 C 
ATOM      8  C   UNL     1      32.670 -13.937 -22.820  0.00  0.00    +0.000 C 
ATOM      9  C   UNL     1      31.552  -9.155 -22.404  0.00  0.00    -0.013 C 
ATOM     10  C   UNL     1      33.624 -12.839 -23.294  0.00  0.00    +0.002 C 
ATOM     11  C   UNL     1      32.605  -8.358 -23.194  0.00  0.00    +0.013 C 
ATOM     12  C   UNL     1      33.537 -12.612 -24.807  0.00  0.00    +0.021 C 
ATOM     13  C   UNL     1      34.106 -11.252 -25.218  0.00  0.00    +0.089 C 
ATOM     14  C   UNL     1      33.709  -9.258 -23.747  0.00  0.00    +0.202 C 
ATOM     15  H   UNL     1      32.361 -10.084 -25.042  0.00  0.00    +0.149 HD
ENDROOT
BRANCH  11  16
ATOM     16  N   UNL     1      32.007  -7.645 -24.323  0.00  0.00    +0.387 N 
ATOM     17  H   UNL     1      32.740  -7.369 -24.977  0.00  0.00    -0.089 HD
ATOM     18  H   UNL     1      31.525  -6.812 -23.983  0.00  0.00    -0.089 HD
ATOM     19  H   UNL     1      31.341  -8.255 -24.795  0.00  0.00    -0.089 HD
ENDBRANCH  11  16
TORSDOF 1
ENDMDL
MODEL 8
REMARK VINA RESULT:      -6.3      4.114      6.589
REMARK  Name = 446676
REMARK  1 active torsions:
REMARK  status: ('A' for Active; 'I' for Inactive)
REMARK    1  A    between atoms: C_11  and  N_16
REMARK                            x       y       z     vdW  Elec       q    Type
REMARK                         _______ _______ _______ _____ _____    ______ ____
ROOT
ATOM      1  O   UNL     1      30.188 -11.132 -22.159  0.00  0.00    -0.277 OA
ATOM      2  N   UNL     1      32.279 -11.986 -21.626  0.00  0.00    -0.306 N 
ATOM      3  C   UNL     1      34.176  -7.695 -22.375  0.00  0.00    -0.000 C 
ATOM      4  C   UNL     1      33.710  -7.700 -23.837  0.00  0.00    -0.000 C 
ATOM      5  C   UNL     1      33.106  -7.162 -21.413  0.00  0.00    -0.000 C 
ATOM      6  C   UNL     1      34.605  -8.516 -24.781  0.00  0.00    +0.000 C 
ATOM      7  C   UNL     1      31.949  -8.140 -21.152  0.00  0.00    -0.002 C 
ATOM      8  C   UNL     1      34.801  -9.993 -24.411  0.00  0.00    +0.000 C 
ATOM      9  C   UNL     1      32.327  -9.291 -20.206  0.00  0.00    -0.013 C 
ATOM     10  C   UNL     1      33.495 -10.731 -24.107  0.00  0.00    +0.002 C 
ATOM     11  C   UNL     1      31.221 -10.358 -20.131  0.00  0.00    +0.013 C 
ATOM     12  C   UNL     1      33.742 -12.153 -23.593  0.00  0.00    +0.021 C 
ATOM     13  C   UNL     1      32.523 -12.719 -22.861  0.00  0.00    +0.089 C 
ATOM     14  C   UNL     1      31.155 -11.206 -21.400  0.00  0.00    +0.202 C 
ATOM     15  H   UNL     1      32.952 -12.046 -20.911  0.00  0.00    +0.149 HD
ENDROOT
BRANCH  11  16
ATOM     16  N   UNL     1      31.423 -11.266 -19.002  0.00  0.00    +0.387 N 
ATOM     17  H   UNL     1      30.814 -10.991 -18.230  0.00  0.00    -0.089 HD
ATOM     18  H   UNL     1      32.397 -11.220 -18.698  0.00  0.00    -0.089 HD
ATOM     19  H   UNL     1      31.201 -12.219 -19.287  0.00  0.00    -0.089 HD
ENDBRANCH  11  16
TORSDOF 1
ENDMDL
MODEL 9
REMARK VINA RESULT:      -6.3      3.576      6.180
REMARK  Name = 446676
REMARK  1 active torsions:
REMARK  status: ('A' for Active; 'I' for Inactive)
REMARK    1  A    between atoms: C_11  and  N_16
REMARK                            x       y       z     vdW  Elec       q    Type
REMARK                         _______ _______ _______ _____ _____    ______ ____
ROOT
ATOM      1  O   UNL     1      31.647 -13.062 -23.889  0.00  0.00    -0.277 OA
ATOM      2  N   UNL     1      33.845 -12.563 -23.336  0.00  0.00    -0.306 N 
ATOM      3  C   UNL     1      32.292  -9.158 -20.412  0.00  0.00    -0.000 C 
ATOM      4  C   UNL     1      31.619  -8.413 -21.572  0.00  0.00    -0.000 C 
ATOM      5  C   UNL     1      31.389 -10.234 -19.795  0.00  0.00    -0.000 C 
ATOM      6  C   UNL     1      32.580  -7.567 -22.420  0.00  0.00    +0.000 C 
ATOM      7  C   UNL     1      31.235 -11.497 -20.657  0.00  0.00    -0.002 C 
ATOM      8  C   UNL     1      33.760  -8.321 -23.050  0.00  0.00    +0.000 C 
ATOM      9  C   UNL     1      32.470 -12.413 -20.622  0.00  0.00    -0.013 C 
ATOM     10  C   UNL     1      33.353  -9.602 -23.781  0.00  0.00    +0.002 C 
ATOM     11  C   UNL     1      32.368 -13.554 -21.650  0.00  0.00    +0.013 C 
ATOM     12  C   UNL     1      34.568 -10.405 -24.259  0.00  0.00    +0.021 C 
ATOM     13  C   UNL     1      34.212 -11.863 -24.559  0.00  0.00    +0.089 C 
ATOM     14  C   UNL     1      32.575 -13.057 -23.079  0.00  0.00    +0.202 C 
ATOM     15  H   UNL     1      34.539 -12.693 -22.651  0.00  0.00    +0.149 HD
ENDROOT
BRANCH  11  16
ATOM     16  N   UNL     1      33.361 -14.598 -21.395  0.00  0.00    +0.387 N 
ATOM     17  H   UNL     1      33.265 -14.931 -20.435  0.00  0.00    -0.089 HD
ATOM     18  H   UNL     1      34.298 -14.217 -21.531  0.00  0.00    -0.089 HD
ATOM     19  H   UNL     1      33.212 -15.373 -22.041  0.00  0.00    -0.089 HD
ENDBRANCH  11  16
TORSDOF 1
ENDMDL
