MODEL 1
REMARK VINA RESULT:      -5.0      0.000      0.000
REMARK  Name = 86289686
REMARK  3 active torsions:
REMARK  status: ('A' for Active; 'I' for Inactive)
REMARK    1  A    between atoms: CA_1  and  N_2
REMARK    2  A    between atoms: CA_1  and  CB_7
REMARK    3  A    between atoms: CA_1  and  C_11
REMARK                            x       y       z     vdW  Elec       q    Type
REMARK                         _______ _______ _______ _____ _____    ______ ____
ROOT
ATOM      1  CA  THR A   1      38.793 -25.027 -14.508  0.00  0.00    +0.099 C 
ENDROOT
BRANCH   1   2
ATOM      2  N   THR A   1      37.800 -25.851 -15.264  0.00  0.00    +0.393 N 
ATOM      3  H1  THR A   1      37.284 -26.442 -14.613  0.00  0.00    -0.088 HD
ATOM      4  H2  THR A   1      38.289 -26.436 -15.940  0.00  0.00    -0.088 HD
ATOM      5  H3  THR A   1      37.151 -25.236 -15.753  0.00  0.00    -0.088 HD
ENDBRANCH   1   2
BRANCH   1   7
ATOM      6  OG1 THR A   1      38.753 -24.002 -12.321  0.00  0.00    -0.298 OA
ATOM      7  CB  THR A   1      38.370 -24.916 -13.052  0.00  0.00    +0.142 C 
ATOM      8  CG2 THR A   1      37.429 -25.976 -12.536  0.00  0.00    +0.071 C 
ENDBRANCH   1   7
BRANCH   1  11
ATOM      9  O   THR A   1      40.311 -26.837 -14.634  0.00  0.00    -0.248 OA
ATOM     10  OXT THR A   1      41.126 -24.700 -14.618  0.00  0.00    -0.248 OA
ATOM     11  C   THR A   1      40.217 -25.578 -14.595  0.00  0.00    +0.352 C 
ENDBRANCH   1  11
TORSDOF 3
ENDMDL
MODEL 2
REMARK VINA RESULT:      -4.9      2.496      2.954
REMARK  Name = 86289686
REMARK  3 active torsions:
REMARK  status: ('A' for Active; 'I' for Inactive)
REMARK    1  A    between atoms: CA_1  and  N_2
REMARK    2  A    between atoms: CA_1  and  CB_7
REMARK    3  A    between atoms: CA_1  and  C_11
REMARK                            x       y       z     vdW  Elec       q    Type
REMARK                         _______ _______ _______ _____ _____    ______ ____
ROOT
ATOM      1  CA  THR A   1      36.756 -25.399 -14.155  0.00  0.00    +0.099 C 
ENDROOT
BRANCH   1   2
ATOM      2  N   THR A   1      35.270 -25.233 -14.147  0.00  0.00    +0.393 N 
ATOM      3  H1  THR A   1      34.926 -25.295 -13.188  0.00  0.00    -0.088 HD
ATOM      4  H2  THR A   1      34.843 -25.969 -14.708  0.00  0.00    -0.088 HD
ATOM      5  H3  THR A   1      35.028 -24.323 -14.537  0.00  0.00    -0.088 HD
ENDBRANCH   1   2
BRANCH   1   7
ATOM      6  OG1 THR A   1      36.926 -26.441 -11.982  0.00  0.00    -0.298 OA
ATOM      7  CB  THR A   1      37.270 -25.525 -12.729  0.00  0.00    +0.142 C 
ATOM      8  CG2 THR A   1      38.251 -24.477 -12.266  0.00  0.00    +0.071 C 
ENDBRANCH   1   7
BRANCH   1  11
ATOM      9  O   THR A   1      38.381 -27.023 -14.720  0.00  0.00    -0.248 OA
ATOM     10  OXT THR A   1      36.380 -27.017 -15.828  0.00  0.00    -0.248 OA
ATOM     11  C   THR A   1      37.220 -26.598 -14.982  0.00  0.00    +0.352 C 
ENDBRANCH   1  11
TORSDOF 3
ENDMDL
MODEL 3
REMARK VINA RESULT:      -4.9     10.010     10.869
REMARK  Name = 86289686
REMARK  3 active torsions:
REMARK  status: ('A' for Active; 'I' for Inactive)
REMARK    1  A    between atoms: CA_1  and  N_2
REMARK    2  A    between atoms: CA_1  and  CB_7
REMARK    3  A    between atoms: CA_1  and  C_11
REMARK                            x       y       z     vdW  Elec       q    Type
REMARK                         _______ _______ _______ _____ _____    ______ ____
ROOT
ATOM      1  CA  THR A   1      28.891 -23.225 -15.656  0.00  0.00    +0.099 C 
ENDROOT
BRANCH   1   2
ATOM      2  N   THR A   1      28.801 -24.654 -15.224  0.00  0.00    +0.393 N 
ATOM      3  H1  THR A   1      29.534 -25.194 -15.683  0.00  0.00    -0.088 HD
ATOM      4  H2  THR A   1      27.890 -25.030 -15.483  0.00  0.00    -0.088 HD
ATOM      5  H3  THR A   1      28.919 -24.711 -14.213  0.00  0.00    -0.088 HD
ENDBRANCH   1   2
BRANCH   1   7
ATOM      6  OG1 THR A   1      30.731 -22.593 -17.088  0.00  0.00    -0.298 OA
ATOM      7  CB  THR A   1      30.339 -22.866 -15.953  0.00  0.00    +0.142 C 
ATOM      8  CG2 THR A   1      31.285 -22.835 -14.780  0.00  0.00    +0.071 C 
ENDBRANCH   1   7
BRANCH   1  11
ATOM      9  O   THR A   1      27.674 -21.701 -16.995  0.00  0.00    -0.248 OA
ATOM     10  OXT THR A   1      27.748 -23.905 -17.602  0.00  0.00    -0.248 OA
ATOM     11  C   THR A   1      28.018 -22.911 -16.871  0.00  0.00    +0.352 C 
ENDBRANCH   1  11
TORSDOF 3
ENDMDL
MODEL 4
REMARK VINA RESULT:      -4.9      3.195      4.607
REMARK  Name = 86289686
REMARK  3 active torsions:
REMARK  status: ('A' for Active; 'I' for Inactive)
REMARK    1  A    between atoms: CA_1  and  N_2
REMARK    2  A    between atoms: CA_1  and  CB_7
REMARK    3  A    between atoms: CA_1  and  C_11
REMARK                            x       y       z     vdW  Elec       q    Type
REMARK                         _______ _______ _______ _____ _____    ______ ____
ROOT
ATOM      1  CA  THR A   1      35.675 -24.480 -12.107  0.00  0.00    +0.099 C 
ENDROOT
BRANCH   1   2
ATOM      2  N   THR A   1      35.507 -23.365 -13.089  0.00  0.00    +0.393 N 
ATOM      3  H1  THR A   1      34.532 -23.316 -13.385  0.00  0.00    -0.088 HD
ATOM      4  H2  THR A   1      36.099 -23.536 -13.901  0.00  0.00    -0.088 HD
ATOM      5  H3  THR A   1      35.775 -22.484 -12.652  0.00  0.00    -0.088 HD
ENDBRANCH   1   2
BRANCH   1   7
ATOM      6  OG1 THR A   1      37.025 -26.480 -11.990  0.00  0.00    -0.298 OA
ATOM      7  CB  THR A   1      36.703 -25.474 -12.623  0.00  0.00    +0.142 C 
ATOM      8  CG2 THR A   1      37.306 -25.185 -13.975  0.00  0.00    +0.071 C 
ENDBRANCH   1   7
BRANCH   1  11
ATOM      9  O   THR A   1      35.416 -24.486  -9.755  0.00  0.00    -0.248 OA
ATOM     10  OXT THR A   1      37.023 -23.158 -10.695  0.00  0.00    -0.248 OA
ATOM     11  C   THR A   1      36.076 -23.994 -10.714  0.00  0.00    +0.352 C 
ENDBRANCH   1  11
TORSDOF 3
ENDMDL
MODEL 5
REMARK VINA RESULT:      -4.8      2.430      2.932
REMARK  Name = 86289686
REMARK  3 active torsions:
REMARK  status: ('A' for Active; 'I' for Inactive)
REMARK    1  A    between atoms: CA_1  and  N_2
REMARK    2  A    between atoms: CA_1  and  CB_7
REMARK    3  A    between atoms: CA_1  and  C_11
REMARK                            x       y       z     vdW  Elec       q    Type
REMARK                         _______ _______ _______ _____ _____    ______ ____
ROOT
ATOM      1  CA  THR A   1      37.553 -26.576 -13.977  0.00  0.00    +0.099 C 
ENDROOT
BRANCH   1   2
ATOM      2  N   THR A   1      36.863 -26.063 -12.753  0.00  0.00    +0.393 N 
ATOM      3  H1  THR A   1      37.559 -25.812 -12.051  0.00  0.00    -0.088 HD
ATOM      4  H2  THR A   1      36.250 -26.787 -12.380  0.00  0.00    -0.088 HD
ATOM      5  H3  THR A   1      36.311 -25.240 -12.994  0.00  0.00    -0.088 HD
ENDBRANCH   1   2
BRANCH   1   7
ATOM      6  OG1 THR A   1      36.682 -27.221 -16.136  0.00  0.00    -0.298 OA
ATOM      7  CB  THR A   1      36.633 -26.446 -15.181  0.00  0.00    +0.142 C 
ATOM      8  CG2 THR A   1      35.627 -25.323 -15.148  0.00  0.00    +0.071 C 
ENDBRANCH   1   7
BRANCH   1  11
ATOM      9  O   THR A   1      39.803 -26.603 -14.708  0.00  0.00    -0.248 OA
ATOM     10  OXT THR A   1      38.885 -24.631 -14.002  0.00  0.00    -0.248 OA
ATOM     11  C   THR A   1      38.879 -25.868 -14.257  0.00  0.00    +0.352 C 
ENDBRANCH   1  11
TORSDOF 3
ENDMDL
MODEL 6
REMARK VINA RESULT:      -4.7     10.464     11.150
REMARK  Name = 86289686
REMARK  3 active torsions:
REMARK  status: ('A' for Active; 'I' for Inactive)
REMARK    1  A    between atoms: CA_1  and  N_2
REMARK    2  A    between atoms: CA_1  and  CB_7
REMARK    3  A    between atoms: CA_1  and  C_11
REMARK                            x       y       z     vdW  Elec       q    Type
REMARK                         _______ _______ _______ _____ _____    ______ ____
ROOT
ATOM      1  CA  THR A   1      40.946 -15.286 -16.317  0.00  0.00    +0.099 C 
ENDROOT
BRANCH   1   2
ATOM      2  N   THR A   1      40.914 -14.712 -14.936  0.00  0.00    +0.393 N 
ATOM      3  H1  THR A   1      41.751 -14.149 -14.783  0.00  0.00    -0.088 HD
ATOM      4  H2  THR A   1      40.886 -15.469 -14.254  0.00  0.00    -0.088 HD
ATOM      5  H3  THR A   1      40.086 -14.127 -14.831  0.00  0.00    -0.088 HD
ENDBRANCH   1   2
BRANCH   1   7
ATOM      6  OG1 THR A   1      40.914 -14.249 -18.499  0.00  0.00    -0.298 OA
ATOM      7  CB  THR A   1      41.274 -14.194 -17.323  0.00  0.00    +0.142 C 
ATOM      8  CG2 THR A   1      42.053 -13.009 -16.808  0.00  0.00    +0.071 C 
ENDBRANCH   1   7
BRANCH   1  11
ATOM      9  O   THR A   1      43.124 -16.186 -16.107  0.00  0.00    -0.248 OA
ATOM     10  OXT THR A   1      41.446 -17.510 -16.921  0.00  0.00    -0.248 OA
ATOM     11  C   THR A   1      41.938 -16.440 -16.462  0.00  0.00    +0.352 C 
ENDBRANCH   1  11
TORSDOF 3
ENDMDL
MODEL 7
REMARK VINA RESULT:      -4.6      3.004      3.941
REMARK  Name = 86289686
REMARK  3 active torsions:
REMARK  status: ('A' for Active; 'I' for Inactive)
REMARK    1  A    between atoms: CA_1  and  N_2
REMARK    2  A    between atoms: CA_1  and  CB_7
REMARK    3  A    between atoms: CA_1  and  C_11
REMARK                            x       y       z     vdW  Elec       q    Type
REMARK                         _______ _______ _______ _____ _____    ______ ____
ROOT
ATOM      1  CA  THR A   1      37.084 -24.486 -12.498  0.00  0.00    +0.099 C 
ENDROOT
BRANCH   1   2
ATOM      2  N   THR A   1      37.813 -25.785 -12.379  0.00  0.00    +0.393 N 
ATOM      3  H1  THR A   1      37.706 -26.316 -13.243  0.00  0.00    -0.088 HD
ATOM      4  H2  THR A   1      37.428 -26.321 -11.602  0.00  0.00    -0.088 HD
ATOM      5  H3  THR A   1      38.803 -25.605 -12.211  0.00  0.00    -0.088 HD
ENDBRANCH   1   2
BRANCH   1   7
ATOM      6  OG1 THR A   1      35.436 -25.077 -10.833  0.00  0.00    -0.298 OA
ATOM      7  CB  THR A   1      35.670 -24.635 -11.958  0.00  0.00    +0.142 C 
ATOM      8  CG2 THR A   1      34.548 -24.193 -12.864  0.00  0.00    +0.071 C 
ENDBRANCH   1   7
BRANCH   1  11
ATOM      9  O   THR A   1      37.040 -22.414 -11.356  0.00  0.00    -0.248 OA
ATOM     10  OXT THR A   1      39.049 -23.446 -11.713  0.00  0.00    -0.248 OA
ATOM     11  C   THR A   1      37.793 -23.334 -11.785  0.00  0.00    +0.352 C 
ENDBRANCH   1  11
TORSDOF 3
ENDMDL
MODEL 8
REMARK VINA RESULT:      -4.5      2.754      4.400
REMARK  Name = 86289686
REMARK  3 active torsions:
REMARK  status: ('A' for Active; 'I' for Inactive)
REMARK    1  A    between atoms: CA_1  and  N_2
REMARK    2  A    between atoms: CA_1  and  CB_7
REMARK    3  A    between atoms: CA_1  and  C_11
REMARK                            x       y       z     vdW  Elec       q    Type
REMARK                         _______ _______ _______ _____ _____    ______ ____
ROOT
ATOM      1  CA  THR A   1      36.016 -24.433 -12.645  0.00  0.00    +0.099 C 
ENDROOT
BRANCH   1   2
ATOM      2  N   THR A   1      35.258 -23.335 -13.320  0.00  0.00    +0.393 N 
ATOM      3  H1  THR A   1      34.258 -23.528 -13.264  0.00  0.00    -0.088 HD
ATOM      4  H2  THR A   1      35.538 -23.281 -14.299  0.00  0.00    -0.088 HD
ATOM      5  H3  THR A   1      35.460 -22.449 -12.859  0.00  0.00    -0.088 HD
ENDBRANCH   1   2
BRANCH   1   7
ATOM      6  OG1 THR A   1      37.929 -23.580 -13.849  0.00  0.00    -0.298 OA
ATOM      7  CB  THR A   1      37.432 -24.497 -13.194  0.00  0.00    +0.142 C 
ATOM      8  CG2 THR A   1      38.226 -25.740 -12.881  0.00  0.00    +0.071 C 
ENDBRANCH   1   7
BRANCH   1  11
ATOM      9  O   THR A   1      36.843 -23.398 -10.684  0.00  0.00    -0.248 OA
ATOM     10  OXT THR A   1      35.292 -25.069 -10.493  0.00  0.00    -0.248 OA
ATOM     11  C   THR A   1      36.055 -24.284 -11.124  0.00  0.00    +0.352 C 
ENDBRANCH   1  11
TORSDOF 3
ENDMDL
MODEL 9
REMARK VINA RESULT:      -4.4      2.173      2.827
REMARK  Name = 86289686
REMARK  3 active torsions:
REMARK  status: ('A' for Active; 'I' for Inactive)
REMARK    1  A    between atoms: CA_1  and  N_2
REMARK    2  A    between atoms: CA_1  and  CB_7
REMARK    3  A    between atoms: CA_1  and  C_11
REMARK                            x       y       z     vdW  Elec       q    Type
REMARK                         _______ _______ _______ _____ _____    ______ ____
ROOT
ATOM      1  CA  THR A   1      38.256 -24.977 -13.382  0.00  0.00    +0.099 C 
ENDROOT
BRANCH   1   2
ATOM      2  N   THR A   1      38.183 -24.665 -14.842  0.00  0.00    +0.393 N 
ATOM      3  H1  THR A   1      38.328 -25.519 -15.380  0.00  0.00    -0.088 HD
ATOM      4  H2  THR A   1      38.906 -23.987 -15.081  0.00  0.00    -0.088 HD
ATOM      5  H3  THR A   1      37.266 -24.277 -15.061  0.00  0.00    -0.088 HD
ENDBRANCH   1   2
BRANCH   1   7
ATOM      6  OG1 THR A   1      38.402 -23.239 -11.710  0.00  0.00    -0.298 OA
ATOM      7  CB  THR A   1      37.729 -23.801 -12.575  0.00  0.00    +0.142 C 
ATOM      8  CG2 THR A   1      36.334 -23.328 -12.897  0.00  0.00    +0.071 C 
ENDBRANCH   1   7
BRANCH   1  11
ATOM      9  O   THR A   1      37.107 -26.313 -11.802  0.00  0.00    -0.248 OA
ATOM     10  OXT THR A   1      37.349 -27.080 -13.943  0.00  0.00    -0.248 OA
ATOM     11  C   THR A   1      37.495 -26.249 -13.003  0.00  0.00    +0.352 C 
ENDBRANCH   1  11
TORSDOF 3
ENDMDL
