MODEL 1
REMARK VINA RESULT:      -6.6      0.000      0.000
REMARK  Name = 26105
REMARK  5 active torsions:
REMARK  status: ('A' for Active; 'I' for Inactive)
REMARK    1  A    between atoms: N_3  and  C_9
REMARK    2  A    between atoms: C_9  and  C_10
REMARK    3  A    between atoms: C_10  and  O_11
REMARK    4  A    between atoms: C_10  and  C_13
REMARK    5  A    between atoms: C_13  and  O_14
REMARK                            x       y       z     vdW  Elec       q    Type
REMARK                         _______ _______ _______ _____ _____    ______ ____
ROOT
ATOM      1  O   UNL     1      40.986 -26.738 -14.020  0.00  0.00    -0.123 OA
ATOM      2  O   UNL     1      40.662 -24.581 -14.299  0.00  0.00    -0.123 OA
ATOM      3  N   UNL     1      37.859 -25.119 -14.117  0.00  0.00    -0.248 N 
ATOM      4  N   UNL     1      38.359 -27.097 -14.950  0.00  0.00    -0.207 NA
ATOM      5  N   UNL     1      40.215 -25.762 -14.243  0.00  0.00    +0.091 N 
ATOM      6  C   UNL     1      38.847 -25.991 -14.433  0.00  0.00    +0.284 C 
ATOM      7  C   UNL     1      36.666 -25.678 -14.442  0.00  0.00    +0.089 C 
ATOM      8  C   UNL     1      36.999 -26.908 -14.959  0.00  0.00    +0.118 C 
ENDROOT
BRANCH   3   9
ATOM      9  C   UNL     1      38.029 -23.790 -13.530  0.00  0.00    +0.130 C 
BRANCH   9  10
ATOM     10  C   UNL     1      38.140 -23.836 -12.005  0.00  0.00    +0.160 C 
BRANCH  10  11
ATOM     11  O   UNL     1      39.371 -23.220 -11.622  0.00  0.00    -0.380 OA
ATOM     12  H   UNL     1      39.575 -22.497 -12.235  0.00  0.00    +0.211 HD
ENDBRANCH  10  11
BRANCH  10  13
ATOM     13  C   UNL     1      36.993 -23.073 -11.351  0.00  0.00    +0.173 C 
BRANCH  13  14
ATOM     14  O   UNL     1      36.424 -23.883 -10.328  0.00  0.00    -0.348 OA
ATOM     15  C   UNL     1      35.356 -24.674 -10.826  0.00  0.00    +0.174 C 
ENDBRANCH  13  14
ENDBRANCH  10  13
ENDBRANCH   9  10
ENDBRANCH   3   9
TORSDOF 5
ENDMDL
MODEL 2
REMARK VINA RESULT:      -6.6      2.436      4.507
REMARK  Name = 26105
REMARK  5 active torsions:
REMARK  status: ('A' for Active; 'I' for Inactive)
REMARK    1  A    between atoms: N_3  and  C_9
REMARK    2  A    between atoms: C_9  and  C_10
REMARK    3  A    between atoms: C_10  and  O_11
REMARK    4  A    between atoms: C_10  and  C_13
REMARK    5  A    between atoms: C_13  and  O_14
REMARK                            x       y       z     vdW  Elec       q    Type
REMARK                         _______ _______ _______ _____ _____    ______ ____
ROOT
ATOM      1  O   UNL     1      35.460 -24.322 -10.042  0.00  0.00    -0.123 OA
ATOM      2  O   UNL     1      37.261 -24.849 -11.188  0.00  0.00    -0.123 OA
ATOM      3  N   UNL     1      35.932 -23.797 -13.493  0.00  0.00    -0.248 N 
ATOM      4  N   UNL     1      34.069 -24.400 -12.482  0.00  0.00    -0.207 NA
ATOM      5  N   UNL     1      36.053 -24.476 -11.147  0.00  0.00    +0.091 N 
ATOM      6  C   UNL     1      35.365 -24.232 -12.340  0.00  0.00    +0.284 C 
ATOM      7  C   UNL     1      34.963 -23.675 -14.434  0.00  0.00    +0.089 C 
ATOM      8  C   UNL     1      33.812 -24.055 -13.785  0.00  0.00    +0.118 C 
ENDROOT
BRANCH   3   9
ATOM      9  C   UNL     1      37.350 -23.509 -13.708  0.00  0.00    +0.130 C 
BRANCH   9  10
ATOM     10  C   UNL     1      37.970 -24.403 -14.782  0.00  0.00    +0.160 C 
BRANCH  10  11
ATOM     11  O   UNL     1      38.682 -23.576 -15.706  0.00  0.00    -0.380 OA
ATOM     12  H   UNL     1      39.545 -23.342 -15.331  0.00  0.00    +0.211 HD
ENDBRANCH  10  11
BRANCH  10  13
ATOM     13  C   UNL     1      38.952 -25.396 -14.167  0.00  0.00    +0.173 C 
BRANCH  13  14
ATOM     14  O   UNL     1      38.664 -26.698 -14.666  0.00  0.00    -0.348 OA
ATOM     15  C   UNL     1      37.269 -26.957 -14.668  0.00  0.00    +0.174 C 
ENDBRANCH  13  14
ENDBRANCH  10  13
ENDBRANCH   9  10
ENDBRANCH   3   9
TORSDOF 5
ENDMDL
MODEL 3
REMARK VINA RESULT:      -6.5      2.376      3.885
REMARK  Name = 26105
REMARK  5 active torsions:
REMARK  status: ('A' for Active; 'I' for Inactive)
REMARK    1  A    between atoms: N_3  and  C_9
REMARK    2  A    between atoms: C_9  and  C_10
REMARK    3  A    between atoms: C_10  and  O_11
REMARK    4  A    between atoms: C_10  and  C_13
REMARK    5  A    between atoms: C_13  and  O_14
REMARK                            x       y       z     vdW  Elec       q    Type
REMARK                         _______ _______ _______ _____ _____    ______ ____
ROOT
ATOM      1  O   UNL     1      40.923 -24.616 -14.446  0.00  0.00    -0.123 OA
ATOM      2  O   UNL     1      40.098 -26.654 -14.454  0.00  0.00    -0.123 OA
ATOM      3  N   UNL     1      37.772 -25.567 -13.192  0.00  0.00    -0.248 N 
ATOM      4  N   UNL     1      39.144 -24.068 -12.341  0.00  0.00    -0.207 NA
ATOM      5  N   UNL     1      40.051 -25.450 -14.072  0.00  0.00    +0.091 N 
ATOM      6  C   UNL     1      39.019 -25.036 -13.222  0.00  0.00    +0.284 C 
ATOM      7  C   UNL     1      37.047 -24.919 -12.247  0.00  0.00    +0.089 C 
ATOM      8  C   UNL     1      37.918 -23.991 -11.729  0.00  0.00    +0.118 C 
ENDROOT
BRANCH   3   9
ATOM      9  C   UNL     1      37.276 -26.662 -14.026  0.00  0.00    +0.130 C 
BRANCH   9  10
ATOM     10  C   UNL     1      36.774 -26.177 -15.387  0.00  0.00    +0.160 C 
BRANCH  10  11
ATOM     11  O   UNL     1      36.666 -27.304 -16.259  0.00  0.00    -0.380 OA
ATOM     12  H   UNL     1      37.552 -27.581 -16.540  0.00  0.00    +0.211 HD
ENDBRANCH  10  11
BRANCH  10  13
ATOM     13  C   UNL     1      35.398 -25.529 -15.263  0.00  0.00    +0.173 C 
BRANCH  13  14
ATOM     14  O   UNL     1      35.373 -24.345 -16.052  0.00  0.00    -0.348 OA
ATOM     15  C   UNL     1      36.308 -23.387 -15.580  0.00  0.00    +0.174 C 
ENDBRANCH  13  14
ENDBRANCH  10  13
ENDBRANCH   9  10
ENDBRANCH   3   9
TORSDOF 5
ENDMDL
MODEL 4
REMARK VINA RESULT:      -6.3     13.897     14.520
REMARK  Name = 26105
REMARK  5 active torsions:
REMARK  status: ('A' for Active; 'I' for Inactive)
REMARK    1  A    between atoms: N_3  and  C_9
REMARK    2  A    between atoms: C_9  and  C_10
REMARK    3  A    between atoms: C_10  and  O_11
REMARK    4  A    between atoms: C_10  and  C_13
REMARK    5  A    between atoms: C_13  and  O_14
REMARK                            x       y       z     vdW  Elec       q    Type
REMARK                         _______ _______ _______ _____ _____    ______ ____
ROOT
ATOM      1  O   UNL     1      33.597 -15.278 -26.718  0.00  0.00    -0.123 OA
ATOM      2  O   UNL     1      33.037 -14.536 -24.725  0.00  0.00    -0.123 OA
ATOM      3  N   UNL     1      34.611 -16.666 -23.643  0.00  0.00    -0.248 N 
ATOM      4  N   UNL     1      34.094 -17.755 -25.489  0.00  0.00    -0.207 NA
ATOM      5  N   UNL     1      33.550 -15.425 -25.464  0.00  0.00    +0.091 N 
ATOM      6  C   UNL     1      34.070 -16.587 -24.884  0.00  0.00    +0.284 C 
ATOM      7  C   UNL     1      35.006 -17.945 -23.423  0.00  0.00    +0.089 C 
ATOM      8  C   UNL     1      34.676 -18.606 -24.582  0.00  0.00    +0.118 C 
ENDROOT
BRANCH   3   9
ATOM      9  C   UNL     1      34.746 -15.570 -22.685  0.00  0.00    +0.130 C 
BRANCH   9  10
ATOM     10  C   UNL     1      34.113 -15.897 -21.331  0.00  0.00    +0.160 C 
BRANCH  10  11
ATOM     11  O   UNL     1      34.897 -15.287 -20.304  0.00  0.00    -0.380 OA
ATOM     12  H   UNL     1      35.558 -15.920 -19.984  0.00  0.00    +0.211 HD
ENDBRANCH  10  11
BRANCH  10  13
ATOM     13  C   UNL     1      32.693 -15.346 -21.246  0.00  0.00    +0.173 C 
BRANCH  13  14
ATOM     14  O   UNL     1      32.737 -14.043 -20.676  0.00  0.00    -0.348 OA
ATOM     15  C   UNL     1      32.165 -13.077 -21.544  0.00  0.00    +0.174 C 
ENDBRANCH  13  14
ENDBRANCH  10  13
ENDBRANCH   9  10
ENDBRANCH   3   9
TORSDOF 5
ENDMDL
MODEL 5
REMARK VINA RESULT:      -6.3      3.352      4.500
REMARK  Name = 26105
REMARK  5 active torsions:
REMARK  status: ('A' for Active; 'I' for Inactive)
REMARK    1  A    between atoms: N_3  and  C_9
REMARK    2  A    between atoms: C_9  and  C_10
REMARK    3  A    between atoms: C_10  and  O_11
REMARK    4  A    between atoms: C_10  and  C_13
REMARK    5  A    between atoms: C_13  and  O_14
REMARK                            x       y       z     vdW  Elec       q    Type
REMARK                         _______ _______ _______ _____ _____    ______ ____
ROOT
ATOM      1  O   UNL     1      38.006 -27.287 -14.600  0.00  0.00    -0.123 OA
ATOM      2  O   UNL     1      36.450 -26.322 -15.817  0.00  0.00    -0.123 OA
ATOM      3  N   UNL     1      36.545 -24.146 -13.964  0.00  0.00    -0.248 N 
ATOM      4  N   UNL     1      37.139 -25.661 -12.478  0.00  0.00    -0.207 NA
ATOM      5  N   UNL     1      37.142 -26.379 -14.761  0.00  0.00    +0.091 N 
ATOM      6  C   UNL     1      36.949 -25.423 -13.758  0.00  0.00    +0.284 C 
ATOM      7  C   UNL     1      36.466 -23.516 -12.765  0.00  0.00    +0.089 C 
ATOM      8  C   UNL     1      36.839 -24.476 -11.854  0.00  0.00    +0.118 C 
ENDROOT
BRANCH   3   9
ATOM      9  C   UNL     1      36.234 -23.532 -15.254  0.00  0.00    +0.130 C 
BRANCH   9  10
ATOM     10  C   UNL     1      37.344 -22.595 -15.736  0.00  0.00    +0.160 C 
BRANCH  10  11
ATOM     11  O   UNL     1      38.519 -23.372 -15.980  0.00  0.00    -0.380 OA
ATOM     12  H   UNL     1      38.337 -24.303 -15.781  0.00  0.00    +0.211 HD
ENDBRANCH  10  11
BRANCH  10  13
ATOM     13  C   UNL     1      36.946 -21.901 -17.035  0.00  0.00    +0.173 C 
BRANCH  13  14
ATOM     14  O   UNL     1      35.770 -22.518 -17.547  0.00  0.00    -0.348 OA
ATOM     15  C   UNL     1      35.386 -21.954 -18.791  0.00  0.00    +0.174 C 
ENDBRANCH  13  14
ENDBRANCH  10  13
ENDBRANCH   9  10
ENDBRANCH   3   9
TORSDOF 5
ENDMDL
MODEL 6
REMARK VINA RESULT:      -6.2      3.395      5.067
REMARK  Name = 26105
REMARK  5 active torsions:
REMARK  status: ('A' for Active; 'I' for Inactive)
REMARK    1  A    between atoms: N_3  and  C_9
REMARK    2  A    between atoms: C_9  and  C_10
REMARK    3  A    between atoms: C_10  and  O_11
REMARK    4  A    between atoms: C_10  and  C_13
REMARK    5  A    between atoms: C_13  and  O_14
REMARK                            x       y       z     vdW  Elec       q    Type
REMARK                         _______ _______ _______ _____ _____    ______ ____
ROOT
ATOM      1  O   UNL     1      35.280 -25.085 -10.483  0.00  0.00    -0.123 OA
ATOM      2  O   UNL     1      34.572 -23.901 -12.196  0.00  0.00    -0.123 OA
ATOM      3  N   UNL     1      36.608 -25.182 -13.744  0.00  0.00    -0.248 N 
ATOM      4  N   UNL     1      37.725 -25.317 -11.848  0.00  0.00    -0.207 NA
ATOM      5  N   UNL     1      35.430 -24.664 -11.665  0.00  0.00    +0.091 N 
ATOM      6  C   UNL     1      36.560 -25.044 -12.396  0.00  0.00    +0.284 C 
ATOM      7  C   UNL     1      37.862 -25.560 -14.097  0.00  0.00    +0.089 C 
ATOM      8  C   UNL     1      38.540 -25.638 -12.904  0.00  0.00    +0.118 C 
ENDROOT
BRANCH   3   9
ATOM      9  C   UNL     1      35.506 -24.956 -14.679  0.00  0.00    +0.130 C 
BRANCH   9  10
ATOM     10  C   UNL     1      35.582 -23.583 -15.348  0.00  0.00    +0.160 C 
BRANCH  10  11
ATOM     11  O   UNL     1      36.705 -23.571 -16.232  0.00  0.00    -0.380 OA
ATOM     12  H   UNL     1      36.733 -24.402 -16.731  0.00  0.00    +0.211 HD
ENDBRANCH  10  11
BRANCH  10  13
ATOM     13  C   UNL     1      34.323 -23.302 -16.163  0.00  0.00    +0.173 C 
BRANCH  13  14
ATOM     14  O   UNL     1      34.695 -23.041 -17.512  0.00  0.00    -0.348 OA
ATOM     15  C   UNL     1      33.585 -22.607 -18.282  0.00  0.00    +0.174 C 
ENDBRANCH  13  14
ENDBRANCH  10  13
ENDBRANCH   9  10
ENDBRANCH   3   9
TORSDOF 5
ENDMDL
MODEL 7
REMARK VINA RESULT:      -6.2     10.086     11.084
REMARK  Name = 26105
REMARK  5 active torsions:
REMARK  status: ('A' for Active; 'I' for Inactive)
REMARK    1  A    between atoms: N_3  and  C_9
REMARK    2  A    between atoms: C_9  and  C_10
REMARK    3  A    between atoms: C_10  and  O_11
REMARK    4  A    between atoms: C_10  and  C_13
REMARK    5  A    between atoms: C_13  and  O_14
REMARK                            x       y       z     vdW  Elec       q    Type
REMARK                         _______ _______ _______ _____ _____    ______ ____
ROOT
ATOM      1  O   UNL     1      32.832 -22.296 -19.637  0.00  0.00    -0.123 OA
ATOM      2  O   UNL     1      32.504 -20.175 -20.116  0.00  0.00    -0.123 OA
ATOM      3  N   UNL     1      35.313 -20.000 -20.625  0.00  0.00    -0.248 N 
ATOM      4  N   UNL     1      35.511 -21.611 -19.135  0.00  0.00    -0.207 NA
ATOM      5  N   UNL     1      33.284 -21.141 -19.876  0.00  0.00    +0.091 N 
ATOM      6  C   UNL     1      34.667 -20.927 -19.876  0.00  0.00    +0.284 C 
ATOM      7  C   UNL     1      36.642 -20.079 -20.364  0.00  0.00    +0.089 C 
ATOM      8  C   UNL     1      36.743 -21.087 -19.434  0.00  0.00    +0.118 C 
ENDROOT
BRANCH   3   9
ATOM      9  C   UNL     1      34.698 -19.058 -21.560  0.00  0.00    +0.130 C 
BRANCH   9  10
ATOM     10  C   UNL     1      35.666 -17.956 -21.998  0.00  0.00    +0.160 C 
BRANCH  10  11
ATOM     11  O   UNL     1      36.093 -18.233 -23.333  0.00  0.00    -0.380 OA
ATOM     12  H   UNL     1      37.060 -18.300 -23.356  0.00  0.00    +0.211 HD
ENDBRANCH  10  11
BRANCH  10  13
ATOM     13  C   UNL     1      34.983 -16.592 -21.983  0.00  0.00    +0.173 C 
BRANCH  13  14
ATOM     14  O   UNL     1      35.325 -15.892 -23.174  0.00  0.00    -0.348 OA
ATOM     15  C   UNL     1      34.189 -15.273 -23.757  0.00  0.00    +0.174 C 
ENDBRANCH  13  14
ENDBRANCH  10  13
ENDBRANCH   9  10
ENDBRANCH   3   9
TORSDOF 5
ENDMDL
MODEL 8
REMARK VINA RESULT:      -6.2      3.050      3.960
REMARK  Name = 26105
REMARK  5 active torsions:
REMARK  status: ('A' for Active; 'I' for Inactive)
REMARK    1  A    between atoms: N_3  and  C_9
REMARK    2  A    between atoms: C_9  and  C_10
REMARK    3  A    between atoms: C_10  and  O_11
REMARK    4  A    between atoms: C_10  and  C_13
REMARK    5  A    between atoms: C_13  and  O_14
REMARK                            x       y       z     vdW  Elec       q    Type
REMARK                         _______ _______ _______ _____ _____    ______ ____
ROOT
ATOM      1  O   UNL     1      40.719 -26.135 -13.883  0.00  0.00    -0.123 OA
ATOM      2  O   UNL     1      40.277 -24.379 -15.131  0.00  0.00    -0.123 OA
ATOM      3  N   UNL     1      37.513 -25.077 -14.889  0.00  0.00    -0.248 N 
ATOM      4  N   UNL     1      38.230 -27.153 -14.700  0.00  0.00    -0.207 NA
ATOM      5  N   UNL     1      39.909 -25.452 -14.571  0.00  0.00    +0.091 N 
ATOM      6  C   UNL     1      38.587 -25.887 -14.716  0.00  0.00    +0.284 C 
ATOM      7  C   UNL     1      36.401 -25.847 -14.993  0.00  0.00    +0.089 C 
ATOM      8  C   UNL     1      36.869 -27.134 -14.874  0.00  0.00    +0.118 C 
ENDROOT
BRANCH   3   9
ATOM      9  C   UNL     1      37.531 -23.617 -14.962  0.00  0.00    +0.130 C 
BRANCH   9  10
ATOM     10  C   UNL     1      36.327 -23.056 -15.721  0.00  0.00    +0.160 C 
BRANCH  10  11
ATOM     11  O   UNL     1      35.466 -22.401 -14.787  0.00  0.00    -0.380 OA
ATOM     12  H   UNL     1      35.350 -21.475 -15.049  0.00  0.00    +0.211 HD
ENDBRANCH  10  11
BRANCH  10  13
ATOM     13  C   UNL     1      36.768 -22.038 -16.768  0.00  0.00    +0.173 C 
BRANCH  13  14
ATOM     14  O   UNL     1      36.034 -22.261 -17.967  0.00  0.00    -0.348 OA
ATOM     15  C   UNL     1      36.456 -21.390 -19.004  0.00  0.00    +0.174 C 
ENDBRANCH  13  14
ENDBRANCH  10  13
ENDBRANCH   9  10
ENDBRANCH   3   9
TORSDOF 5
ENDMDL
MODEL 9
REMARK VINA RESULT:      -6.1     13.334     14.280
REMARK  Name = 26105
REMARK  5 active torsions:
REMARK  status: ('A' for Active; 'I' for Inactive)
REMARK    1  A    between atoms: N_3  and  C_9
REMARK    2  A    between atoms: C_9  and  C_10
REMARK    3  A    between atoms: C_10  and  O_11
REMARK    4  A    between atoms: C_10  and  C_13
REMARK    5  A    between atoms: C_13  and  O_14
REMARK                            x       y       z     vdW  Elec       q    Type
REMARK                         _______ _______ _______ _____ _____    ______ ____
ROOT
ATOM      1  O   UNL     1      32.934 -16.042 -26.364  0.00  0.00    -0.123 OA
ATOM      2  O   UNL     1      34.928 -16.776 -25.798  0.00  0.00    -0.123 OA
ATOM      3  N   UNL     1      34.506 -15.545 -23.251  0.00  0.00    -0.248 N 
ATOM      4  N   UNL     1      33.239 -14.111 -24.345  0.00  0.00    -0.207 NA
ATOM      5  N   UNL     1      33.916 -16.053 -25.569  0.00  0.00    +0.091 N 
ATOM      6  C   UNL     1      33.885 -15.254 -24.421  0.00  0.00    +0.284 C 
ATOM      7  C   UNL     1      34.257 -14.546 -22.368  0.00  0.00    +0.089 C 
ATOM      8  C   UNL     1      33.468 -13.664 -23.068  0.00  0.00    +0.118 C 
ENDROOT
BRANCH   3   9
ATOM      9  C   UNL     1      35.319 -16.728 -22.971  0.00  0.00    +0.130 C 
BRANCH   9  10
ATOM     10  C   UNL     1      34.468 -17.948 -22.611  0.00  0.00    +0.160 C 
BRANCH  10  11
ATOM     11  O   UNL     1      34.583 -18.907 -23.664  0.00  0.00    -0.380 OA
ATOM     12  H   UNL     1      33.724 -19.011 -24.102  0.00  0.00    +0.211 HD
ENDBRANCH  10  11
BRANCH  10  13
ATOM     13  C   UNL     1      34.956 -18.591 -21.317  0.00  0.00    +0.173 C 
BRANCH  13  14
ATOM     14  O   UNL     1      34.450 -19.919 -21.243  0.00  0.00    -0.348 OA
ATOM     15  C   UNL     1      33.159 -19.951 -20.656  0.00  0.00    +0.174 C 
ENDBRANCH  13  14
ENDBRANCH  10  13
ENDBRANCH   9  10
ENDBRANCH   3   9
TORSDOF 5
ENDMDL
