MODEL 1
REMARK VINA RESULT:     -10.5      0.000      0.000
REMARK  Name = 448137
REMARK  6 active torsions:
REMARK  status: ('A' for Active; 'I' for Inactive)
REMARK    1  A    between atoms: C_1  and  O_15
REMARK    2  A    between atoms: C_4  and  N_9
REMARK    3  A    between atoms: O_15  and  C_16
REMARK    4  A    between atoms: C_16  and  C_17
REMARK    5  A    between atoms: C_17  and  C_18
REMARK    6  A    between atoms: C_18  and  C_21
REMARK                            x       y       z     vdW  Elec       q    Type
REMARK                         _______ _______ _______ _____ _____    ______ ____
ROOT
ATOM      1  C   UNL     1      34.668 -16.087 -23.030  0.00  0.00    +0.131 C 
ATOM      2  C   UNL     1      34.710 -15.980 -21.639  0.00  0.00    +0.013 C 
ATOM      3  C   UNL     1      34.805 -17.335 -23.637  0.00  0.00    +0.013 C 
ATOM      4  C   UNL     1      35.027 -18.368 -21.463  0.00  0.00    +0.093 C 
ATOM      5  C   UNL     1      34.890 -17.120 -20.856  0.00  0.00    +0.017 C 
ATOM      6  C   UNL     1      34.985 -18.476 -22.853  0.00  0.00    +0.017 C 
ATOM      7  C   UNL     1      34.565 -14.652 -20.971  0.00  0.00    +0.034 C 
ATOM      8  C   UNL     1      34.763 -17.471 -25.123  0.00  0.00    +0.034 C 
ENDROOT
BRANCH   4   9
ATOM      9  N   UNL     1      35.206 -19.499 -20.688  0.00  0.00    -0.093 N 
ATOM     10  N   UNL     1      34.210 -20.367 -20.444  0.00  0.00    -0.106 NA
ATOM     11  N   UNL     1      36.390 -19.801 -20.129  0.00  0.00    -0.014 NA
ATOM     12  N   UNL     1      36.176 -20.935 -19.474  0.00  0.00    -0.090 NA
ATOM     13  C   UNL     1      34.864 -21.246 -19.681  0.00  0.00    +0.052 C 
ATOM     14  C   UNL     1      34.226 -22.439 -19.119  0.00  0.00    +0.118 C 
ENDBRANCH   4   9
BRANCH   1  15
ATOM     15  O   UNL     1      34.491 -14.972 -23.795  0.00  0.00    -0.476 OA
BRANCH  15  16
ATOM     16  C   UNL     1      33.148 -14.593 -24.085  0.00  0.00    +0.206 C 
BRANCH  16  17
ATOM     17  C   UNL     1      32.985 -13.106 -23.800  0.00  0.00    +0.055 C 
BRANCH  17  18
ATOM     18  C   UNL     1      33.907 -12.262 -24.681  0.00  0.00    +0.071 C 
BRANCH  18  21
ATOM     19  O   UNL     1      32.968 -10.467 -23.387  0.00  0.00    -0.358 OA
ATOM     20  N   UNL     1      33.162  -9.132 -23.051  0.00  0.00    -0.082 NA
ATOM     21  C   UNL     1      33.960 -10.829 -24.211  0.00  0.00    +0.154 C 
ATOM     22  C   UNL     1      34.815  -9.824 -24.457  0.00  0.00    +0.054 C 
ATOM     23  C   UNL     1      34.271  -8.770 -23.702  0.00  0.00    +0.101 C 
ATOM     24  C   UNL     1      34.780  -7.395 -23.574  0.00  0.00    +0.056 C 
ENDBRANCH  18  21
ENDBRANCH  17  18
ENDBRANCH  16  17
ENDBRANCH  15  16
ENDBRANCH   1  15
TORSDOF 6
ENDMDL
MODEL 2
REMARK VINA RESULT:     -10.4      0.109      1.757
REMARK  Name = 448137
REMARK  6 active torsions:
REMARK  status: ('A' for Active; 'I' for Inactive)
REMARK    1  A    between atoms: C_1  and  O_15
REMARK    2  A    between atoms: C_4  and  N_9
REMARK    3  A    between atoms: O_15  and  C_16
REMARK    4  A    between atoms: C_16  and  C_17
REMARK    5  A    between atoms: C_17  and  C_18
REMARK    6  A    between atoms: C_18  and  C_21
REMARK                            x       y       z     vdW  Elec       q    Type
REMARK                         _______ _______ _______ _____ _____    ______ ____
ROOT
ATOM      1  C   UNL     1      34.705 -16.086 -22.975  0.00  0.00    +0.131 C 
ATOM      2  C   UNL     1      34.844 -17.319 -23.612  0.00  0.00    +0.013 C 
ATOM      3  C   UNL     1      34.723 -16.016 -21.582  0.00  0.00    +0.013 C 
ATOM      4  C   UNL     1      35.019 -18.411 -21.465  0.00  0.00    +0.093 C 
ATOM      5  C   UNL     1      35.001 -18.482 -22.858  0.00  0.00    +0.017 C 
ATOM      6  C   UNL     1      34.880 -17.179 -20.827  0.00  0.00    +0.017 C 
ATOM      7  C   UNL     1      34.827 -17.414 -25.103  0.00  0.00    +0.034 C 
ATOM      8  C   UNL     1      34.576 -14.706 -20.880  0.00  0.00    +0.034 C 
ENDROOT
BRANCH   4   9
ATOM      9  N   UNL     1      35.173 -19.564 -20.716  0.00  0.00    -0.093 N 
ATOM     10  N   UNL     1      34.137 -20.359 -20.402  0.00  0.00    -0.106 NA
ATOM     11  N   UNL     1      36.371 -19.960 -20.255  0.00  0.00    -0.014 NA
ATOM     12  N   UNL     1      36.124 -21.085 -19.595  0.00  0.00    -0.090 NA
ATOM     13  C   UNL     1      34.781 -21.295 -19.701  0.00  0.00    +0.052 C 
ATOM     14  C   UNL     1      34.102 -22.446 -19.100  0.00  0.00    +0.118 C 
ENDBRANCH   4   9
BRANCH   1  15
ATOM     15  O   UNL     1      34.553 -14.949 -23.713  0.00  0.00    -0.476 OA
BRANCH  15  16
ATOM     16  C   UNL     1      33.221 -14.569 -24.049  0.00  0.00    +0.206 C 
BRANCH  16  17
ATOM     17  C   UNL     1      33.040 -13.089 -23.744  0.00  0.00    +0.055 C 
BRANCH  17  18
ATOM     18  C   UNL     1      33.802 -12.214 -24.740  0.00  0.00    +0.071 C 
BRANCH  18  21
ATOM     19  O   UNL     1      32.854 -10.366 -23.529  0.00  0.00    -0.358 OA
ATOM     20  N   UNL     1      33.092  -9.043 -23.174  0.00  0.00    -0.082 NA
ATOM     21  C   UNL     1      33.894 -10.786 -24.263  0.00  0.00    +0.154 C 
ATOM     22  C   UNL     1      34.823  -9.830 -24.428  0.00  0.00    +0.054 C 
ATOM     23  C   UNL     1      34.273  -8.746 -23.722  0.00  0.00    +0.101 C 
ATOM     24  C   UNL     1      34.846  -7.402 -23.545  0.00  0.00    +0.056 C 
ENDBRANCH  18  21
ENDBRANCH  17  18
ENDBRANCH  16  17
ENDBRANCH  15  16
ENDBRANCH   1  15
TORSDOF 6
ENDMDL
MODEL 3
REMARK VINA RESULT:     -10.1      1.958      3.043
REMARK  Name = 448137
REMARK  6 active torsions:
REMARK  status: ('A' for Active; 'I' for Inactive)
REMARK    1  A    between atoms: C_1  and  O_15
REMARK    2  A    between atoms: C_4  and  N_9
REMARK    3  A    between atoms: O_15  and  C_16
REMARK    4  A    between atoms: C_16  and  C_17
REMARK    5  A    between atoms: C_17  and  C_18
REMARK    6  A    between atoms: C_18  and  C_21
REMARK                            x       y       z     vdW  Elec       q    Type
REMARK                         _______ _______ _______ _____ _____    ______ ____
ROOT
ATOM      1  C   UNL     1      34.746 -16.214 -22.835  0.00  0.00    +0.131 C 
ATOM      2  C   UNL     1      34.698 -17.431 -23.516  0.00  0.00    +0.013 C 
ATOM      3  C   UNL     1      34.513 -16.176 -21.460  0.00  0.00    +0.013 C 
ATOM      4  C   UNL     1      34.184 -18.570 -21.449  0.00  0.00    +0.093 C 
ATOM      5  C   UNL     1      34.417 -18.609 -22.824  0.00  0.00    +0.017 C 
ATOM      6  C   UNL     1      34.232 -17.354 -20.767  0.00  0.00    +0.017 C 
ATOM      7  C   UNL     1      34.944 -17.492 -24.988  0.00  0.00    +0.034 C 
ATOM      8  C   UNL     1      34.561 -14.884 -20.712  0.00  0.00    +0.034 C 
ENDROOT
BRANCH   4   9
ATOM      9  N   UNL     1      33.904 -19.737 -20.761  0.00  0.00    -0.093 N 
ATOM     10  N   UNL     1      34.828 -20.373 -20.022  0.00  0.00    -0.106 NA
ATOM     11  N   UNL     1      32.688 -20.308 -20.790  0.00  0.00    -0.014 NA
ATOM     12  N   UNL     1      32.804 -21.388 -20.027  0.00  0.00    -0.090 NA
ATOM     13  C   UNL     1      34.093 -21.398 -19.583  0.00  0.00    +0.052 C 
ATOM     14  C   UNL     1      34.628 -22.440 -18.704  0.00  0.00    +0.118 C 
ENDBRANCH   4   9
BRANCH   1  15
ATOM     15  O   UNL     1      35.022 -15.063 -23.512  0.00  0.00    -0.476 OA
BRANCH  15  16
ATOM     16  C   UNL     1      33.991 -14.539 -24.345  0.00  0.00    +0.206 C 
BRANCH  16  17
ATOM     17  C   UNL     1      33.501 -13.225 -23.753  0.00  0.00    +0.055 C 
BRANCH  17  18
ATOM     18  C   UNL     1      32.223 -13.419 -22.935  0.00  0.00    +0.071 C 
BRANCH  18  21
ATOM     19  O   UNL     1      32.160 -11.052 -22.522  0.00  0.00    -0.358 OA
ATOM     20  N   UNL     1      31.915 -10.114 -21.527  0.00  0.00    -0.082 NA
ATOM     21  C   UNL     1      31.994 -12.269 -21.987  0.00  0.00    +0.154 C 
ATOM     22  C   UNL     1      31.653 -12.216 -20.690  0.00  0.00    +0.054 C 
ATOM     23  C   UNL     1      31.614 -10.833 -20.442  0.00  0.00    +0.101 C 
ATOM     24  C   UNL     1      31.293 -10.151 -19.177  0.00  0.00    +0.056 C 
ENDBRANCH  18  21
ENDBRANCH  17  18
ENDBRANCH  16  17
ENDBRANCH  15  16
ENDBRANCH   1  15
TORSDOF 6
ENDMDL
MODEL 4
REMARK VINA RESULT:      -9.9     11.079     13.724
REMARK  Name = 448137
REMARK  6 active torsions:
REMARK  status: ('A' for Active; 'I' for Inactive)
REMARK    1  A    between atoms: C_1  and  O_15
REMARK    2  A    between atoms: C_4  and  N_9
REMARK    3  A    between atoms: O_15  and  C_16
REMARK    4  A    between atoms: C_16  and  C_17
REMARK    5  A    between atoms: C_17  and  C_18
REMARK    6  A    between atoms: C_18  and  C_21
REMARK                            x       y       z     vdW  Elec       q    Type
REMARK                         _______ _______ _______ _____ _____    ______ ____
ROOT
ATOM      1  C   UNL     1      31.622 -23.956 -15.148  0.00  0.00    +0.131 C 
ATOM      2  C   UNL     1      30.482 -24.149 -14.366  0.00  0.00    +0.013 C 
ATOM      3  C   UNL     1      31.532 -23.250 -16.348  0.00  0.00    +0.013 C 
ATOM      4  C   UNL     1      29.165 -22.931 -15.983  0.00  0.00    +0.093 C 
ATOM      5  C   UNL     1      29.254 -23.637 -14.784  0.00  0.00    +0.017 C 
ATOM      6  C   UNL     1      30.304 -22.737 -16.766  0.00  0.00    +0.017 C 
ATOM      7  C   UNL     1      30.558 -24.903 -13.080  0.00  0.00    +0.034 C 
ATOM      8  C   UNL     1      32.740 -23.032 -17.198  0.00  0.00    +0.034 C 
ENDROOT
BRANCH   4   9
ATOM      9  N   UNL     1      27.947 -22.423 -16.399  0.00  0.00    -0.093 N 
ATOM     10  N   UNL     1      27.726 -22.039 -17.667  0.00  0.00    -0.106 NA
ATOM     11  N   UNL     1      26.908 -22.284 -15.559  0.00  0.00    -0.014 NA
ATOM     12  N   UNL     1      25.935 -21.776 -16.306  0.00  0.00    -0.090 NA
ATOM     13  C   UNL     1      26.455 -21.642 -17.559  0.00  0.00    +0.052 C 
ATOM     14  C   UNL     1      25.690 -21.111 -18.690  0.00  0.00    +0.118 C 
ENDBRANCH   4   9
BRANCH   1  15
ATOM     15  O   UNL     1      32.823 -24.456 -14.739  0.00  0.00    -0.476 OA
BRANCH  15  16
ATOM     16  C   UNL     1      33.585 -23.654 -13.841  0.00  0.00    +0.206 C 
BRANCH  16  17
ATOM     17  C   UNL     1      35.053 -23.730 -14.239  0.00  0.00    +0.055 C 
BRANCH  17  18
ATOM     18  C   UNL     1      35.341 -24.969 -15.088  0.00  0.00    +0.071 C 
BRANCH  18  21
ATOM     19  O   UNL     1      36.910 -26.782 -14.919  0.00  0.00    -0.358 OA
ATOM     20  N   UNL     1      38.260 -27.056 -14.733  0.00  0.00    -0.082 NA
ATOM     21  C   UNL     1      36.758 -25.450 -14.899  0.00  0.00    +0.154 C 
ATOM     22  C   UNL     1      37.919 -24.804 -14.711  0.00  0.00    +0.054 C 
ATOM     23  C   UNL     1      38.842 -25.860 -14.611  0.00  0.00    +0.101 C 
ATOM     24  C   UNL     1      40.296 -25.770 -14.399  0.00  0.00    +0.056 C 
ENDBRANCH  18  21
ENDBRANCH  17  18
ENDBRANCH  16  17
ENDBRANCH  15  16
ENDBRANCH   1  15
TORSDOF 6
ENDMDL
MODEL 5
REMARK VINA RESULT:      -9.8      3.883      5.980
REMARK  Name = 448137
REMARK  6 active torsions:
REMARK  status: ('A' for Active; 'I' for Inactive)
REMARK    1  A    between atoms: C_1  and  O_15
REMARK    2  A    between atoms: C_4  and  N_9
REMARK    3  A    between atoms: O_15  and  C_16
REMARK    4  A    between atoms: C_16  and  C_17
REMARK    5  A    between atoms: C_17  and  C_18
REMARK    6  A    between atoms: C_18  and  C_21
REMARK                            x       y       z     vdW  Elec       q    Type
REMARK                         _______ _______ _______ _____ _____    ______ ____
ROOT
ATOM      1  C   UNL     1      34.736 -20.648 -20.466  0.00  0.00    +0.131 C 
ATOM      2  C   UNL     1      33.359 -20.515 -20.284  0.00  0.00    +0.013 C 
ATOM      3  C   UNL     1      35.474 -21.474 -19.618  0.00  0.00    +0.013 C 
ATOM      4  C   UNL     1      33.459 -22.031 -18.406  0.00  0.00    +0.093 C 
ATOM      5  C   UNL     1      32.721 -21.205 -19.254  0.00  0.00    +0.017 C 
ATOM      6  C   UNL     1      34.836 -22.165 -18.588  0.00  0.00    +0.017 C 
ATOM      7  C   UNL     1      32.552 -19.635 -21.182  0.00  0.00    +0.034 C 
ATOM      8  C   UNL     1      36.949 -21.631 -19.797  0.00  0.00    +0.034 C 
ENDROOT
BRANCH   4   9
ATOM      9  N   UNL     1      32.827 -22.715 -17.384  0.00  0.00    -0.093 N 
ATOM     10  N   UNL     1      31.491 -22.722 -17.244  0.00  0.00    -0.106 NA
ATOM     11  N   UNL     1      33.512 -23.419 -16.466  0.00  0.00    -0.014 NA
ATOM     12  N   UNL     1      32.582 -23.924 -15.665  0.00  0.00    -0.090 NA
ATOM     13  C   UNL     1      31.386 -23.490 -16.156  0.00  0.00    +0.052 C 
ATOM     14  C   UNL     1      30.099 -23.833 -15.548  0.00  0.00    +0.118 C 
ENDBRANCH   4   9
BRANCH   1  15
ATOM     15  O   UNL     1      35.360 -19.974 -21.474  0.00  0.00    -0.476 OA
BRANCH  15  16
ATOM     16  C   UNL     1      35.845 -18.667 -21.174  0.00  0.00    +0.206 C 
BRANCH  16  17
ATOM     17  C   UNL     1      36.173 -17.954 -22.479  0.00  0.00    +0.055 C 
BRANCH  17  18
ATOM     18  C   UNL     1      35.242 -18.393 -23.609  0.00  0.00    +0.071 C 
BRANCH  18  21
ATOM     19  O   UNL     1      34.514 -17.307 -25.626  0.00  0.00    -0.358 OA
ATOM     20  N   UNL     1      33.912 -16.146 -26.096  0.00  0.00    -0.082 NA
ATOM     21  C   UNL     1      34.606 -17.209 -24.293  0.00  0.00    +0.154 C 
ATOM     22  C   UNL     1      34.105 -16.054 -23.829  0.00  0.00    +0.054 C 
ATOM     23  C   UNL     1      33.677 -15.413 -25.005  0.00  0.00    +0.101 C 
ATOM     24  C   UNL     1      33.035 -14.095 -25.132  0.00  0.00    +0.056 C 
ENDBRANCH  18  21
ENDBRANCH  17  18
ENDBRANCH  16  17
ENDBRANCH  15  16
ENDBRANCH   1  15
TORSDOF 6
ENDMDL
MODEL 6
REMARK VINA RESULT:      -9.8      1.324      1.462
REMARK  Name = 448137
REMARK  6 active torsions:
REMARK  status: ('A' for Active; 'I' for Inactive)
REMARK    1  A    between atoms: C_1  and  O_15
REMARK    2  A    between atoms: C_4  and  N_9
REMARK    3  A    between atoms: O_15  and  C_16
REMARK    4  A    between atoms: C_16  and  C_17
REMARK    5  A    between atoms: C_17  and  C_18
REMARK    6  A    between atoms: C_18  and  C_21
REMARK                            x       y       z     vdW  Elec       q    Type
REMARK                         _______ _______ _______ _____ _____    ______ ____
ROOT
ATOM      1  C   UNL     1      33.652 -15.528 -23.092  0.00  0.00    +0.131 C 
ATOM      2  C   UNL     1      33.531 -15.602 -21.704  0.00  0.00    +0.013 C 
ATOM      3  C   UNL     1      34.280 -16.558 -23.793  0.00  0.00    +0.013 C 
ATOM      4  C   UNL     1      34.666 -17.734 -21.717  0.00  0.00    +0.093 C 
ATOM      5  C   UNL     1      34.038 -16.705 -21.017  0.00  0.00    +0.017 C 
ATOM      6  C   UNL     1      34.788 -17.661 -23.105  0.00  0.00    +0.017 C 
ATOM      7  C   UNL     1      32.862 -14.509 -20.937  0.00  0.00    +0.034 C 
ATOM      8  C   UNL     1      34.420 -16.498 -25.278  0.00  0.00    +0.034 C 
ENDROOT
BRANCH   4   9
ATOM      9  N   UNL     1      35.170 -18.828 -21.036  0.00  0.00    -0.093 N 
ATOM     10  N   UNL     1      34.402 -19.875 -20.693  0.00  0.00    -0.106 NA
ATOM     11  N   UNL     1      36.462 -18.911 -20.676  0.00  0.00    -0.014 NA
ATOM     12  N   UNL     1      36.565 -20.079 -20.055  0.00  0.00    -0.090 NA
ATOM     13  C   UNL     1      35.318 -20.631 -20.082  0.00  0.00    +0.052 C 
ATOM     14  C   UNL     1      35.008 -21.936 -19.494  0.00  0.00    +0.118 C 
ENDBRANCH   4   9
BRANCH   1  15
ATOM     15  O   UNL     1      33.156 -14.451 -23.764  0.00  0.00    -0.476 OA
BRANCH  15  16
ATOM     16  C   UNL     1      34.075 -13.412 -24.090  0.00  0.00    +0.206 C 
BRANCH  16  17
ATOM     17  C   UNL     1      33.419 -12.068 -23.808  0.00  0.00    +0.055 C 
BRANCH  17  18
ATOM     18  C   UNL     1      34.138 -10.928 -24.530  0.00  0.00    +0.071 C 
BRANCH  18  21
ATOM     19  O   UNL     1      35.019  -8.814 -23.799  0.00  0.00    -0.358 OA
ATOM     20  N   UNL     1      34.675  -7.655 -23.113  0.00  0.00    -0.082 NA
ATOM     21  C   UNL     1      33.943  -9.612 -23.820  0.00  0.00    +0.154 C 
ATOM     22  C   UNL     1      32.890  -9.068 -23.190  0.00  0.00    +0.054 C 
ATOM     23  C   UNL     1      33.399  -7.830 -22.759  0.00  0.00    +0.101 C 
ATOM     24  C   UNL     1      32.697  -6.780 -22.003  0.00  0.00    +0.056 C 
ENDBRANCH  18  21
ENDBRANCH  17  18
ENDBRANCH  16  17
ENDBRANCH  15  16
ENDBRANCH   1  15
TORSDOF 6
ENDMDL
MODEL 7
REMARK VINA RESULT:      -9.7      4.034      7.305
REMARK  Name = 448137
REMARK  6 active torsions:
REMARK  status: ('A' for Active; 'I' for Inactive)
REMARK    1  A    between atoms: C_1  and  O_15
REMARK    2  A    between atoms: C_4  and  N_9
REMARK    3  A    between atoms: O_15  and  C_16
REMARK    4  A    between atoms: C_16  and  C_17
REMARK    5  A    between atoms: C_17  and  C_18
REMARK    6  A    between atoms: C_18  and  C_21
REMARK                            x       y       z     vdW  Elec       q    Type
REMARK                         _______ _______ _______ _____ _____    ______ ____
ROOT
ATOM      1  C   UNL     1      34.734 -22.075 -18.669  0.00  0.00    +0.131 C 
ATOM      2  C   UNL     1      34.025 -22.684 -17.632  0.00  0.00    +0.013 C 
ATOM      3  C   UNL     1      36.095 -21.808 -18.518  0.00  0.00    +0.013 C 
ATOM      4  C   UNL     1      36.035 -22.756 -16.296  0.00  0.00    +0.093 C 
ATOM      5  C   UNL     1      34.675 -23.024 -16.447  0.00  0.00    +0.017 C 
ATOM      6  C   UNL     1      36.746 -22.148 -17.332  0.00  0.00    +0.017 C 
ATOM      7  C   UNL     1      32.567 -22.977 -17.775  0.00  0.00    +0.034 C 
ATOM      8  C   UNL     1      36.872 -21.159 -19.615  0.00  0.00    +0.034 C 
ENDROOT
BRANCH   4   9
ATOM      9  N   UNL     1      36.681 -23.092 -15.120  0.00  0.00    -0.093 N 
ATOM     10  N   UNL     1      36.077 -23.012 -13.923  0.00  0.00    -0.106 NA
ATOM     11  N   UNL     1      37.954 -23.521 -15.102  0.00  0.00    -0.014 NA
ATOM     12  N   UNL     1      38.219 -23.740 -13.820  0.00  0.00    -0.090 NA
ATOM     13  C   UNL     1      37.078 -23.426 -13.142  0.00  0.00    +0.052 C 
ATOM     14  C   UNL     1      36.958 -23.533 -11.686  0.00  0.00    +0.118 C 
ENDBRANCH   4   9
BRANCH   1  15
ATOM     15  O   UNL     1      34.099 -21.744 -19.829  0.00  0.00    -0.476 OA
BRANCH  15  16
ATOM     16  C   UNL     1      33.354 -20.528 -19.834  0.00  0.00    +0.206 C 
BRANCH  16  17
ATOM     17  C   UNL     1      33.667 -19.766 -21.113  0.00  0.00    +0.055 C 
BRANCH  17  18
ATOM     18  C   UNL     1      34.996 -19.015 -21.009  0.00  0.00    +0.071 C 
BRANCH  18  21
ATOM     19  O   UNL     1      35.106 -16.724 -20.289  0.00  0.00    -0.358 OA
ATOM     20  N   UNL     1      34.900 -15.421 -20.727  0.00  0.00    -0.082 NA
ATOM     21  C   UNL     1      34.826 -17.547 -21.310  0.00  0.00    +0.154 C 
ATOM     22  C   UNL     1      34.444 -16.884 -22.412  0.00  0.00    +0.054 C 
ATOM     23  C   UNL     1      34.506 -15.542 -21.997  0.00  0.00    +0.101 C 
ATOM     24  C   UNL     1      34.195 -14.339 -22.786  0.00  0.00    +0.056 C 
ENDBRANCH  18  21
ENDBRANCH  17  18
ENDBRANCH  16  17
ENDBRANCH  15  16
ENDBRANCH   1  15
TORSDOF 6
ENDMDL
MODEL 8
REMARK VINA RESULT:      -9.7      2.008      8.978
REMARK  Name = 448137
REMARK  6 active torsions:
REMARK  status: ('A' for Active; 'I' for Inactive)
REMARK    1  A    between atoms: C_1  and  O_15
REMARK    2  A    between atoms: C_4  and  N_9
REMARK    3  A    between atoms: O_15  and  C_16
REMARK    4  A    between atoms: C_16  and  C_17
REMARK    5  A    between atoms: C_17  and  C_18
REMARK    6  A    between atoms: C_18  and  C_21
REMARK                            x       y       z     vdW  Elec       q    Type
REMARK                         _______ _______ _______ _____ _____    ______ ____
ROOT
ATOM      1  C   UNL     1      33.726 -15.276 -23.782  0.00  0.00    +0.131 C 
ATOM      2  C   UNL     1      33.944 -14.618 -22.571  0.00  0.00    +0.013 C 
ATOM      3  C   UNL     1      33.431 -14.542 -24.931  0.00  0.00    +0.013 C 
ATOM      4  C   UNL     1      33.571 -12.493 -23.657  0.00  0.00    +0.093 C 
ATOM      5  C   UNL     1      33.866 -13.227 -22.508  0.00  0.00    +0.017 C 
ATOM      6  C   UNL     1      33.353 -13.150 -24.868  0.00  0.00    +0.017 C 
ATOM      7  C   UNL     1      34.260 -15.387 -21.331  0.00  0.00    +0.034 C 
ATOM      8  C   UNL     1      33.195 -15.227 -26.236  0.00  0.00    +0.034 C 
ENDROOT
BRANCH   4   9
ATOM      9  N   UNL     1      33.492 -11.113 -23.595  0.00  0.00    -0.093 N 
ATOM     10  N   UNL     1      34.474 -10.318 -24.053  0.00  0.00    -0.106 NA
ATOM     11  N   UNL     1      32.428 -10.481 -23.074  0.00  0.00    -0.014 NA
ATOM     12  N   UNL     1      32.711  -9.190 -23.188  0.00  0.00    -0.090 NA
ATOM     13  C   UNL     1      33.940  -9.126 -23.776  0.00  0.00    +0.052 C 
ATOM     14  C   UNL     1      34.617  -7.863 -24.079  0.00  0.00    +0.118 C 
ENDBRANCH   4   9
BRANCH   1  15
ATOM     15  O   UNL     1      33.803 -16.636 -23.844  0.00  0.00    -0.476 OA
BRANCH  15  16
ATOM     16  C   UNL     1      35.100 -17.204 -24.010  0.00  0.00    +0.206 C 
BRANCH  16  17
ATOM     17  C   UNL     1      35.085 -18.628 -23.474  0.00  0.00    +0.055 C 
BRANCH  17  18
ATOM     18  C   UNL     1      35.601 -18.692 -22.036  0.00  0.00    +0.071 C 
BRANCH  18  21
ATOM     19  O   UNL     1      33.431 -19.408 -21.290  0.00  0.00    -0.358 OA
ATOM     20  N   UNL     1      32.800 -20.318 -20.449  0.00  0.00    -0.082 NA
ATOM     21  C   UNL     1      34.752 -19.603 -21.184  0.00  0.00    +0.154 C 
ATOM     22  C   UNL     1      35.058 -20.588 -20.325  0.00  0.00    +0.054 C 
ATOM     23  C   UNL     1      33.792 -21.012 -19.884  0.00  0.00    +0.101 C 
ATOM     24  C   UNL     1      33.483 -22.080 -18.920  0.00  0.00    +0.056 C 
ENDBRANCH  18  21
ENDBRANCH  17  18
ENDBRANCH  16  17
ENDBRANCH  15  16
ENDBRANCH   1  15
TORSDOF 6
ENDMDL
MODEL 9
REMARK VINA RESULT:      -9.7      4.746      7.953
REMARK  Name = 448137
REMARK  6 active torsions:
REMARK  status: ('A' for Active; 'I' for Inactive)
REMARK    1  A    between atoms: C_1  and  O_15
REMARK    2  A    between atoms: C_4  and  N_9
REMARK    3  A    between atoms: O_15  and  C_16
REMARK    4  A    between atoms: C_16  and  C_17
REMARK    5  A    between atoms: C_17  and  C_18
REMARK    6  A    between atoms: C_18  and  C_21
REMARK                            x       y       z     vdW  Elec       q    Type
REMARK                         _______ _______ _______ _____ _____    ______ ____
ROOT
ATOM      1  C   UNL     1      34.626 -22.284 -18.285  0.00  0.00    +0.131 C 
ATOM      2  C   UNL     1      35.966 -21.952 -18.088  0.00  0.00    +0.013 C 
ATOM      3  C   UNL     1      33.899 -22.891 -17.261  0.00  0.00    +0.013 C 
ATOM      4  C   UNL     1      35.855 -22.833 -15.842  0.00  0.00    +0.093 C 
ATOM      5  C   UNL     1      36.581 -22.227 -16.866  0.00  0.00    +0.017 C 
ATOM      6  C   UNL     1      34.514 -23.166 -16.039  0.00  0.00    +0.017 C 
ATOM      7  C   UNL     1      36.760 -21.302 -19.173  0.00  0.00    +0.034 C 
ATOM      8  C   UNL     1      32.464 -23.253 -17.452  0.00  0.00    +0.034 C 
ENDROOT
BRANCH   4   9
ATOM      9  N   UNL     1      36.464 -23.107 -14.630  0.00  0.00    -0.093 N 
ATOM     10  N   UNL     1      35.759 -23.332 -13.508  0.00  0.00    -0.106 NA
ATOM     11  N   UNL     1      37.800 -23.167 -14.500  0.00  0.00    -0.014 NA
ATOM     12  N   UNL     1      38.003 -23.446 -13.219  0.00  0.00    -0.090 NA
ATOM     13  C   UNL     1      36.765 -23.538 -12.654  0.00  0.00    +0.052 C 
ATOM     14  C   UNL     1      36.553 -23.837 -11.236  0.00  0.00    +0.118 C 
ENDBRANCH   4   9
BRANCH   1  15
ATOM     15  O   UNL     1      34.024 -22.014 -19.479  0.00  0.00    -0.476 OA
BRANCH  15  16
ATOM     16  C   UNL     1      33.104 -20.926 -19.509  0.00  0.00    +0.206 C 
BRANCH  16  17
ATOM     17  C   UNL     1      33.205 -20.234 -20.861  0.00  0.00    +0.055 C 
BRANCH  17  18
ATOM     18  C   UNL     1      34.640 -19.803 -21.165  0.00  0.00    +0.071 C 
BRANCH  18  21
ATOM     19  O   UNL     1      34.690 -17.474 -21.760  0.00  0.00    -0.358 OA
ATOM     20  N   UNL     1      34.728 -16.617 -22.854  0.00  0.00    -0.082 NA
ATOM     21  C   UNL     1      34.682 -18.731 -22.226  0.00  0.00    +0.154 C 
ATOM     22  C   UNL     1      34.711 -18.780 -23.567  0.00  0.00    +0.054 C 
ATOM     23  C   UNL     1      34.741 -17.420 -23.921  0.00  0.00    +0.101 C 
ATOM     24  C   UNL     1      34.781 -16.841 -25.274  0.00  0.00    +0.056 C 
ENDBRANCH  18  21
ENDBRANCH  17  18
ENDBRANCH  16  17
ENDBRANCH  15  16
ENDBRANCH   1  15
TORSDOF 6
ENDMDL
