MODEL 1
REMARK VINA RESULT:      -6.9      0.000      0.000
REMARK  Name = 10219702
REMARK  0 active torsions:
REMARK  status: ('A' for Active; 'I' for Inactive)
REMARK                            x       y       z     vdW  Elec       q    Type
REMARK                         _______ _______ _______ _____ _____    ______ ____
ROOT
ATOM      1  S   UNL     1      34.950 -19.398 -22.151  0.00  0.00    -0.134 S 
ATOM      2  O   UNL     1      36.877 -21.779 -18.766  0.00  0.00    -0.210 OA
ATOM      3  N   UNL     1      32.908 -21.806 -18.973  0.00  0.00    -0.294 N 
ATOM      4  N   UNL     1      34.894 -22.651 -18.022  0.00  0.00    -0.322 NA
ATOM      5  C   UNL     1      33.577 -20.958 -19.824  0.00  0.00    +0.037 C 
ATOM      6  C   UNL     1      32.719 -20.102 -20.722  0.00  0.00    +0.053 C 
ATOM      7  C   UNL     1      34.926 -20.919 -19.817  0.00  0.00    +0.093 C 
ATOM      8  C   UNL     1      33.418 -18.891 -21.332  0.00  0.00    +0.064 C 
ATOM      9  C   UNL     1      35.799 -20.071 -20.699  0.00  0.00    +0.098 C 
ATOM     10  C   UNL     1      35.650 -21.816 -18.828  0.00  0.00    +0.203 C 
ATOM     11  C   UNL     1      33.596 -22.620 -18.113  0.00  0.00    +0.174 C 
ATOM     12  C   UNL     1      32.793 -23.533 -17.226  0.00  0.00    +0.085 C 
ATOM     13  H   UNL     1      31.924 -21.829 -18.984  0.00  0.00    +0.154 HD
ENDROOT
TORSDOF 0
ENDMDL
MODEL 2
REMARK VINA RESULT:      -6.8      6.774      8.379
REMARK  Name = 10219702
REMARK  0 active torsions:
REMARK  status: ('A' for Active; 'I' for Inactive)
REMARK                            x       y       z     vdW  Elec       q    Type
REMARK                         _______ _______ _______ _____ _____    ______ ____
ROOT
ATOM      1  S   UNL     1      34.784 -16.433 -21.209  0.00  0.00    -0.134 S 
ATOM      2  O   UNL     1      34.683 -17.541 -25.637  0.00  0.00    -0.210 OA
ATOM      3  N   UNL     1      33.058 -14.066 -24.598  0.00  0.00    -0.294 N 
ATOM      4  N   UNL     1      33.778 -15.540 -26.292  0.00  0.00    -0.322 NA
ATOM      5  C   UNL     1      33.459 -14.902 -23.583  0.00  0.00    +0.037 C 
ATOM      6  C   UNL     1      33.202 -14.415 -22.178  0.00  0.00    +0.053 C 
ATOM      7  C   UNL     1      34.037 -16.086 -23.871  0.00  0.00    +0.093 C 
ATOM      8  C   UNL     1      33.244 -15.489 -21.097  0.00  0.00    +0.064 C 
ATOM      9  C   UNL     1      34.552 -17.093 -22.881  0.00  0.00    +0.098 C 
ATOM     10  C   UNL     1      34.195 -16.453 -25.337  0.00  0.00    +0.203 C 
ATOM     11  C   UNL     1      33.240 -14.420 -25.909  0.00  0.00    +0.174 C 
ATOM     12  C   UNL     1      32.791 -13.443 -26.962  0.00  0.00    +0.085 C 
ATOM     13  H   UNL     1      32.636 -13.204 -24.380  0.00  0.00    +0.154 HD
ENDROOT
TORSDOF 0
ENDMDL
MODEL 3
REMARK VINA RESULT:      -6.7      5.559      7.169
REMARK  Name = 10219702
REMARK  0 active torsions:
REMARK  status: ('A' for Active; 'I' for Inactive)
REMARK                            x       y       z     vdW  Elec       q    Type
REMARK                         _______ _______ _______ _____ _____    ______ ____
ROOT
ATOM      1  S   UNL     1      34.659 -19.337 -22.145  0.00  0.00    -0.134 S 
ATOM      2  O   UNL     1      34.859 -15.225 -20.171  0.00  0.00    -0.210 OA
ATOM      3  N   UNL     1      34.187 -15.328 -24.087  0.00  0.00    -0.294 N 
ATOM      4  N   UNL     1      34.293 -14.092 -22.081  0.00  0.00    -0.322 NA
ATOM      5  C   UNL     1      34.497 -16.516 -23.470  0.00  0.00    +0.037 C 
ATOM      6  C   UNL     1      34.580 -17.729 -24.364  0.00  0.00    +0.053 C 
ATOM      7  C   UNL     1      34.714 -16.551 -22.139  0.00  0.00    +0.093 C 
ATOM      8  C   UNL     1      35.325 -18.923 -23.776  0.00  0.00    +0.064 C 
ATOM      9  C   UNL     1      35.033 -17.768 -21.317  0.00  0.00    +0.098 C 
ATOM     10  C   UNL     1      34.629 -15.239 -21.379  0.00  0.00    +0.203 C 
ATOM     11  C   UNL     1      34.093 -14.168 -23.364  0.00  0.00    +0.174 C 
ATOM     12  C   UNL     1      33.733 -12.911 -24.109  0.00  0.00    +0.085 C 
ATOM     13  H   UNL     1      34.030 -15.310 -25.059  0.00  0.00    +0.154 HD
ENDROOT
TORSDOF 0
ENDMDL
MODEL 4
REMARK VINA RESULT:      -6.7      6.407      7.271
REMARK  Name = 10219702
REMARK  0 active torsions:
REMARK  status: ('A' for Active; 'I' for Inactive)
REMARK                            x       y       z     vdW  Elec       q    Type
REMARK                         _______ _______ _______ _____ _____    ______ ____
ROOT
ATOM      1  S   UNL     1      33.036 -13.786 -22.155  0.00  0.00    -0.134 S 
ATOM      2  O   UNL     1      33.752 -15.517 -26.318  0.00  0.00    -0.210 OA
ATOM      3  N   UNL     1      34.632 -17.836 -23.214  0.00  0.00    -0.294 N 
ATOM      4  N   UNL     1      34.348 -17.588 -25.541  0.00  0.00    -0.322 NA
ATOM      5  C   UNL     1      34.290 -16.531 -22.948  0.00  0.00    +0.037 C 
ATOM      6  C   UNL     1      34.322 -16.116 -21.498  0.00  0.00    +0.053 C 
ATOM      7  C   UNL     1      33.960 -15.700 -23.958  0.00  0.00    +0.093 C 
ATOM      8  C   UNL     1      34.368 -14.612 -21.250  0.00  0.00    +0.064 C 
ATOM      9  C   UNL     1      33.539 -14.262 -23.830  0.00  0.00    +0.098 C 
ATOM     10  C   UNL     1      34.009 -16.255 -25.370  0.00  0.00    +0.203 C 
ATOM     11  C   UNL     1      34.641 -18.309 -24.499  0.00  0.00    +0.174 C 
ATOM     12  C   UNL     1      35.008 -19.754 -24.706  0.00  0.00    +0.085 C 
ATOM     13  H   UNL     1      34.872 -18.437 -22.471  0.00  0.00    +0.154 HD
ENDROOT
TORSDOF 0
ENDMDL
MODEL 5
REMARK VINA RESULT:      -6.7      6.468      8.588
REMARK  Name = 10219702
REMARK  0 active torsions:
REMARK  status: ('A' for Active; 'I' for Inactive)
REMARK                            x       y       z     vdW  Elec       q    Type
REMARK                         _______ _______ _______ _____ _____    ______ ____
ROOT
ATOM      1  S   UNL     1      35.319 -18.288 -23.623  0.00  0.00    -0.134 S 
ATOM      2  O   UNL     1      33.235 -15.581 -26.651  0.00  0.00    -0.210 OA
ATOM      3  N   UNL     1      34.214 -13.972 -23.152  0.00  0.00    -0.294 N 
ATOM      4  N   UNL     1      33.427 -13.700 -25.358  0.00  0.00    -0.322 NA
ATOM      5  C   UNL     1      34.385 -15.329 -23.291  0.00  0.00    +0.037 C 
ATOM      6  C   UNL     1      34.897 -16.064 -22.077  0.00  0.00    +0.053 C 
ATOM      7  C   UNL     1      34.091 -15.931 -24.462  0.00  0.00    +0.093 C 
ATOM      8  C   UNL     1      34.681 -17.574 -22.087  0.00  0.00    +0.064 C 
ATOM      9  C   UNL     1      34.249 -17.392 -24.779  0.00  0.00    +0.098 C 
ATOM     10  C   UNL     1      33.550 -15.061 -25.583  0.00  0.00    +0.203 C 
ATOM     11  C   UNL     1      33.747 -13.216 -24.194  0.00  0.00    +0.174 C 
ATOM     12  C   UNL     1      33.604 -11.734 -23.968  0.00  0.00    +0.085 C 
ATOM     13  H   UNL     1      34.430 -13.540 -22.294  0.00  0.00    +0.154 HD
ENDROOT
TORSDOF 0
ENDMDL
MODEL 6
REMARK VINA RESULT:      -6.7      5.228      6.632
REMARK  Name = 10219702
REMARK  0 active torsions:
REMARK  status: ('A' for Active; 'I' for Inactive)
REMARK                            x       y       z     vdW  Elec       q    Type
REMARK                         _______ _______ _______ _____ _____    ______ ____
ROOT
ATOM      1  S   UNL     1      32.805 -14.025 -24.609  0.00  0.00    -0.134 S 
ATOM      2  O   UNL     1      34.646 -18.084 -25.598  0.00  0.00    -0.210 OA
ATOM      3  N   UNL     1      35.203 -16.687 -21.920  0.00  0.00    -0.294 N 
ATOM      4  N   UNL     1      35.381 -18.462 -23.461  0.00  0.00    -0.322 NA
ATOM      5  C   UNL     1      34.613 -15.843 -22.831  0.00  0.00    +0.037 C 
ATOM      6  C   UNL     1      34.272 -14.460 -22.335  0.00  0.00    +0.053 C 
ATOM      7  C   UNL     1      34.377 -16.267 -24.090  0.00  0.00    +0.093 C 
ATOM      8  C   UNL     1      34.028 -13.418 -23.422  0.00  0.00    +0.064 C 
ATOM      9  C   UNL     1      33.718 -15.479 -25.189  0.00  0.00    +0.098 C 
ATOM     10  C   UNL     1      34.810 -17.677 -24.450  0.00  0.00    +0.203 C 
ATOM     11  C   UNL     1      35.557 -17.962 -22.274  0.00  0.00    +0.174 C 
ATOM     12  C   UNL     1      36.182 -18.829 -21.215  0.00  0.00    +0.085 C 
ATOM     13  H   UNL     1      35.372 -16.370 -21.003  0.00  0.00    +0.154 HD
ENDROOT
TORSDOF 0
ENDMDL
MODEL 7
REMARK VINA RESULT:      -6.6      4.042      5.329
REMARK  Name = 10219702
REMARK  0 active torsions:
REMARK  status: ('A' for Active; 'I' for Inactive)
REMARK                            x       y       z     vdW  Elec       q    Type
REMARK                         _______ _______ _______ _____ _____    ______ ____
ROOT
ATOM      1  S   UNL     1      33.440 -14.559 -23.311  0.00  0.00    -0.134 S 
ATOM      2  O   UNL     1      34.726 -18.688 -24.774  0.00  0.00    -0.210 OA
ATOM      3  N   UNL     1      35.014 -17.974 -20.876  0.00  0.00    -0.294 N 
ATOM      4  N   UNL     1      35.108 -19.504 -22.668  0.00  0.00    -0.322 NA
ATOM      5  C   UNL     1      34.689 -16.913 -21.688  0.00  0.00    +0.037 C 
ATOM      6  C   UNL     1      34.511 -15.580 -21.003  0.00  0.00    +0.053 C 
ATOM      7  C   UNL     1      34.555 -17.096 -23.018  0.00  0.00    +0.093 C 
ATOM      8  C   UNL     1      34.579 -14.362 -21.919  0.00  0.00    +0.064 C 
ATOM      9  C   UNL     1      34.178 -16.050 -24.029  0.00  0.00    +0.098 C 
ATOM     10  C   UNL     1      34.801 -18.492 -23.563  0.00  0.00    +0.203 C 
ATOM     11  C   UNL     1      35.204 -19.225 -21.401  0.00  0.00    +0.174 C 
ATOM     12  C   UNL     1      35.541 -20.337 -20.445  0.00  0.00    +0.085 C 
ATOM     13  H   UNL     1      35.111 -17.832 -19.906  0.00  0.00    +0.154 HD
ENDROOT
TORSDOF 0
ENDMDL
MODEL 8
REMARK VINA RESULT:      -6.5      5.937      7.150
REMARK  Name = 10219702
REMARK  0 active torsions:
REMARK  status: ('A' for Active; 'I' for Inactive)
REMARK                            x       y       z     vdW  Elec       q    Type
REMARK                         _______ _______ _______ _____ _____    ______ ____
ROOT
ATOM      1  S   UNL     1      34.997 -18.185 -24.024  0.00  0.00    -0.134 S 
ATOM      2  O   UNL     1      34.968 -15.937 -20.050  0.00  0.00    -0.210 OA
ATOM      3  N   UNL     1      32.930 -14.330 -23.060  0.00  0.00    -0.294 N 
ATOM      4  N   UNL     1      33.489 -14.341 -20.769  0.00  0.00    -0.322 NA
ATOM      5  C   UNL     1      33.711 -15.425 -23.342  0.00  0.00    +0.037 C 
ATOM      6  C   UNL     1      33.732 -15.875 -24.782  0.00  0.00    +0.053 C 
ATOM      7  C   UNL     1      34.410 -16.029 -22.359  0.00  0.00    +0.093 C 
ATOM      8  C   UNL     1      34.894 -16.785 -25.165  0.00  0.00    +0.064 C 
ATOM      9  C   UNL     1      35.282 -17.245 -22.500  0.00  0.00    +0.098 C 
ATOM     10  C   UNL     1      34.315 -15.437 -20.964  0.00  0.00    +0.203 C 
ATOM     11  C   UNL     1      32.849 -13.839 -21.783  0.00  0.00    +0.174 C 
ATOM     12  C   UNL     1      31.959 -12.647 -21.551  0.00  0.00    +0.085 C 
ATOM     13  H   UNL     1      32.423 -13.894 -23.783  0.00  0.00    +0.154 HD
ENDROOT
TORSDOF 0
ENDMDL
MODEL 9
REMARK VINA RESULT:      -6.5      5.031      6.287
REMARK  Name = 10219702
REMARK  0 active torsions:
REMARK  status: ('A' for Active; 'I' for Inactive)
REMARK                            x       y       z     vdW  Elec       q    Type
REMARK                         _______ _______ _______ _____ _____    ______ ____
ROOT
ATOM      1  S   UNL     1      33.497 -14.083 -24.756  0.00  0.00    -0.134 S 
ATOM      2  O   UNL     1      33.682 -15.336 -20.370  0.00  0.00    -0.210 OA
ATOM      3  N   UNL     1      35.556 -17.652 -22.999  0.00  0.00    -0.294 N 
ATOM      4  N   UNL     1      35.105 -17.090 -20.754  0.00  0.00    -0.322 NA
ATOM      5  C   UNL     1      34.777 -16.635 -23.499  0.00  0.00    +0.037 C 
ATOM      6  C   UNL     1      34.695 -16.535 -25.002  0.00  0.00    +0.053 C 
ATOM      7  C   UNL     1      34.133 -15.801 -22.656  0.00  0.00    +0.093 C 
ATOM      8  C   UNL     1      33.529 -15.713 -25.539  0.00  0.00    +0.064 C 
ATOM      9  C   UNL     1      33.271 -14.632 -23.043  0.00  0.00    +0.098 C 
ATOM     10  C   UNL     1      34.285 -16.052 -21.166  0.00  0.00    +0.203 C 
ATOM     11  C   UNL     1      35.690 -17.832 -21.648  0.00  0.00    +0.174 C 
ATOM     12  C   UNL     1      36.574 -18.957 -21.180  0.00  0.00    +0.085 C 
ATOM     13  H   UNL     1      36.023 -18.257 -23.620  0.00  0.00    +0.154 HD
ENDROOT
TORSDOF 0
ENDMDL
