MODEL 1
REMARK VINA RESULT:      -9.1      0.000      0.000
REMARK  Name = 2749
REMARK  2 active torsions:
REMARK  status: ('A' for Active; 'I' for Inactive)
REMARK    1  A    between atoms: N_2  and  O_15
REMARK    2  A    between atoms: C_3  and  C_9
REMARK                            x       y       z     vdW  Elec       q    Type
REMARK                         _______ _______ _______ _____ _____    ______ ____
ROOT
ATOM      1  O   UNL     1      34.927 -16.966 -25.354  0.00  0.00    -0.267 OA
ATOM      2  N   UNL     1      34.764 -18.253 -23.432  0.00  0.00    -0.150 N 
ATOM      3  C   UNL     1      34.676 -18.386 -22.066  0.00  0.00    +0.058 C 
ATOM      4  C   UNL     1      34.591 -17.268 -21.323  0.00  0.00    +0.009 C 
ATOM      5  C   UNL     1      34.601 -15.959 -21.954  0.00  0.00    -0.016 C 
ATOM      6  C   UNL     1      34.820 -17.072 -24.135  0.00  0.00    +0.274 C 
ATOM      7  C   UNL     1      34.710 -15.846 -23.288  0.00  0.00    +0.056 C 
ATOM      8  C   UNL     1      34.488 -14.771 -21.049  0.00  0.00    +0.031 C 
ENDROOT
BRANCH   3   9
ATOM      9  C   UNL     1      34.660 -19.759 -21.462  0.00  0.00    +0.039 C 
ATOM     10  C   UNL     1      33.422 -19.951 -20.575  0.00  0.00    +0.006 C 
ATOM     11  C   UNL     1      35.947 -20.020 -20.667  0.00  0.00    +0.006 C 
ATOM     12  C   UNL     1      33.411 -21.326 -19.912  0.00  0.00    +0.000 C 
ATOM     13  C   UNL     1      35.930 -21.396 -20.003  0.00  0.00    +0.000 C 
ATOM     14  C   UNL     1      34.694 -21.585 -19.129  0.00  0.00    +0.000 C 
ENDBRANCH   3   9
BRANCH   2  15
ATOM     15  O   UNL     1      34.799 -19.439 -24.184  0.00  0.00    -0.288 OA
ATOM     16  H   UNL     1      35.604 -19.723 -24.571  0.00  0.00    +0.242 HD
ENDBRANCH   2  15
TORSDOF 2
ENDMDL
MODEL 2
REMARK VINA RESULT:      -8.6      1.838      2.853
REMARK  Name = 2749
REMARK  2 active torsions:
REMARK  status: ('A' for Active; 'I' for Inactive)
REMARK    1  A    between atoms: N_2  and  O_15
REMARK    2  A    between atoms: C_3  and  C_9
REMARK                            x       y       z     vdW  Elec       q    Type
REMARK                         _______ _______ _______ _____ _____    ______ ____
ROOT
ATOM      1  O   UNL     1      34.966 -14.917 -22.318  0.00  0.00    -0.267 OA
ATOM      2  N   UNL     1      34.889 -17.109 -21.567  0.00  0.00    -0.150 N 
ATOM      3  C   UNL     1      34.748 -18.460 -21.783  0.00  0.00    +0.058 C 
ATOM      4  C   UNL     1      34.618 -18.891 -23.050  0.00  0.00    +0.009 C 
ATOM      5  C   UNL     1      34.619 -17.948 -24.155  0.00  0.00    -0.016 C 
ATOM      6  C   UNL     1      34.866 -16.123 -22.526  0.00  0.00    +0.274 C 
ATOM      7  C   UNL     1      34.735 -16.629 -23.926  0.00  0.00    +0.056 C 
ATOM      8  C   UNL     1      34.483 -18.519 -25.533  0.00  0.00    +0.031 C 
ENDROOT
BRANCH   3   9
ATOM      9  C   UNL     1      34.762 -19.395 -20.610  0.00  0.00    +0.039 C 
ATOM     10  C   UNL     1      36.039 -20.247 -20.606  0.00  0.00    +0.006 C 
ATOM     11  C   UNL     1      33.512 -20.287 -20.608  0.00  0.00    +0.006 C 
ATOM     12  C   UNL     1      36.051 -21.241 -19.447  0.00  0.00    +0.000 C 
ATOM     13  C   UNL     1      33.530 -21.281 -19.449  0.00  0.00    +0.000 C 
ATOM     14  C   UNL     1      34.804 -22.119 -19.445  0.00  0.00    +0.000 C 
ENDBRANCH   3   9
BRANCH   2  15
ATOM     15  O   UNL     1      35.074 -16.695 -20.238  0.00  0.00    -0.288 OA
ATOM     16  H   UNL     1      34.339 -16.641 -19.658  0.00  0.00    +0.242 HD
ENDBRANCH   2  15
TORSDOF 2
ENDMDL
MODEL 3
REMARK VINA RESULT:      -8.0      2.379      5.471
REMARK  Name = 2749
REMARK  2 active torsions:
REMARK  status: ('A' for Active; 'I' for Inactive)
REMARK    1  A    between atoms: N_2  and  O_15
REMARK    2  A    between atoms: C_3  and  C_9
REMARK                            x       y       z     vdW  Elec       q    Type
REMARK                         _______ _______ _______ _____ _____    ______ ____
ROOT
ATOM      1  O   UNL     1      32.555 -22.157 -18.877  0.00  0.00    -0.267 OA
ATOM      2  N   UNL     1      33.443 -20.585 -20.332  0.00  0.00    -0.150 N 
ATOM      3  C   UNL     1      34.503 -19.890 -20.866  0.00  0.00    +0.058 C 
ATOM      4  C   UNL     1      35.743 -20.205 -20.452  0.00  0.00    +0.009 C 
ATOM      5  C   UNL     1      35.948 -21.248 -19.461  0.00  0.00    -0.016 C 
ATOM      6  C   UNL     1      33.512 -21.562 -19.365  0.00  0.00    +0.274 C 
ATOM      7  C   UNL     1      34.901 -21.903 -18.933  0.00  0.00    +0.056 C 
ATOM      8  C   UNL     1      37.364 -21.541 -19.070  0.00  0.00    +0.031 C 
ENDROOT
BRANCH   3   9
ATOM      9  C   UNL     1      34.241 -18.828 -21.892  0.00  0.00    +0.039 C 
ATOM     10  C   UNL     1      34.953 -19.156 -23.212  0.00  0.00    +0.006 C 
ATOM     11  C   UNL     1      34.668 -17.448 -21.371  0.00  0.00    +0.006 C 
ATOM     12  C   UNL     1      34.738 -18.064 -24.256  0.00  0.00    +0.000 C 
ATOM     13  C   UNL     1      34.454 -16.358 -22.420  0.00  0.00    +0.000 C 
ATOM     14  C   UNL     1      35.156 -16.694 -23.732  0.00  0.00    +0.000 C 
ENDBRANCH   3   9
BRANCH   2  15
ATOM     15  O   UNL     1      32.166 -20.269 -20.822  0.00  0.00    -0.288 OA
ATOM     16  H   UNL     1      31.482 -20.030 -20.226  0.00  0.00    +0.242 HD
ENDBRANCH   2  15
TORSDOF 2
ENDMDL
MODEL 4
REMARK VINA RESULT:      -7.8      0.985      1.793
REMARK  Name = 2749
REMARK  2 active torsions:
REMARK  status: ('A' for Active; 'I' for Inactive)
REMARK    1  A    between atoms: N_2  and  O_15
REMARK    2  A    between atoms: C_3  and  C_9
REMARK                            x       y       z     vdW  Elec       q    Type
REMARK                         _______ _______ _______ _____ _____    ______ ____
ROOT
ATOM      1  O   UNL     1      34.634 -17.441 -25.882  0.00  0.00    -0.267 OA
ATOM      2  N   UNL     1      34.767 -17.831 -23.600  0.00  0.00    -0.150 N 
ATOM      3  C   UNL     1      34.743 -17.401 -22.293  0.00  0.00    +0.058 C 
ATOM      4  C   UNL     1      34.472 -16.105 -22.055  0.00  0.00    +0.009 C 
ATOM      5  C   UNL     1      34.221 -15.189 -23.154  0.00  0.00    -0.016 C 
ATOM      6  C   UNL     1      34.583 -17.050 -24.718  0.00  0.00    +0.274 C 
ATOM      7  C   UNL     1      34.270 -15.620 -24.426  0.00  0.00    +0.056 C 
ATOM      8  C   UNL     1      33.913 -13.768 -22.794  0.00  0.00    +0.031 C 
ENDROOT
BRANCH   3   9
ATOM      9  C   UNL     1      35.000 -18.387 -21.193  0.00  0.00    +0.039 C 
ATOM     10  C   UNL     1      36.434 -18.930 -21.270  0.00  0.00    +0.006 C 
ATOM     11  C   UNL     1      33.980 -19.533 -21.237  0.00  0.00    +0.006 C 
ATOM     12  C   UNL     1      36.702 -19.972 -20.187  0.00  0.00    +0.000 C 
ATOM     13  C   UNL     1      34.253 -20.574 -20.153  0.00  0.00    +0.000 C 
ATOM     14  C   UNL     1      35.681 -21.105 -20.230  0.00  0.00    +0.000 C 
ENDBRANCH   3   9
BRANCH   2  15
ATOM     15  O   UNL     1      35.003 -19.198 -23.813  0.00  0.00    -0.288 OA
ATOM     16  H   UNL     1      34.338 -19.733 -24.201  0.00  0.00    +0.242 HD
ENDBRANCH   2  15
TORSDOF 2
ENDMDL
MODEL 5
REMARK VINA RESULT:      -7.8      3.562      5.294
REMARK  Name = 2749
REMARK  2 active torsions:
REMARK  status: ('A' for Active; 'I' for Inactive)
REMARK    1  A    between atoms: N_2  and  O_15
REMARK    2  A    between atoms: C_3  and  C_9
REMARK                            x       y       z     vdW  Elec       q    Type
REMARK                         _______ _______ _______ _____ _____    ______ ____
ROOT
ATOM      1  O   UNL     1      33.304 -13.279 -27.754  0.00  0.00    -0.267 OA
ATOM      2  N   UNL     1      33.327 -13.982 -25.545  0.00  0.00    -0.150 N 
ATOM      3  C   UNL     1      33.535 -13.758 -24.203  0.00  0.00    +0.058 C 
ATOM      4  C   UNL     1      33.865 -12.515 -23.810  0.00  0.00    +0.009 C 
ATOM      5  C   UNL     1      34.004 -11.445 -24.783  0.00  0.00    -0.016 C 
ATOM      6  C   UNL     1      33.466 -13.059 -26.556  0.00  0.00    +0.274 C 
ATOM      7  C   UNL     1      33.819 -11.684 -26.092  0.00  0.00    +0.056 C 
ATOM      8  C   UNL     1      34.360 -10.090 -24.252  0.00  0.00    +0.031 C 
ENDROOT
BRANCH   3   9
ATOM      9  C   UNL     1      33.371 -14.893 -23.237  0.00  0.00    +0.039 C 
ATOM     10  C   UNL     1      32.721 -14.410 -21.933  0.00  0.00    +0.006 C 
ATOM     11  C   UNL     1      34.720 -15.570 -22.956  0.00  0.00    +0.006 C 
ATOM     12  C   UNL     1      32.588 -15.541 -20.915  0.00  0.00    +0.000 C 
ATOM     13  C   UNL     1      34.583 -16.699 -21.936  0.00  0.00    +0.000 C 
ATOM     14  C   UNL     1      33.929 -16.216 -20.645  0.00  0.00    +0.000 C 
ENDBRANCH   3   9
BRANCH   2  15
ATOM     15  O   UNL     1      32.934 -15.277 -25.918  0.00  0.00    -0.288 OA
ATOM     16  H   UNL     1      32.830 -15.941 -25.265  0.00  0.00    +0.242 HD
ENDBRANCH   2  15
TORSDOF 2
ENDMDL
MODEL 6
REMARK VINA RESULT:      -7.7      1.985      5.205
REMARK  Name = 2749
REMARK  2 active torsions:
REMARK  status: ('A' for Active; 'I' for Inactive)
REMARK    1  A    between atoms: N_2  and  O_15
REMARK    2  A    between atoms: C_3  and  C_9
REMARK                            x       y       z     vdW  Elec       q    Type
REMARK                         _______ _______ _______ _____ _____    ______ ____
ROOT
ATOM      1  O   UNL     1      37.436 -20.778 -19.989  0.00  0.00    -0.267 OA
ATOM      2  N   UNL     1      36.300 -19.244 -21.305  0.00  0.00    -0.150 N 
ATOM      3  C   UNL     1      35.139 -18.697 -21.801  0.00  0.00    +0.058 C 
ATOM      4  C   UNL     1      33.967 -19.171 -21.344  0.00  0.00    +0.009 C 
ATOM      5  C   UNL     1      33.935 -20.239 -20.359  0.00  0.00    -0.016 C 
ATOM      6  C   UNL     1      36.393 -20.279 -20.404  0.00  0.00    +0.274 C 
ATOM      7  C   UNL     1      35.078 -20.778 -19.901  0.00  0.00    +0.056 C 
ATOM      8  C   UNL     1      32.585 -20.694 -19.897  0.00  0.00    +0.031 C 
ENDROOT
BRANCH   3   9
ATOM      9  C   UNL     1      35.223 -17.590 -22.810  0.00  0.00    +0.039 C 
ATOM     10  C   UNL     1      34.463 -16.349 -22.324  0.00  0.00    +0.006 C 
ATOM     11  C   UNL     1      34.693 -18.054 -24.174  0.00  0.00    +0.006 C 
ATOM     12  C   UNL     1      34.495 -15.225 -23.357  0.00  0.00    +0.000 C 
ATOM     13  C   UNL     1      34.724 -16.927 -25.205  0.00  0.00    +0.000 C 
ATOM     14  C   UNL     1      33.975 -15.693 -24.713  0.00  0.00    +0.000 C 
ENDBRANCH   3   9
BRANCH   2  15
ATOM     15  O   UNL     1      37.507 -18.693 -21.764  0.00  0.00    -0.288 OA
ATOM     16  H   UNL     1      38.071 -19.197 -22.318  0.00  0.00    +0.242 HD
ENDBRANCH   2  15
TORSDOF 2
ENDMDL
MODEL 7
REMARK VINA RESULT:      -7.7      2.059      3.102
REMARK  Name = 2749
REMARK  2 active torsions:
REMARK  status: ('A' for Active; 'I' for Inactive)
REMARK    1  A    between atoms: N_2  and  O_15
REMARK    2  A    between atoms: C_3  and  C_9
REMARK                            x       y       z     vdW  Elec       q    Type
REMARK                         _______ _______ _______ _____ _____    ______ ____
ROOT
ATOM      1  O   UNL     1      33.478 -14.889 -27.029  0.00  0.00    -0.267 OA
ATOM      2  N   UNL     1      34.154 -15.997 -25.107  0.00  0.00    -0.150 N 
ATOM      3  C   UNL     1      34.250 -16.103 -23.739  0.00  0.00    +0.058 C 
ATOM      4  C   UNL     1      33.649 -15.164 -22.986  0.00  0.00    +0.009 C 
ATOM      5  C   UNL     1      32.927 -14.068 -23.608  0.00  0.00    -0.016 C 
ATOM      6  C   UNL     1      33.533 -14.987 -25.806  0.00  0.00    +0.274 C 
ATOM      7  C   UNL     1      32.862 -13.966 -24.946  0.00  0.00    +0.056 C 
ATOM      8  C   UNL     1      32.278 -13.078 -22.690  0.00  0.00    +0.031 C 
ENDROOT
BRANCH   3   9
ATOM      9  C   UNL     1      34.998 -17.258 -23.144  0.00  0.00    +0.039 C 
ATOM     10  C   UNL     1      34.308 -18.587 -23.481  0.00  0.00    +0.006 C 
ATOM     11  C   UNL     1      35.143 -17.090 -21.625  0.00  0.00    +0.006 C 
ATOM     12  C   UNL     1      35.027 -19.774 -22.844  0.00  0.00    +0.000 C 
ATOM     13  C   UNL     1      35.860 -18.280 -20.991  0.00  0.00    +0.000 C 
ATOM     14  C   UNL     1      35.176 -19.599 -21.337  0.00  0.00    +0.000 C 
ENDBRANCH   3   9
BRANCH   2  15
ATOM     15  O   UNL     1      34.748 -17.018 -25.865  0.00  0.00    -0.288 OA
ATOM     16  H   UNL     1      35.678 -17.134 -25.848  0.00  0.00    +0.242 HD
ENDBRANCH   2  15
TORSDOF 2
ENDMDL
MODEL 8
REMARK VINA RESULT:      -7.7      8.503     10.500
REMARK  Name = 2749
REMARK  2 active torsions:
REMARK  status: ('A' for Active; 'I' for Inactive)
REMARK    1  A    between atoms: N_2  and  O_15
REMARK    2  A    between atoms: C_3  and  C_9
REMARK                            x       y       z     vdW  Elec       q    Type
REMARK                         _______ _______ _______ _____ _____    ______ ____
ROOT
ATOM      1  O   UNL     1      38.525 -26.898 -14.628  0.00  0.00    -0.267 OA
ATOM      2  N   UNL     1      36.532 -25.723 -14.789  0.00  0.00    -0.150 N 
ATOM      3  C   UNL     1      35.680 -24.721 -14.387  0.00  0.00    +0.058 C 
ATOM      4  C   UNL     1      36.104 -23.869 -13.437  0.00  0.00    +0.009 C 
ATOM      5  C   UNL     1      37.424 -24.016 -12.849  0.00  0.00    -0.016 C 
ATOM      6  C   UNL     1      37.784 -25.982 -14.279  0.00  0.00    +0.274 C 
ATOM      7  C   UNL     1      38.236 -25.013 -13.236  0.00  0.00    +0.056 C 
ATOM      8  C   UNL     1      37.817 -23.013 -11.808  0.00  0.00    +0.031 C 
ENDROOT
BRANCH   3   9
ATOM      9  C   UNL     1      34.330 -24.605 -15.030  0.00  0.00    +0.039 C 
ATOM     10  C   UNL     1      34.319 -23.486 -16.080  0.00  0.00    +0.006 C 
ATOM     11  C   UNL     1      33.240 -24.372 -13.974  0.00  0.00    +0.006 C 
ATOM     12  C   UNL     1      32.940 -23.319 -16.714  0.00  0.00    +0.000 C 
ATOM     13  C   UNL     1      31.863 -24.203 -14.612  0.00  0.00    +0.000 C 
ATOM     14  C   UNL     1      31.860 -23.095 -15.660  0.00  0.00    +0.000 C 
ENDBRANCH   3   9
BRANCH   2  15
ATOM     15  O   UNL     1      36.081 -26.565 -15.818  0.00  0.00    -0.288 OA
ATOM     16  H   UNL     1      35.333 -26.321 -16.328  0.00  0.00    +0.242 HD
ENDBRANCH   2  15
TORSDOF 2
ENDMDL
MODEL 9
REMARK VINA RESULT:      -7.6      7.264     10.339
REMARK  Name = 2749
REMARK  2 active torsions:
REMARK  status: ('A' for Active; 'I' for Inactive)
REMARK    1  A    between atoms: N_2  and  O_15
REMARK    2  A    between atoms: C_3  and  C_9
REMARK                            x       y       z     vdW  Elec       q    Type
REMARK                         _______ _______ _______ _____ _____    ______ ____
ROOT
ATOM      1  O   UNL     1      32.428 -13.396 -23.007  0.00  0.00    -0.267 OA
ATOM      2  N   UNL     1      32.224 -11.102 -22.739  0.00  0.00    -0.150 N 
ATOM      3  C   UNL     1      32.619  -9.811 -23.002  0.00  0.00    +0.058 C 
ATOM      4  C   UNL     1      33.606  -9.618 -23.895  0.00  0.00    +0.009 C 
ATOM      5  C   UNL     1      34.238 -10.748 -24.554  0.00  0.00    -0.016 C 
ATOM      6  C   UNL     1      32.772 -12.247 -23.271  0.00  0.00    +0.274 C 
ATOM      7  C   UNL     1      33.855 -12.004 -24.270  0.00  0.00    +0.056 C 
ATOM      8  C   UNL     1      35.318 -10.437 -25.544  0.00  0.00    +0.031 C 
ENDROOT
BRANCH   3   9
ATOM      9  C   UNL     1      31.931  -8.677 -22.303  0.00  0.00    +0.039 C 
ATOM     10  C   UNL     1      31.471  -7.613 -23.309  0.00  0.00    +0.006 C 
ATOM     11  C   UNL     1      32.844  -8.059 -21.235  0.00  0.00    +0.006 C 
ATOM     12  C   UNL     1      30.809  -6.426 -22.614  0.00  0.00    +0.000 C 
ATOM     13  C   UNL     1      32.179  -6.870 -20.544  0.00  0.00    +0.000 C 
ATOM     14  C   UNL     1      31.717  -5.820 -21.549  0.00  0.00    +0.000 C 
ENDBRANCH   3   9
BRANCH   2  15
ATOM     15  O   UNL     1      31.158 -11.269 -21.841  0.00  0.00    -0.288 OA
ATOM     16  H   UNL     1      30.438 -11.825 -22.066  0.00  0.00    +0.242 HD
ENDBRANCH   2  15
TORSDOF 2
ENDMDL
