MODEL 1
REMARK VINA RESULT:      -9.1      0.000      0.000
REMARK  Name = 2376771
REMARK  4 active torsions:
REMARK  status: ('A' for Active; 'I' for Inactive)
REMARK    1  A    between atoms: N_2  and  C_7
REMARK    2  A    between atoms: C_3  and  C_17
REMARK    3  A    between atoms: C_12  and  C_14
REMARK    4  A    between atoms: C_17  and  O_18
REMARK                            x       y       z     vdW  Elec       q    Type
REMARK                         _______ _______ _______ _____ _____    ______ ____
ROOT
ATOM      1  O   UNL     1      33.296 -16.269 -20.900  0.00  0.00    -0.275 OA
ATOM      2  N   UNL     1      34.760 -17.788 -22.011  0.00  0.00    -0.258 N 
ATOM      3  C   UNL     1      35.268 -16.417 -23.851  0.00  0.00    +0.128 C 
ATOM      4  C   UNL     1      35.682 -17.680 -23.128  0.00  0.00    +0.110 C 
ATOM      5  C   UNL     1      34.608 -15.568 -22.784  0.00  0.00    +0.098 C 
ATOM      6  C   UNL     1      34.099 -16.569 -21.771  0.00  0.00    +0.230 C 
ENDROOT
BRANCH   2   7
ATOM      7  C   UNL     1      34.634 -18.987 -21.246  0.00  0.00    +0.054 C 
ATOM      8  C   UNL     1      33.369 -19.502 -20.948  0.00  0.00    +0.015 C 
ATOM      9  C   UNL     1      35.775 -19.654 -20.791  0.00  0.00    +0.015 C 
ATOM     10  C   UNL     1      33.247 -20.673 -20.201  0.00  0.00    +0.004 C 
ATOM     11  C   UNL     1      35.652 -20.825 -20.043  0.00  0.00    +0.004 C 
ATOM     12  C   UNL     1      34.387 -21.335 -19.749  0.00  0.00    +0.035 C 
BRANCH  12  14
ATOM     13  O   UNL     1      33.790 -23.598 -19.464  0.00  0.00    -0.291 OA
ATOM     14  C   UNL     1      34.259 -22.555 -18.968  0.00  0.00    +0.173 C 
ATOM     15  C   UNL     1      34.700 -22.584 -17.509  0.00  0.00    +0.077 C 
ENDBRANCH  12  14
ENDBRANCH   2   7
BRANCH   3  17
ATOM     16  O   UNL     1      34.086 -17.864 -25.417  0.00  0.00    -0.250 OA
ATOM     17  C   UNL     1      34.239 -16.758 -24.919  0.00  0.00    +0.315 C 
BRANCH  17  18
ATOM     18  O   UNL     1      33.510 -15.665 -25.248  0.00  0.00    -0.480 OA
ATOM     19  H   UNL     1      32.703 -15.488 -24.806  0.00  0.00    +0.295 HD
ENDBRANCH  17  18
ENDBRANCH   3  17
TORSDOF 4
ENDMDL
MODEL 2
REMARK VINA RESULT:      -8.8      7.613     10.566
REMARK  Name = 2376771
REMARK  4 active torsions:
REMARK  status: ('A' for Active; 'I' for Inactive)
REMARK    1  A    between atoms: N_2  and  C_7
REMARK    2  A    between atoms: C_3  and  C_17
REMARK    3  A    between atoms: C_12  and  C_14
REMARK    4  A    between atoms: C_17  and  O_18
REMARK                            x       y       z     vdW  Elec       q    Type
REMARK                         _______ _______ _______ _____ _____    ______ ____
ROOT
ATOM      1  O   UNL     1      36.067 -26.722 -15.742  0.00  0.00    -0.275 OA
ATOM      2  N   UNL     1      35.906 -24.585 -14.698  0.00  0.00    -0.258 N 
ATOM      3  C   UNL     1      37.939 -24.678 -13.521  0.00  0.00    +0.128 C 
ATOM      4  C   UNL     1      36.827 -23.745 -13.951  0.00  0.00    +0.110 C 
ATOM      5  C   UNL     1      37.931 -25.782 -14.559  0.00  0.00    +0.098 C 
ATOM      6  C   UNL     1      36.510 -25.798 -15.075  0.00  0.00    +0.230 C 
ENDROOT
BRANCH   2   7
ATOM      7  C   UNL     1      34.590 -24.149 -15.036  0.00  0.00    +0.054 C 
ATOM      8  C   UNL     1      33.549 -24.275 -14.111  0.00  0.00    +0.015 C 
ATOM      9  C   UNL     1      34.333 -23.594 -16.292  0.00  0.00    +0.015 C 
ATOM     10  C   UNL     1      32.262 -23.851 -14.442  0.00  0.00    +0.004 C 
ATOM     11  C   UNL     1      33.046 -23.170 -16.622  0.00  0.00    +0.004 C 
ATOM     12  C   UNL     1      32.010 -23.297 -15.696  0.00  0.00    +0.035 C 
BRANCH  12  14
ATOM     13  O   UNL     1      30.398 -22.424 -17.178  0.00  0.00    -0.291 OA
ATOM     14  C   UNL     1      30.668 -22.856 -16.041  0.00  0.00    +0.173 C 
ATOM     15  C   UNL     1      29.551 -22.913 -15.005  0.00  0.00    +0.077 C 
ENDBRANCH  12  14
ENDBRANCH   2   7
BRANCH   3  17
ATOM     16  O   UNL     1      37.159 -26.397 -11.979  0.00  0.00    -0.250 OA
ATOM     17  C   UNL     1      37.605 -25.273 -12.162  0.00  0.00    +0.315 C 
BRANCH  17  18
ATOM     18  O   UNL     1      37.867 -24.385 -11.172  0.00  0.00    -0.480 OA
ATOM     19  H   UNL     1      38.642 -24.474 -10.655  0.00  0.00    +0.295 HD
ENDBRANCH  17  18
ENDBRANCH   3  17
TORSDOF 4
ENDMDL
MODEL 3
REMARK VINA RESULT:      -8.7      7.833     10.665
REMARK  Name = 2376771
REMARK  4 active torsions:
REMARK  status: ('A' for Active; 'I' for Inactive)
REMARK    1  A    between atoms: N_2  and  C_7
REMARK    2  A    between atoms: C_3  and  C_17
REMARK    3  A    between atoms: C_12  and  C_14
REMARK    4  A    between atoms: C_17  and  O_18
REMARK                            x       y       z     vdW  Elec       q    Type
REMARK                         _______ _______ _______ _____ _____    ______ ____
ROOT
ATOM      1  O   UNL     1      35.743 -26.123 -15.803  0.00  0.00    -0.275 OA
ATOM      2  N   UNL     1      35.030 -24.311 -14.425  0.00  0.00    -0.258 N 
ATOM      3  C   UNL     1      36.868 -24.313 -12.960  0.00  0.00    +0.128 C 
ATOM      4  C   UNL     1      35.662 -23.508 -13.393  0.00  0.00    +0.110 C 
ATOM      5  C   UNL     1      37.214 -25.158 -14.169  0.00  0.00    +0.098 C 
ATOM      6  C   UNL     1      35.904 -25.300 -14.912  0.00  0.00    +0.230 C 
ENDROOT
BRANCH   2   7
ATOM      7  C   UNL     1      33.710 -24.038 -14.894  0.00  0.00    +0.054 C 
ATOM      8  C   UNL     1      33.517 -23.435 -16.141  0.00  0.00    +0.015 C 
ATOM      9  C   UNL     1      32.602 -24.372 -14.111  0.00  0.00    +0.015 C 
ATOM     10  C   UNL     1      32.227 -23.168 -16.598  0.00  0.00    +0.004 C 
ATOM     11  C   UNL     1      31.312 -24.104 -14.569  0.00  0.00    +0.004 C 
ATOM     12  C   UNL     1      31.125 -23.503 -15.814  0.00  0.00    +0.035 C 
BRANCH  12  14
ATOM     13  O   UNL     1      29.549 -22.273 -17.065  0.00  0.00    -0.291 OA
ATOM     14  C   UNL     1      29.780 -23.222 -16.291  0.00  0.00    +0.173 C 
ATOM     15  C   UNL     1      28.610 -24.095 -15.849  0.00  0.00    +0.077 C 
ENDBRANCH  12  14
ENDBRANCH   2   7
BRANCH   3  17
ATOM     16  O   UNL     1      35.696 -24.942 -10.918  0.00  0.00    -0.250 OA
ATOM     17  C   UNL     1      36.481 -25.230 -11.810  0.00  0.00    +0.315 C 
BRANCH  17  18
ATOM     18  O   UNL     1      37.128 -26.417 -11.905  0.00  0.00    -0.480 OA
ATOM     19  H   UNL     1      38.045 -26.438 -12.090  0.00  0.00    +0.295 HD
ENDBRANCH  17  18
ENDBRANCH   3  17
TORSDOF 4
ENDMDL
MODEL 4
REMARK VINA RESULT:      -8.5      7.855     10.531
REMARK  Name = 2376771
REMARK  4 active torsions:
REMARK  status: ('A' for Active; 'I' for Inactive)
REMARK    1  A    between atoms: N_2  and  C_7
REMARK    2  A    between atoms: C_3  and  C_17
REMARK    3  A    between atoms: C_12  and  C_14
REMARK    4  A    between atoms: C_17  and  O_18
REMARK                            x       y       z     vdW  Elec       q    Type
REMARK                         _______ _______ _______ _____ _____    ______ ____
ROOT
ATOM      1  O   UNL     1      37.031 -22.623 -12.172  0.00  0.00    -0.275 OA
ATOM      2  N   UNL     1      36.469 -24.547 -13.464  0.00  0.00    -0.258 N 
ATOM      3  C   UNL     1      38.443 -25.759 -13.064  0.00  0.00    +0.128 C 
ATOM      4  C   UNL     1      37.037 -25.876 -13.610  0.00  0.00    +0.110 C 
ATOM      5  C   UNL     1      38.372 -24.612 -12.076  0.00  0.00    +0.098 C 
ATOM      6  C   UNL     1      37.223 -23.763 -12.572  0.00  0.00    +0.230 C 
ENDROOT
BRANCH   2   7
ATOM      7  C   UNL     1      35.257 -24.166 -14.115  0.00  0.00    +0.054 C 
ATOM      8  C   UNL     1      34.050 -24.166 -13.409  0.00  0.00    +0.015 C 
ATOM      9  C   UNL     1      35.269 -23.790 -15.461  0.00  0.00    +0.015 C 
ATOM     10  C   UNL     1      32.866 -23.795 -14.046  0.00  0.00    +0.004 C 
ATOM     11  C   UNL     1      34.085 -23.419 -16.096  0.00  0.00    +0.004 C 
ATOM     12  C   UNL     1      32.883 -23.420 -15.388  0.00  0.00    +0.035 C 
BRANCH  12  14
ATOM     13  O   UNL     1      31.630 -22.702 -17.253  0.00  0.00    -0.291 OA
ATOM     14  C   UNL     1      31.647 -23.034 -16.051  0.00  0.00    +0.173 C 
ATOM     15  C   UNL     1      30.331 -23.028 -15.281  0.00  0.00    +0.077 C 
ENDBRANCH  12  14
ENDBRANCH   2   7
BRANCH   3  17
ATOM     16  O   UNL     1      40.466 -24.814 -14.042  0.00  0.00    -0.250 OA
ATOM     17  C   UNL     1      39.395 -25.384 -14.190  0.00  0.00    +0.315 C 
BRANCH  17  18
ATOM     18  O   UNL     1      38.893 -25.767 -15.389  0.00  0.00    -0.480 OA
ATOM     19  H   UNL     1      38.181 -25.295 -15.772  0.00  0.00    +0.295 HD
ENDBRANCH  17  18
ENDBRANCH   3  17
TORSDOF 4
ENDMDL
MODEL 5
REMARK VINA RESULT:      -8.5      4.812      9.952
REMARK  Name = 2376771
REMARK  4 active torsions:
REMARK  status: ('A' for Active; 'I' for Inactive)
REMARK    1  A    between atoms: N_2  and  C_7
REMARK    2  A    between atoms: C_3  and  C_17
REMARK    3  A    between atoms: C_12  and  C_14
REMARK    4  A    between atoms: C_17  and  O_18
REMARK                            x       y       z     vdW  Elec       q    Type
REMARK                         _______ _______ _______ _____ _____    ______ ____
ROOT
ATOM      1  O   UNL     1      36.470 -26.221 -15.538  0.00  0.00    -0.275 OA
ATOM      2  N   UNL     1      36.370 -23.938 -14.856  0.00  0.00    -0.258 N 
ATOM      3  C   UNL     1      36.685 -24.303 -12.555  0.00  0.00    +0.128 C 
ATOM      4  C   UNL     1      36.668 -23.230 -13.623  0.00  0.00    +0.110 C 
ATOM      5  C   UNL     1      37.045 -25.573 -13.299  0.00  0.00    +0.098 C 
ATOM      6  C   UNL     1      36.574 -25.323 -14.715  0.00  0.00    +0.230 C 
ENDROOT
BRANCH   2   7
ATOM      7  C   UNL     1      35.989 -23.252 -16.049  0.00  0.00    +0.054 C 
ATOM      8  C   UNL     1      36.913 -22.447 -16.722  0.00  0.00    +0.015 C 
ATOM      9  C   UNL     1      34.692 -23.382 -16.552  0.00  0.00    +0.015 C 
ATOM     10  C   UNL     1      36.541 -21.777 -17.887  0.00  0.00    +0.004 C 
ATOM     11  C   UNL     1      34.321 -22.711 -17.717  0.00  0.00    +0.004 C 
ATOM     12  C   UNL     1      35.246 -21.909 -18.385  0.00  0.00    +0.035 C 
BRANCH  12  14
ATOM     13  O   UNL     1      35.707 -20.821 -20.425  0.00  0.00    -0.291 OA
ATOM     14  C   UNL     1      34.858 -21.209 -19.599  0.00  0.00    +0.173 C 
ATOM     15  C   UNL     1      33.387 -20.931 -19.890  0.00  0.00    +0.077 C 
ENDBRANCH  12  14
ENDBRANCH   2   7
BRANCH   3  17
ATOM     16  O   UNL     1      34.265 -24.030 -12.475  0.00  0.00    -0.250 OA
ATOM     17  C   UNL     1      35.292 -24.453 -11.965  0.00  0.00    +0.315 C 
BRANCH  17  18
ATOM     18  O   UNL     1      35.341 -25.122 -10.787  0.00  0.00    -0.480 OA
ATOM     19  H   UNL     1      35.617 -26.017 -10.767  0.00  0.00    +0.295 HD
ENDBRANCH  17  18
ENDBRANCH   3  17
TORSDOF 4
ENDMDL
MODEL 6
REMARK VINA RESULT:      -8.4      7.538      9.611
REMARK  Name = 2376771
REMARK  4 active torsions:
REMARK  status: ('A' for Active; 'I' for Inactive)
REMARK    1  A    between atoms: N_2  and  C_7
REMARK    2  A    between atoms: C_3  and  C_17
REMARK    3  A    between atoms: C_12  and  C_14
REMARK    4  A    between atoms: C_17  and  O_18
REMARK                            x       y       z     vdW  Elec       q    Type
REMARK                         _______ _______ _______ _____ _____    ______ ____
ROOT
ATOM      1  O   UNL     1      36.286 -22.620 -16.787  0.00  0.00    -0.275 OA
ATOM      2  N   UNL     1      35.145 -23.883 -15.117  0.00  0.00    -0.258 N 
ATOM      3  C   UNL     1      37.029 -24.981 -14.239  0.00  0.00    +0.128 C 
ATOM      4  C   UNL     1      35.568 -24.683 -13.981  0.00  0.00    +0.110 C 
ATOM      5  C   UNL     1      37.501 -23.836 -15.112  0.00  0.00    +0.098 C 
ATOM      6  C   UNL     1      36.249 -23.364 -15.818  0.00  0.00    +0.230 C 
ENDROOT
BRANCH   2   7
ATOM      7  C   UNL     1      33.768 -23.633 -15.396  0.00  0.00    +0.054 C 
ATOM      8  C   UNL     1      33.351 -23.375 -16.706  0.00  0.00    +0.015 C 
ATOM      9  C   UNL     1      32.827 -23.644 -14.363  0.00  0.00    +0.015 C 
ATOM     10  C   UNL     1      32.005 -23.130 -16.978  0.00  0.00    +0.004 C 
ATOM     11  C   UNL     1      31.482 -23.399 -14.636  0.00  0.00    +0.004 C 
ATOM     12  C   UNL     1      31.071 -23.142 -15.944  0.00  0.00    +0.035 C 
BRANCH  12  14
ATOM     13  O   UNL     1      29.317 -21.953 -16.977  0.00  0.00    -0.291 OA
ATOM     14  C   UNL     1      29.668 -22.885 -16.228  0.00  0.00    +0.173 C 
ATOM     15  C   UNL     1      28.585 -23.761 -15.608  0.00  0.00    +0.077 C 
ENDBRANCH  12  14
ENDBRANCH   2   7
BRANCH   3  17
ATOM     16  O   UNL     1      36.299 -26.733 -15.768  0.00  0.00    -0.250 OA
ATOM     17  C   UNL     1      37.152 -26.281 -15.018  0.00  0.00    +0.315 C 
BRANCH  17  18
ATOM     18  O   UNL     1      38.343 -26.878 -14.768  0.00  0.00    -0.480 OA
ATOM     19  H   UNL     1      39.105 -26.624 -15.249  0.00  0.00    +0.295 HD
ENDBRANCH  17  18
ENDBRANCH   3  17
TORSDOF 4
ENDMDL
MODEL 7
REMARK VINA RESULT:      -8.4      7.130      9.130
REMARK  Name = 2376771
REMARK  4 active torsions:
REMARK  status: ('A' for Active; 'I' for Inactive)
REMARK    1  A    between atoms: N_2  and  C_7
REMARK    2  A    between atoms: C_3  and  C_17
REMARK    3  A    between atoms: C_12  and  C_14
REMARK    4  A    between atoms: C_17  and  O_18
REMARK                            x       y       z     vdW  Elec       q    Type
REMARK                         _______ _______ _______ _____ _____    ______ ____
ROOT
ATOM      1  O   UNL     1      30.481 -26.053 -15.317  0.00  0.00    -0.275 OA
ATOM      2  N   UNL     1      30.702 -23.682 -15.447  0.00  0.00    -0.258 N 
ATOM      3  C   UNL     1      28.408 -23.170 -15.449  0.00  0.00    +0.128 C 
ATOM      4  C   UNL     1      29.787 -22.564 -15.297  0.00  0.00    +0.110 C 
ATOM      5  C   UNL     1      28.580 -24.615 -15.026  0.00  0.00    +0.098 C 
ATOM      6  C   UNL     1      30.038 -24.913 -15.300  0.00  0.00    +0.230 C 
ENDROOT
BRANCH   2   7
ATOM      7  C   UNL     1      32.103 -23.491 -15.649  0.00  0.00    +0.054 C 
ATOM      8  C   UNL     1      32.984 -23.560 -14.566  0.00  0.00    +0.015 C 
ATOM      9  C   UNL     1      32.601 -23.235 -16.929  0.00  0.00    +0.015 C 
ATOM     10  C   UNL     1      34.353 -23.373 -14.763  0.00  0.00    +0.004 C 
ATOM     11  C   UNL     1      33.969 -23.047 -17.125  0.00  0.00    +0.004 C 
ATOM     12  C   UNL     1      34.845 -23.118 -16.041  0.00  0.00    +0.035 C 
BRANCH  12  14
ATOM     13  O   UNL     1      37.110 -23.722 -15.787  0.00  0.00    -0.291 OA
ATOM     14  C   UNL     1      36.271 -22.921 -16.245  0.00  0.00    +0.173 C 
ATOM     15  C   UNL     1      36.777 -21.717 -17.033  0.00  0.00    +0.077 C 
ENDBRANCH  12  14
ENDBRANCH   2   7
BRANCH   3  17
ATOM     16  O   UNL     1      27.731 -24.107 -17.594  0.00  0.00    -0.250 OA
ATOM     17  C   UNL     1      27.994 -23.128 -16.911  0.00  0.00    +0.315 C 
BRANCH  17  18
ATOM     18  O   UNL     1      27.956 -21.850 -17.362  0.00  0.00    -0.480 OA
ATOM     19  H   UNL     1      27.846 -21.143 -16.758  0.00  0.00    +0.295 HD
ENDBRANCH  17  18
ENDBRANCH   3  17
TORSDOF 4
ENDMDL
MODEL 8
REMARK VINA RESULT:      -8.3      4.083      9.089
REMARK  Name = 2376771
REMARK  4 active torsions:
REMARK  status: ('A' for Active; 'I' for Inactive)
REMARK    1  A    between atoms: N_2  and  C_7
REMARK    2  A    between atoms: C_3  and  C_17
REMARK    3  A    between atoms: C_12  and  C_14
REMARK    4  A    between atoms: C_17  and  O_18
REMARK                            x       y       z     vdW  Elec       q    Type
REMARK                         _______ _______ _______ _____ _____    ______ ____
ROOT
ATOM      1  O   UNL     1      38.183 -22.683 -15.703  0.00  0.00    -0.275 OA
ATOM      2  N   UNL     1      36.017 -23.662 -15.895  0.00  0.00    -0.258 N 
ATOM      3  C   UNL     1      36.334 -25.389 -14.332  0.00  0.00    +0.128 C 
ATOM      4  C   UNL     1      35.281 -24.660 -15.139  0.00  0.00    +0.110 C 
ATOM      5  C   UNL     1      37.453 -24.381 -14.170  0.00  0.00    +0.098 C 
ATOM      6  C   UNL     1      37.305 -23.464 -15.364  0.00  0.00    +0.230 C 
ENDROOT
BRANCH   2   7
ATOM      7  C   UNL     1      35.430 -22.954 -16.986  0.00  0.00    +0.054 C 
ATOM      8  C   UNL     1      36.211 -22.102 -17.773  0.00  0.00    +0.015 C 
ATOM      9  C   UNL     1      34.071 -23.107 -17.274  0.00  0.00    +0.015 C 
ATOM     10  C   UNL     1      35.636 -21.409 -18.839  0.00  0.00    +0.004 C 
ATOM     11  C   UNL     1      33.497 -22.414 -18.340  0.00  0.00    +0.004 C 
ATOM     12  C   UNL     1      34.280 -21.565 -19.123  0.00  0.00    +0.035 C 
BRANCH  12  14
ATOM     13  O   UNL     1      32.483 -20.996 -20.539  0.00  0.00    -0.291 OA
ATOM     14  C   UNL     1      33.682 -20.841 -20.233  0.00  0.00    +0.173 C 
ATOM     15  C   UNL     1      34.518 -19.867 -21.055  0.00  0.00    +0.077 C 
ENDBRANCH  12  14
ENDBRANCH   2   7
BRANCH   3  17
ATOM     16  O   UNL     1      36.284 -27.076 -16.090  0.00  0.00    -0.250 OA
ATOM     17  C   UNL     1      36.849 -26.579 -15.127  0.00  0.00    +0.315 C 
BRANCH  17  18
ATOM     18  O   UNL     1      38.027 -27.018 -14.621  0.00  0.00    -0.480 OA
ATOM     19  H   UNL     1      38.834 -26.763 -15.021  0.00  0.00    +0.295 HD
ENDBRANCH  17  18
ENDBRANCH   3  17
TORSDOF 4
ENDMDL
MODEL 9
REMARK VINA RESULT:      -8.3      5.264     10.013
REMARK  Name = 2376771
REMARK  4 active torsions:
REMARK  status: ('A' for Active; 'I' for Inactive)
REMARK    1  A    between atoms: N_2  and  C_7
REMARK    2  A    between atoms: C_3  and  C_17
REMARK    3  A    between atoms: C_12  and  C_14
REMARK    4  A    between atoms: C_17  and  O_18
REMARK                            x       y       z     vdW  Elec       q    Type
REMARK                         _______ _______ _______ _____ _____    ______ ____
ROOT
ATOM      1  O   UNL     1      33.716 -24.139 -12.886  0.00  0.00    -0.275 OA
ATOM      2  N   UNL     1      35.780 -23.936 -14.063  0.00  0.00    -0.258 N 
ATOM      3  C   UNL     1      37.201 -24.411 -12.251  0.00  0.00    +0.128 C 
ATOM      4  C   UNL     1      37.163 -24.262 -13.757  0.00  0.00    +0.110 C 
ATOM      5  C   UNL     1      35.788 -24.805 -11.873  0.00  0.00    +0.098 C 
ATOM      6  C   UNL     1      34.932 -24.235 -12.981  0.00  0.00    +0.230 C 
ENDROOT
BRANCH   2   7
ATOM      7  C   UNL     1      35.385 -23.442 -15.342  0.00  0.00    +0.054 C 
ATOM      8  C   UNL     1      34.116 -23.740 -15.849  0.00  0.00    +0.015 C 
ATOM      9  C   UNL     1      36.262 -22.658 -16.096  0.00  0.00    +0.015 C 
ATOM     10  C   UNL     1      33.730 -23.258 -17.100  0.00  0.00    +0.004 C 
ATOM     11  C   UNL     1      35.875 -22.178 -17.347  0.00  0.00    +0.004 C 
ATOM     12  C   UNL     1      34.608 -22.476 -17.848  0.00  0.00    +0.035 C 
BRANCH  12  14
ATOM     13  O   UNL     1      33.113 -22.294 -19.662  0.00  0.00    -0.291 OA
ATOM     14  C   UNL     1      34.205 -21.976 -19.153  0.00  0.00    +0.173 C 
ATOM     15  C   UNL     1      35.122 -21.040 -19.933  0.00  0.00    +0.077 C 
ENDBRANCH  12  14
ENDBRANCH   2   7
BRANCH   3  17
ATOM     16  O   UNL     1      38.209 -22.195 -12.134  0.00  0.00    -0.250 OA
ATOM     17  C   UNL     1      37.527 -23.068 -11.617  0.00  0.00    +0.315 C 
BRANCH  17  18
ATOM     18  O   UNL     1      36.959 -22.966 -10.391  0.00  0.00    -0.480 OA
ATOM     19  H   UNL     1      37.284 -23.480  -9.679  0.00  0.00    +0.295 HD
ENDBRANCH  17  18
ENDBRANCH   3  17
TORSDOF 4
ENDMDL
