MODEL 1
REMARK VINA RESULT:      -9.2      0.000      0.000
REMARK  Name = 6421776
REMARK  3 active torsions:
REMARK  status: ('A' for Active; 'I' for Inactive)
REMARK    1  A    between atoms: C_4  and  C_14
REMARK    2  A    between atoms: C_6  and  C_9
REMARK    3  A    between atoms: C_14  and  N_15
REMARK                            x       y       z     vdW  Elec       q    Type
REMARK                         _______ _______ _______ _____ _____    ______ ____
ROOT
ATOM      1  O   UNL     1      32.624 -21.405 -20.332  0.00  0.00    -0.257 OA
ATOM      2  N   UNL     1      35.287 -20.715 -19.804  0.00  0.00    -0.254 NA
ATOM      3  N   UNL     1      33.261 -21.805 -19.163  0.00  0.00    -0.247 N 
ATOM      4  C   UNL     1      34.541 -20.127 -20.927  0.00  0.00    +0.117 C 
ATOM      5  C   UNL     1      33.054 -20.074 -20.609  0.00  0.00    +0.196 C 
ATOM      6  C   UNL     1      34.604 -21.502 -19.028  0.00  0.00    +0.157 C 
ATOM      7  H   UNL     1      32.773 -22.288 -18.458  0.00  0.00    +0.196 HD
ENDROOT
BRANCH   6   9
ATOM      8  N   UNL     1      35.333 -23.617 -15.995  0.00  0.00    -0.242 NA
ATOM      9  C   UNL     1      35.344 -22.116 -17.877  0.00  0.00    +0.054 C 
ATOM     10  C   UNL     1      36.662 -21.775 -17.624  0.00  0.00    +0.006 C 
ATOM     11  C   UNL     1      34.724 -23.028 -17.048  0.00  0.00    +0.102 C 
ATOM     12  C   UNL     1      37.322 -22.360 -16.548  0.00  0.00    +0.021 C 
ATOM     13  C   UNL     1      36.619 -23.266 -15.771  0.00  0.00    +0.099 C 
ENDBRANCH   6   9
BRANCH   4  14
ATOM     14  C   UNL     1      35.100 -18.738 -21.200  0.00  0.00    -0.050 C 
BRANCH  14  15
ATOM     15  N   UNL     1      34.572 -18.193 -22.450  0.00  0.00    +0.388 N 
ATOM     16  C   UNL     1      34.998 -19.014 -23.591  0.00  0.00    -0.077 C 
ATOM     17  C   UNL     1      34.990 -16.794 -22.617  0.00  0.00    -0.077 C 
ATOM     18  C   UNL     1      34.413 -18.485 -24.901  0.00  0.00    -0.023 C 
ATOM     19  C   UNL     1      34.405 -16.191 -23.895  0.00  0.00    -0.023 C 
ATOM     20  C   UNL     1      34.776 -17.021 -25.119  0.00  0.00    -0.004 C 
ATOM     21  H   UNL     1      33.552 -18.213 -22.410  0.00  0.00    -0.080 HD
ENDBRANCH  14  15
ENDBRANCH   4  14
TORSDOF 3
ENDMDL
MODEL 2
REMARK VINA RESULT:      -9.0      2.863      7.922
REMARK  Name = 6421776
REMARK  3 active torsions:
REMARK  status: ('A' for Active; 'I' for Inactive)
REMARK    1  A    between atoms: C_4  and  C_14
REMARK    2  A    between atoms: C_6  and  C_9
REMARK    3  A    between atoms: C_14  and  N_15
REMARK                            x       y       z     vdW  Elec       q    Type
REMARK                         _______ _______ _______ _____ _____    ______ ____
ROOT
ATOM      1  O   UNL     1      34.374 -17.833 -24.882  0.00  0.00    -0.257 OA
ATOM      2  N   UNL     1      34.266 -16.793 -22.284  0.00  0.00    -0.254 NA
ATOM      3  N   UNL     1      34.096 -16.491 -24.646  0.00  0.00    -0.247 N 
ATOM      4  C   UNL     1      34.762 -18.151 -22.556  0.00  0.00    +0.117 C 
ATOM      5  C   UNL     1      35.377 -18.223 -23.947  0.00  0.00    +0.196 C 
ATOM      6  C   UNL     1      33.968 -16.084 -23.330  0.00  0.00    +0.157 C 
ATOM      7  H   UNL     1      33.993 -15.854 -25.389  0.00  0.00    +0.196 HD
ENDROOT
BRANCH   6   9
ATOM      8  N   UNL     1      33.400 -12.380 -23.725  0.00  0.00    -0.242 NA
ATOM      9  C   UNL     1      33.457 -14.697 -23.076  0.00  0.00    +0.054 C 
ATOM     10  C   UNL     1      32.610 -14.441 -22.011  0.00  0.00    +0.006 C 
ATOM     11  C   UNL     1      33.823 -13.651 -23.898  0.00  0.00    +0.102 C 
ATOM     12  C   UNL     1      32.155 -13.144 -21.800  0.00  0.00    +0.021 C 
ATOM     13  C   UNL     1      32.575 -12.158 -22.677  0.00  0.00    +0.099 C 
ENDBRANCH   6   9
BRANCH   4  14
ATOM     14  C   UNL     1      35.776 -18.517 -21.482  0.00  0.00    -0.050 C 
BRANCH  14  15
ATOM     15  N   UNL     1      35.191 -19.414 -20.487  0.00  0.00    +0.388 N 
ATOM     16  C   UNL     1      36.077 -20.561 -20.244  0.00  0.00    -0.077 C 
ATOM     17  C   UNL     1      33.856 -19.856 -20.915  0.00  0.00    -0.077 C 
ATOM     18  C   UNL     1      35.503 -21.485 -19.169  0.00  0.00    -0.023 C 
ATOM     19  C   UNL     1      33.208 -20.756 -19.861  0.00  0.00    -0.023 C 
ATOM     20  C   UNL     1      34.097 -21.949 -19.531  0.00  0.00    -0.004 C 
ATOM     21  H   UNL     1      35.087 -18.905 -19.609  0.00  0.00    -0.080 HD
ENDBRANCH  14  15
ENDBRANCH   4  14
TORSDOF 3
ENDMDL
MODEL 3
REMARK VINA RESULT:      -8.9      2.811      8.225
REMARK  Name = 6421776
REMARK  3 active torsions:
REMARK  status: ('A' for Active; 'I' for Inactive)
REMARK    1  A    between atoms: C_4  and  C_14
REMARK    2  A    between atoms: C_6  and  C_9
REMARK    3  A    between atoms: C_14  and  N_15
REMARK                            x       y       z     vdW  Elec       q    Type
REMARK                         _______ _______ _______ _____ _____    ______ ____
ROOT
ATOM      1  O   UNL     1      34.995 -15.701 -20.758  0.00  0.00    -0.257 OA
ATOM      2  N   UNL     1      34.978 -16.991 -23.243  0.00  0.00    -0.254 NA
ATOM      3  N   UNL     1      34.357 -15.146 -21.861  0.00  0.00    -0.247 N 
ATOM      4  C   UNL     1      35.462 -17.659 -22.026  0.00  0.00    +0.117 C 
ATOM      5  C   UNL     1      34.754 -17.106 -20.797  0.00  0.00    +0.196 C 
ATOM      6  C   UNL     1      34.480 -15.804 -23.072  0.00  0.00    +0.157 C 
ATOM      7  H   UNL     1      33.838 -14.314 -21.783  0.00  0.00    +0.196 HD
ENDROOT
BRANCH   6   9
ATOM      8  N   UNL     1      33.330 -15.228 -26.614  0.00  0.00    -0.242 NA
ATOM      9  C   UNL     1      33.981 -15.103 -24.300  0.00  0.00    +0.054 C 
ATOM     10  C   UNL     1      33.720 -13.743 -24.279  0.00  0.00    +0.006 C 
ATOM     11  C   UNL     1      33.776 -15.799 -25.474  0.00  0.00    +0.102 C 
ATOM     12  C   UNL     1      33.260 -13.120 -25.434  0.00  0.00    +0.021 C 
ATOM     13  C   UNL     1      33.083 -13.900 -26.565  0.00  0.00    +0.099 C 
ENDBRANCH   6   9
BRANCH   4  14
ATOM     14  C   UNL     1      35.229 -19.156 -22.173  0.00  0.00    -0.050 C 
BRANCH  14  15
ATOM     15  N   UNL     1      34.833 -19.757 -20.900  0.00  0.00    +0.388 N 
ATOM     16  C   UNL     1      35.772 -20.821 -20.520  0.00  0.00    -0.077 C 
ATOM     17  C   UNL     1      33.457 -20.266 -20.979  0.00  0.00    -0.077 C 
ATOM     18  C   UNL     1      35.400 -21.427 -19.166  0.00  0.00    -0.023 C 
ATOM     19  C   UNL     1      33.008 -20.853 -19.639  0.00  0.00    -0.023 C 
ATOM     20  C   UNL     1      33.965 -21.940 -19.164  0.00  0.00    -0.004 C 
ATOM     21  H   UNL     1      34.862 -19.038 -20.177  0.00  0.00    -0.080 HD
ENDBRANCH  14  15
ENDBRANCH   4  14
TORSDOF 3
ENDMDL
MODEL 4
REMARK VINA RESULT:      -8.9      4.516      7.550
REMARK  Name = 6421776
REMARK  3 active torsions:
REMARK  status: ('A' for Active; 'I' for Inactive)
REMARK    1  A    between atoms: C_4  and  C_14
REMARK    2  A    between atoms: C_6  and  C_9
REMARK    3  A    between atoms: C_14  and  N_15
REMARK                            x       y       z     vdW  Elec       q    Type
REMARK                         _______ _______ _______ _____ _____    ______ ____
ROOT
ATOM      1  O   UNL     1      33.758 -15.569 -26.312  0.00  0.00    -0.257 OA
ATOM      2  N   UNL     1      34.236 -14.844 -23.650  0.00  0.00    -0.254 NA
ATOM      3  N   UNL     1      33.940 -16.525 -25.319  0.00  0.00    -0.247 N 
ATOM      4  C   UNL     1      33.836 -13.856 -24.663  0.00  0.00    +0.117 C 
ATOM      5  C   UNL     1      32.988 -14.514 -25.742  0.00  0.00    +0.196 C 
ATOM      6  C   UNL     1      34.266 -16.079 -24.050  0.00  0.00    +0.157 C 
ATOM      7  H   UNL     1      33.841 -17.485 -25.512  0.00  0.00    +0.196 HD
ENDROOT
BRANCH   6   9
ATOM      8  N   UNL     1      35.348 -17.603 -20.778  0.00  0.00    -0.242 NA
ATOM      9  C   UNL     1      34.673 -17.104 -23.035  0.00  0.00    +0.054 C 
ATOM     10  C   UNL     1      34.758 -18.442 -23.378  0.00  0.00    +0.006 C 
ATOM     11  C   UNL     1      34.974 -16.731 -21.740  0.00  0.00    +0.102 C 
ATOM     12  C   UNL     1      35.141 -19.370 -22.414  0.00  0.00    +0.021 C 
ATOM     13  C   UNL     1      35.422 -18.903 -21.141  0.00  0.00    +0.099 C 
ENDBRANCH   6   9
BRANCH   4  14
ATOM     14  C   UNL     1      33.078 -12.735 -23.968  0.00  0.00    -0.050 C 
BRANCH  14  15
ATOM     15  N   UNL     1      33.879 -11.512 -23.909  0.00  0.00    +0.388 N 
ATOM     16  C   UNL     1      33.062 -10.384 -23.443  0.00  0.00    -0.077 C 
ATOM     17  C   UNL     1      34.480 -11.228 -25.219  0.00  0.00    -0.077 C 
ATOM     18  C   UNL     1      33.897  -9.108 -23.328  0.00  0.00    -0.023 C 
ATOM     19  C   UNL     1      35.363  -9.980 -25.163  0.00  0.00    -0.023 C 
ATOM     20  C   UNL     1      34.585  -8.775 -24.647  0.00  0.00    -0.004 C 
ATOM     21  H   UNL     1      34.636 -11.650 -23.238  0.00  0.00    -0.080 HD
ENDBRANCH  14  15
ENDBRANCH   4  14
TORSDOF 3
ENDMDL
MODEL 5
REMARK VINA RESULT:      -8.8      3.534      8.610
REMARK  Name = 6421776
REMARK  3 active torsions:
REMARK  status: ('A' for Active; 'I' for Inactive)
REMARK    1  A    between atoms: C_4  and  C_14
REMARK    2  A    between atoms: C_6  and  C_9
REMARK    3  A    between atoms: C_14  and  N_15
REMARK                            x       y       z     vdW  Elec       q    Type
REMARK                         _______ _______ _______ _____ _____    ______ ____
ROOT
ATOM      1  O   UNL     1      33.769 -16.508 -25.687  0.00  0.00    -0.257 OA
ATOM      2  N   UNL     1      33.967 -15.597 -23.046  0.00  0.00    -0.254 NA
ATOM      3  N   UNL     1      33.620 -15.163 -25.368  0.00  0.00    -0.247 N 
ATOM      4  C   UNL     1      34.329 -16.972 -23.422  0.00  0.00    +0.117 C 
ATOM      5  C   UNL     1      34.815 -17.020 -24.864  0.00  0.00    +0.196 C 
ATOM      6  C   UNL     1      33.637 -14.815 -24.030  0.00  0.00    +0.157 C 
ATOM      7  H   UNL     1      33.504 -14.484 -26.071  0.00  0.00    +0.196 HD
ENDROOT
BRANCH   6   9
ATOM      8  N   UNL     1      31.945 -11.918 -22.314  0.00  0.00    -0.242 NA
ATOM      9  C   UNL     1      33.261 -13.409 -23.670  0.00  0.00    +0.054 C 
ATOM     10  C   UNL     1      33.842 -12.335 -24.323  0.00  0.00    +0.006 C 
ATOM     11  C   UNL     1      32.328 -13.159 -22.685  0.00  0.00    +0.102 C 
ATOM     12  C   UNL     1      33.472 -11.042 -23.969  0.00  0.00    +0.021 C 
ATOM     13  C   UNL     1      32.528 -10.888 -22.967  0.00  0.00    +0.099 C 
ENDBRANCH   6   9
BRANCH   4  14
ATOM     14  C   UNL     1      35.399 -17.467 -22.460  0.00  0.00    -0.050 C 
BRANCH  14  15
ATOM     15  N   UNL     1      35.071 -18.796 -21.943  0.00  0.00    +0.388 N 
ATOM     16  C   UNL     1      33.762 -18.780 -21.276  0.00  0.00    -0.077 C 
ATOM     17  C   UNL     1      36.125 -19.267 -21.033  0.00  0.00    -0.077 C 
ATOM     18  C   UNL     1      33.381 -20.173 -20.773  0.00  0.00    -0.023 C 
ATOM     19  C   UNL     1      35.822 -20.677 -20.522  0.00  0.00    -0.023 C 
ATOM     20  C   UNL     1      34.455 -20.741 -19.852  0.00  0.00    -0.004 C 
ATOM     21  H   UNL     1      35.017 -19.447 -22.726  0.00  0.00    -0.080 HD
ENDBRANCH  14  15
ENDBRANCH   4  14
TORSDOF 3
ENDMDL
MODEL 6
REMARK VINA RESULT:      -8.5      3.583      6.100
REMARK  Name = 6421776
REMARK  3 active torsions:
REMARK  status: ('A' for Active; 'I' for Inactive)
REMARK    1  A    between atoms: C_4  and  C_14
REMARK    2  A    between atoms: C_6  and  C_9
REMARK    3  A    between atoms: C_14  and  N_15
REMARK                            x       y       z     vdW  Elec       q    Type
REMARK                         _______ _______ _______ _____ _____    ______ ____
ROOT
ATOM      1  O   UNL     1      35.022 -16.726 -25.285  0.00  0.00    -0.257 OA
ATOM      2  N   UNL     1      34.313 -16.298 -22.609  0.00  0.00    -0.254 NA
ATOM      3  N   UNL     1      35.069 -17.751 -24.347  0.00  0.00    -0.247 N 
ATOM      4  C   UNL     1      34.069 -15.286 -23.648  0.00  0.00    +0.117 C 
ATOM      5  C   UNL     1      33.859 -15.951 -25.001  0.00  0.00    +0.196 C 
ATOM      6  C   UNL     1      34.794 -17.429 -23.030  0.00  0.00    +0.157 C 
ATOM      7  H   UNL     1      35.291 -18.673 -24.611  0.00  0.00    +0.196 HD
ENDROOT
BRANCH   6   9
ATOM      8  N   UNL     1      36.591 -19.501 -20.445  0.00  0.00    -0.242 NA
ATOM      9  C   UNL     1      35.053 -18.476 -21.988  0.00  0.00    +0.054 C 
ATOM     10  C   UNL     1      34.055 -19.357 -21.610  0.00  0.00    +0.006 C 
ATOM     11  C   UNL     1      36.292 -18.581 -21.389  0.00  0.00    +0.102 C 
ATOM     12  C   UNL     1      34.325 -20.319 -20.642  0.00  0.00    +0.021 C 
ATOM     13  C   UNL     1      35.597 -20.348 -20.095  0.00  0.00    +0.099 C 
ENDBRANCH   6   9
BRANCH   4  14
ATOM     14  C   UNL     1      32.856 -14.462 -23.241  0.00  0.00    -0.050 C 
BRANCH  14  15
ATOM     15  N   UNL     1      33.204 -13.050 -23.085  0.00  0.00    +0.388 N 
ATOM     16  C   UNL     1      32.063 -12.295 -22.548  0.00  0.00    -0.077 C 
ATOM     17  C   UNL     1      33.658 -12.488 -24.365  0.00  0.00    -0.077 C 
ATOM     18  C   UNL     1      32.427 -10.826 -22.332  0.00  0.00    -0.023 C 
ATOM     19  C   UNL     1      34.074 -11.024 -24.209  0.00  0.00    -0.023 C 
ATOM     20  C   UNL     1      32.946 -10.188 -23.616  0.00  0.00    -0.004 C 
ATOM     21  H   UNL     1      33.973 -12.975 -22.418  0.00  0.00    -0.080 HD
ENDBRANCH  14  15
ENDBRANCH   4  14
TORSDOF 3
ENDMDL
MODEL 7
REMARK VINA RESULT:      -8.4      4.667      8.742
REMARK  Name = 6421776
REMARK  3 active torsions:
REMARK  status: ('A' for Active; 'I' for Inactive)
REMARK    1  A    between atoms: C_4  and  C_14
REMARK    2  A    between atoms: C_6  and  C_9
REMARK    3  A    between atoms: C_14  and  N_15
REMARK                            x       y       z     vdW  Elec       q    Type
REMARK                         _______ _______ _______ _____ _____    ______ ____
ROOT
ATOM      1  O   UNL     1      32.112 -13.380 -21.176  0.00  0.00    -0.257 OA
ATOM      2  N   UNL     1      34.246 -14.479 -22.618  0.00  0.00    -0.254 NA
ATOM      3  N   UNL     1      32.120 -13.395 -22.567  0.00  0.00    -0.247 N 
ATOM      4  C   UNL     1      34.127 -14.645 -21.162  0.00  0.00    +0.117 C 
ATOM      5  C   UNL     1      32.664 -14.621 -20.741  0.00  0.00    +0.196 C 
ATOM      6  C   UNL     1      33.256 -13.870 -23.197  0.00  0.00    +0.157 C 
ATOM      7  H   UNL     1      31.345 -13.076 -23.083  0.00  0.00    +0.196 HD
ENDROOT
BRANCH   6   9
ATOM      8  N   UNL     1      33.329 -14.672 -26.878  0.00  0.00    -0.242 NA
ATOM      9  C   UNL     1      33.357 -13.687 -24.682  0.00  0.00    +0.054 C 
ATOM     10  C   UNL     1      33.565 -12.431 -25.225  0.00  0.00    +0.006 C 
ATOM     11  C   UNL     1      33.247 -14.767 -25.533  0.00  0.00    +0.102 C 
ATOM     12  C   UNL     1      33.657 -12.293 -26.606  0.00  0.00    +0.021 C 
ATOM     13  C   UNL     1      33.532 -13.434 -27.382  0.00  0.00    +0.099 C 
ENDBRANCH   6   9
BRANCH   4  14
ATOM     14  C   UNL     1      34.794 -15.956 -20.771  0.00  0.00    -0.050 C 
BRANCH  14  15
ATOM     15  N   UNL     1      34.478 -17.016 -21.727  0.00  0.00    +0.388 N 
ATOM     16  C   UNL     1      34.505 -18.329 -21.067  0.00  0.00    -0.077 C 
ATOM     17  C   UNL     1      35.407 -16.974 -22.865  0.00  0.00    -0.077 C 
ATOM     18  C   UNL     1      34.128 -19.444 -22.043  0.00  0.00    -0.023 C 
ATOM     19  C   UNL     1      35.060 -18.046 -23.901  0.00  0.00    -0.023 C 
ATOM     20  C   UNL     1      35.030 -19.434 -23.272  0.00  0.00    -0.004 C 
ATOM     21  H   UNL     1      33.535 -16.863 -22.085  0.00  0.00    -0.080 HD
ENDBRANCH  14  15
ENDBRANCH   4  14
TORSDOF 3
ENDMDL
MODEL 8
REMARK VINA RESULT:      -8.3      3.878      5.834
REMARK  Name = 6421776
REMARK  3 active torsions:
REMARK  status: ('A' for Active; 'I' for Inactive)
REMARK    1  A    between atoms: C_4  and  C_14
REMARK    2  A    between atoms: C_6  and  C_9
REMARK    3  A    between atoms: C_14  and  N_15
REMARK                            x       y       z     vdW  Elec       q    Type
REMARK                         _______ _______ _______ _____ _____    ______ ____
ROOT
ATOM      1  O   UNL     1      35.559 -15.946 -23.628  0.00  0.00    -0.257 OA
ATOM      2  N   UNL     1      34.143 -16.531 -21.284  0.00  0.00    -0.254 NA
ATOM      3  N   UNL     1      35.556 -17.224 -23.079  0.00  0.00    -0.247 N 
ATOM      4  C   UNL     1      33.986 -15.248 -21.985  0.00  0.00    +0.117 C 
ATOM      5  C   UNL     1      34.242 -15.422 -23.476  0.00  0.00    +0.196 C 
ATOM      6  C   UNL     1      34.910 -17.401 -21.869  0.00  0.00    +0.157 C 
ATOM      7  H   UNL     1      35.999 -17.974 -23.536  0.00  0.00    +0.196 HD
ENDROOT
BRANCH   6   9
ATOM      8  N   UNL     1      34.084 -20.682 -20.209  0.00  0.00    -0.242 NA
ATOM      9  C   UNL     1      35.087 -18.716 -21.171  0.00  0.00    +0.054 C 
ATOM     10  C   UNL     1      36.351 -19.176 -20.844  0.00  0.00    +0.006 C 
ATOM     11  C   UNL     1      33.994 -19.490 -20.839  0.00  0.00    +0.102 C 
ATOM     12  C   UNL     1      36.484 -20.399 -20.194  0.00  0.00    +0.021 C 
ATOM     13  C   UNL     1      35.330 -21.107 -19.902  0.00  0.00    +0.099 C 
ENDBRANCH   6   9
BRANCH   4  14
ATOM     14  C   UNL     1      32.581 -14.725 -21.721  0.00  0.00    -0.050 C 
BRANCH  14  15
ATOM     15  N   UNL     1      32.589 -13.279 -21.502  0.00  0.00    +0.388 N 
ATOM     16  C   UNL     1      31.821 -12.938 -20.296  0.00  0.00    -0.077 C 
ATOM     17  C   UNL     1      32.063 -12.578 -22.681  0.00  0.00    -0.077 C 
ATOM     18  C   UNL     1      31.860 -11.434 -20.024  0.00  0.00    -0.023 C 
ATOM     19  C   UNL     1      32.110 -11.061 -22.488  0.00  0.00    -0.023 C 
ATOM     20  C   UNL     1      31.365 -10.640 -21.227  0.00  0.00    -0.004 C 
ATOM     21  H   UNL     1      33.552 -12.975 -21.358  0.00  0.00    -0.080 HD
ENDBRANCH  14  15
ENDBRANCH   4  14
TORSDOF 3
ENDMDL
MODEL 9
REMARK VINA RESULT:      -8.3      9.021     13.378
REMARK  Name = 6421776
REMARK  3 active torsions:
REMARK  status: ('A' for Active; 'I' for Inactive)
REMARK    1  A    between atoms: C_4  and  C_14
REMARK    2  A    between atoms: C_6  and  C_9
REMARK    3  A    between atoms: C_14  and  N_15
REMARK                            x       y       z     vdW  Elec       q    Type
REMARK                         _______ _______ _______ _____ _____    ______ ____
ROOT
ATOM      1  O   UNL     1      32.634  -8.670 -19.682  0.00  0.00    -0.257 OA
ATOM      2  N   UNL     1      31.703  -8.890 -22.315  0.00  0.00    -0.254 NA
ATOM      3  N   UNL     1      32.234  -7.554 -20.408  0.00  0.00    -0.247 N 
ATOM      4  C   UNL     1      31.928 -10.072 -21.471  0.00  0.00    +0.117 C 
ATOM      5  C   UNL     1      31.728  -9.724 -20.002  0.00  0.00    +0.196 C 
ATOM      6  C   UNL     1      31.879  -7.742 -21.732  0.00  0.00    +0.157 C 
ATOM      7  H   UNL     1      32.206  -6.661 -19.995  0.00  0.00    +0.196 HD
ENDROOT
BRANCH   6   9
ATOM      8  N   UNL     1      30.542  -4.410 -22.878  0.00  0.00    -0.242 NA
ATOM      9  C   UNL     1      31.658  -6.522 -22.575  0.00  0.00    +0.054 C 
ATOM     10  C   UNL     1      32.323  -6.366 -23.779  0.00  0.00    +0.006 C 
ATOM     11  C   UNL     1      30.787  -5.533 -22.166  0.00  0.00    +0.102 C 
ATOM     12  C   UNL     1      32.096  -5.224 -24.540  0.00  0.00    +0.021 C 
ATOM     13  C   UNL     1      31.205  -4.284 -24.049  0.00  0.00    +0.099 C 
ENDBRANCH   6   9
BRANCH   4  14
ATOM     14  C   UNL     1      30.972 -11.169 -21.915  0.00  0.00    -0.050 C 
BRANCH  14  15
ATOM     15  N   UNL     1      31.699 -12.366 -22.337  0.00  0.00    +0.388 N 
ATOM     16  C   UNL     1      32.116 -13.153 -21.168  0.00  0.00    -0.077 C 
ATOM     17  C   UNL     1      32.853 -11.999 -23.169  0.00  0.00    -0.077 C 
ATOM     18  C   UNL     1      32.835 -14.434 -21.593  0.00  0.00    -0.023 C 
ATOM     19  C   UNL     1      33.597 -13.242 -23.661  0.00  0.00    -0.023 C 
ATOM     20  C   UNL     1      34.025 -14.128 -22.496  0.00  0.00    -0.004 C 
ATOM     21  H   UNL     1      31.076 -12.945 -22.901  0.00  0.00    -0.080 HD
ENDBRANCH  14  15
ENDBRANCH   4  14
TORSDOF 3
ENDMDL
