MODEL 1
REMARK VINA RESULT:      -6.2      0.000      0.000
REMARK  Name = 447845
REMARK  4 active torsions:
REMARK  status: ('A' for Active; 'I' for Inactive)
REMARK    1  A    between atoms: C_2  and  N_8
REMARK    2  A    between atoms: C_3  and  O_12
REMARK    3  A    between atoms: C_5  and  O_14
REMARK    4  A    between atoms: C_6  and  O_16
REMARK                            x       y       z     vdW  Elec       q    Type
REMARK                         _______ _______ _______ _____ _____    ______ ____
ROOT
ATOM      1  O   UNL     1      35.576 -25.527 -15.653  0.00  0.00    -0.333 OA
ATOM      2  C   UNL     1      36.482 -23.962 -14.030  0.00  0.00    -0.008 C 
ATOM      3  C   UNL     1      37.603 -24.960 -13.699  0.00  0.00    +0.125 C 
ATOM      4  C   UNL     1      35.232 -24.711 -14.526  0.00  0.00    +0.101 C 
ATOM      5  C   UNL     1      37.826 -25.938 -14.853  0.00  0.00    +0.192 C 
ATOM      6  C   UNL     1      36.510 -26.552 -15.325  0.00  0.00    +0.262 C 
ATOM      7  C   UNL     1      34.122 -23.772 -14.993  0.00  0.00    +0.030 C 
ENDROOT
BRANCH   2   8
ATOM      8  N   UNL     1      36.202 -23.142 -12.848  0.00  0.00    +0.385 N 
ATOM      9  H   UNL     1      36.696 -22.253 -12.927  0.00  0.00    -0.089 HD
ATOM     10  H   UNL     1      36.516 -23.634 -12.011  0.00  0.00    -0.089 HD
ATOM     11  H   UNL     1      35.200 -22.969 -12.785  0.00  0.00    -0.089 HD
ENDBRANCH   2   8
BRANCH   3  12
ATOM     12  O   UNL     1      38.815 -24.239 -13.469  0.00  0.00    -0.384 OA
ATOM     13  H   UNL     1      38.614 -23.297 -13.357  0.00  0.00    +0.210 HD
ENDBRANCH   3  12
BRANCH   5  14
ATOM     14  O   UNL     1      38.697 -26.974 -14.401  0.00  0.00    -0.378 OA
ATOM     15  H   UNL     1      39.508 -26.971 -14.935  0.00  0.00    +0.211 HD
ENDBRANCH   5  14
BRANCH   6  16
ATOM     16  O   UNL     1      36.786 -27.342 -16.480  0.00  0.00    -0.358 OA
ATOM     17  H   UNL     1      36.998 -28.249 -16.209  0.00  0.00    +0.213 HD
ENDBRANCH   6  16
TORSDOF 4
ENDMDL
MODEL 2
REMARK VINA RESULT:      -5.9      2.362      4.488
REMARK  Name = 447845
REMARK  4 active torsions:
REMARK  status: ('A' for Active; 'I' for Inactive)
REMARK    1  A    between atoms: C_2  and  N_8
REMARK    2  A    between atoms: C_3  and  O_12
REMARK    3  A    between atoms: C_5  and  O_14
REMARK    4  A    between atoms: C_6  and  O_16
REMARK                            x       y       z     vdW  Elec       q    Type
REMARK                         _______ _______ _______ _____ _____    ______ ____
ROOT
ATOM      1  O   UNL     1      38.513 -24.068 -12.574  0.00  0.00    -0.333 OA
ATOM      2  C   UNL     1      37.407 -25.087 -14.483  0.00  0.00    -0.008 C 
ATOM      3  C   UNL     1      36.041 -24.794 -13.843  0.00  0.00    +0.125 C 
ATOM      4  C   UNL     1      38.483 -25.244 -13.394  0.00  0.00    +0.101 C 
ATOM      5  C   UNL     1      36.141 -23.649 -12.835  0.00  0.00    +0.192 C 
ATOM      6  C   UNL     1      37.297 -23.864 -11.860  0.00  0.00    +0.262 C 
ATOM      7  C   UNL     1      39.889 -25.412 -13.965  0.00  0.00    +0.030 C 
ENDROOT
BRANCH   2   8
ATOM      8  N   UNL     1      37.298 -26.278 -15.328  0.00  0.00    +0.385 N 
ATOM      9  H   UNL     1      37.550 -26.039 -16.287  0.00  0.00    -0.089 HD
ATOM     10  H   UNL     1      36.338 -26.625 -15.305  0.00  0.00    -0.089 HD
ATOM     11  H   UNL     1      37.928 -27.000 -14.981  0.00  0.00    -0.089 HD
ENDBRANCH   2   8
BRANCH   3  12
ATOM     12  O   UNL     1      35.117 -24.422 -14.867  0.00  0.00    -0.384 OA
ATOM     13  H   UNL     1      35.573 -23.886 -15.535  0.00  0.00    +0.210 HD
ENDBRANCH   3  12
BRANCH   5  14
ATOM     14  O   UNL     1      34.915 -23.583 -12.108  0.00  0.00    -0.378 OA
ATOM     15  H   UNL     1      35.077 -23.196 -11.233  0.00  0.00    +0.211 HD
ENDBRANCH   5  14
BRANCH   6  16
ATOM     16  O   UNL     1      37.405 -22.698 -11.046  0.00  0.00    -0.358 OA
ATOM     17  H   UNL     1      38.115 -22.822 -10.397  0.00  0.00    +0.213 HD
ENDBRANCH   6  16
TORSDOF 4
ENDMDL
MODEL 3
REMARK VINA RESULT:      -5.9      2.513      3.419
REMARK  Name = 447845
REMARK  4 active torsions:
REMARK  status: ('A' for Active; 'I' for Inactive)
REMARK    1  A    between atoms: C_2  and  N_8
REMARK    2  A    between atoms: C_3  and  O_12
REMARK    3  A    between atoms: C_5  and  O_14
REMARK    4  A    between atoms: C_6  and  O_16
REMARK                            x       y       z     vdW  Elec       q    Type
REMARK                         _______ _______ _______ _____ _____    ______ ____
ROOT
ATOM      1  O   UNL     1      35.876 -23.113 -14.096  0.00  0.00    -0.333 OA
ATOM      2  C   UNL     1      37.646 -24.595 -14.856  0.00  0.00    -0.008 C 
ATOM      3  C   UNL     1      37.616 -25.319 -13.500  0.00  0.00    +0.125 C 
ATOM      4  C   UNL     1      37.180 -23.137 -14.691  0.00  0.00    +0.101 C 
ATOM      5  C   UNL     1      36.268 -25.124 -12.803  0.00  0.00    +0.192 C 
ATOM      6  C   UNL     1      35.863 -23.652 -12.777  0.00  0.00    +0.262 C 
ATOM      7  C   UNL     1      37.066 -22.395 -16.021  0.00  0.00    +0.030 C 
ENDROOT
BRANCH   2   8
ATOM      8  N   UNL     1      38.994 -24.685 -15.420  0.00  0.00    +0.385 N 
ATOM      9  H   UNL     1      39.296 -23.761 -15.729  0.00  0.00    -0.089 HD
ATOM     10  H   UNL     1      38.988 -25.325 -16.215  0.00  0.00    -0.089 HD
ATOM     11  H   UNL     1      39.638 -25.032 -14.709  0.00  0.00    -0.089 HD
ENDBRANCH   2   8
BRANCH   3  12
ATOM     12  O   UNL     1      37.821 -26.717 -13.714  0.00  0.00    -0.384 OA
ATOM     13  H   UNL     1      38.744 -26.942 -13.515  0.00  0.00    +0.210 HD
ENDBRANCH   3  12
BRANCH   5  14
ATOM     14  O   UNL     1      36.382 -25.608 -11.466  0.00  0.00    -0.378 OA
ATOM     15  H   UNL     1      36.122 -24.908 -10.845  0.00  0.00    +0.211 HD
ENDBRANCH   5  14
BRANCH   6  16
ATOM     16  O   UNL     1      34.546 -23.570 -12.235  0.00  0.00    -0.358 OA
ATOM     17  H   UNL     1      33.911 -23.935 -12.871  0.00  0.00    +0.213 HD
ENDBRANCH   6  16
TORSDOF 4
ENDMDL
MODEL 4
REMARK VINA RESULT:      -5.9      2.969      4.049
REMARK  Name = 447845
REMARK  4 active torsions:
REMARK  status: ('A' for Active; 'I' for Inactive)
REMARK    1  A    between atoms: C_2  and  N_8
REMARK    2  A    between atoms: C_3  and  O_12
REMARK    3  A    between atoms: C_5  and  O_14
REMARK    4  A    between atoms: C_6  and  O_16
REMARK                            x       y       z     vdW  Elec       q    Type
REMARK                         _______ _______ _______ _____ _____    ______ ____
ROOT
ATOM      1  O   UNL     1      37.796 -22.979 -13.743  0.00  0.00    -0.333 OA
ATOM      2  C   UNL     1      35.467 -23.327 -14.344  0.00  0.00    -0.008 C 
ATOM      3  C   UNL     1      35.221 -23.999 -12.984  0.00  0.00    +0.125 C 
ATOM      4  C   UNL     1      36.937 -23.501 -14.765  0.00  0.00    +0.101 C 
ATOM      5  C   UNL     1      36.265 -23.560 -11.957  0.00  0.00    +0.192 C 
ATOM      6  C   UNL     1      37.681 -23.689 -12.513  0.00  0.00    +0.262 C 
ATOM      7  C   UNL     1      37.282 -22.749 -16.049  0.00  0.00    +0.030 C 
ENDROOT
BRANCH   2   8
ATOM      8  N   UNL     1      34.539 -23.884 -15.332  0.00  0.00    +0.385 N 
ATOM      9  H   UNL     1      34.148 -24.756 -14.977  0.00  0.00    -0.089 HD
ATOM     10  H   UNL     1      35.038 -24.063 -16.203  0.00  0.00    -0.089 HD
ATOM     11  H   UNL     1      33.785 -23.218 -15.502  0.00  0.00    -0.089 HD
ENDBRANCH   2   8
BRANCH   3  12
ATOM     12  O   UNL     1      33.926 -23.626 -12.508  0.00  0.00    -0.384 OA
ATOM     13  H   UNL     1      33.338 -23.466 -13.263  0.00  0.00    +0.210 HD
ENDBRANCH   3  12
BRANCH   5  14
ATOM     14  O   UNL     1      36.132 -24.386 -10.801  0.00  0.00    -0.378 OA
ATOM     15  H   UNL     1      35.298 -24.179 -10.350  0.00  0.00    +0.211 HD
ENDBRANCH   5  14
BRANCH   6  16
ATOM     16  O   UNL     1      38.580 -23.138 -11.552  0.00  0.00    -0.358 OA
ATOM     17  H   UNL     1      38.158 -23.134 -10.679  0.00  0.00    +0.213 HD
ENDBRANCH   6  16
TORSDOF 4
ENDMDL
MODEL 5
REMARK VINA RESULT:      -5.9     10.598     11.914
REMARK  Name = 447845
REMARK  4 active torsions:
REMARK  status: ('A' for Active; 'I' for Inactive)
REMARK    1  A    between atoms: C_2  and  N_8
REMARK    2  A    between atoms: C_3  and  O_12
REMARK    3  A    between atoms: C_5  and  O_14
REMARK    4  A    between atoms: C_6  and  O_16
REMARK                            x       y       z     vdW  Elec       q    Type
REMARK                         _______ _______ _______ _____ _____    ______ ____
ROOT
ATOM      1  O   UNL     1      35.224 -17.453 -20.694  0.00  0.00    -0.333 OA
ATOM      2  C   UNL     1      35.312 -18.325 -22.960  0.00  0.00    -0.008 C 
ATOM      3  C   UNL     1      34.702 -17.015 -23.483  0.00  0.00    +0.125 C 
ATOM      4  C   UNL     1      34.867 -18.577 -21.508  0.00  0.00    +0.101 C 
ATOM      5  C   UNL     1      34.943 -15.867 -22.503  0.00  0.00    +0.192 C 
ATOM      6  C   UNL     1      34.552 -16.258 -21.080  0.00  0.00    +0.262 C 
ATOM      7  C   UNL     1      35.539 -19.798 -20.883  0.00  0.00    +0.030 C 
ENDROOT
BRANCH   2   8
ATOM      8  N   UNL     1      34.935 -19.423 -23.853  0.00  0.00    +0.385 N 
ATOM      9  H   UNL     1      34.210 -19.988 -23.410  0.00  0.00    -0.089 HD
ATOM     10  H   UNL     1      35.752 -20.005 -24.041  0.00  0.00    -0.089 HD
ATOM     11  H   UNL     1      34.580 -19.041 -24.729  0.00  0.00    -0.089 HD
ENDBRANCH   2   8
BRANCH   3  12
ATOM     12  O   UNL     1      35.310 -16.685 -24.733  0.00  0.00    -0.384 OA
ATOM     13  H   UNL     1      35.217 -17.432 -25.345  0.00  0.00    +0.210 HD
ENDBRANCH   3  12
BRANCH   5  14
ATOM     14  O   UNL     1      34.159 -14.750 -22.920  0.00  0.00    -0.378 OA
ATOM     15  H   UNL     1      33.756 -14.941 -23.782  0.00  0.00    +0.211 HD
ENDBRANCH   5  14
BRANCH   6  16
ATOM     16  O   UNL     1      34.929 -15.190 -20.213  0.00  0.00    -0.358 OA
ATOM     17  H   UNL     1      34.358 -15.192 -19.429  0.00  0.00    +0.213 HD
ENDBRANCH   6  16
TORSDOF 4
ENDMDL
MODEL 6
REMARK VINA RESULT:      -5.8      2.136      2.919
REMARK  Name = 447845
REMARK  4 active torsions:
REMARK  status: ('A' for Active; 'I' for Inactive)
REMARK    1  A    between atoms: C_2  and  N_8
REMARK    2  A    between atoms: C_3  and  O_12
REMARK    3  A    between atoms: C_5  and  O_14
REMARK    4  A    between atoms: C_6  and  O_16
REMARK                            x       y       z     vdW  Elec       q    Type
REMARK                         _______ _______ _______ _____ _____    ______ ____
ROOT
ATOM      1  O   UNL     1      38.263 -24.246 -14.520  0.00  0.00    -0.333 OA
ATOM      2  C   UNL     1      36.062 -23.368 -13.986  0.00  0.00    -0.008 C 
ATOM      3  C   UNL     1      35.792 -24.594 -13.100  0.00  0.00    +0.125 C 
ATOM      4  C   UNL     1      37.060 -23.726 -15.101  0.00  0.00    +0.101 C 
ATOM      5  C   UNL     1      37.100 -25.238 -12.640  0.00  0.00    +0.192 C 
ATOM      6  C   UNL     1      38.051 -25.465 -13.814  0.00  0.00    +0.262 C 
ATOM      7  C   UNL     1      37.471 -22.520 -15.943  0.00  0.00    +0.030 C 
ENDROOT
BRANCH   2   8
ATOM      8  N   UNL     1      34.792 -22.871 -14.520  0.00  0.00    +0.385 N 
ATOM      9  H   UNL     1      34.369 -22.227 -13.851  0.00  0.00    -0.089 HD
ATOM     10  H   UNL     1      34.160 -23.655 -14.683  0.00  0.00    -0.089 HD
ATOM     11  H   UNL     1      34.961 -22.382 -15.399  0.00  0.00    -0.089 HD
ENDBRANCH   2   8
BRANCH   3  12
ATOM     12  O   UNL     1      35.055 -24.182 -11.947  0.00  0.00    -0.384 OA
ATOM     13  H   UNL     1      34.114 -24.375 -12.078  0.00  0.00    +0.210 HD
ENDBRANCH   3  12
BRANCH   5  14
ATOM     14  O   UNL     1      36.793 -26.491 -12.030  0.00  0.00    -0.378 OA
ATOM     15  H   UNL     1      36.038 -26.896 -12.486  0.00  0.00    +0.211 HD
ENDBRANCH   5  14
BRANCH   6  16
ATOM     16  O   UNL     1      39.289 -25.941 -13.288  0.00  0.00    -0.358 OA
ATOM     17  H   UNL     1      39.133 -26.749 -12.775  0.00  0.00    +0.213 HD
ENDBRANCH   6  16
TORSDOF 4
ENDMDL
MODEL 7
REMARK VINA RESULT:      -5.7     12.435     13.565
REMARK  Name = 447845
REMARK  4 active torsions:
REMARK  status: ('A' for Active; 'I' for Inactive)
REMARK    1  A    between atoms: C_2  and  N_8
REMARK    2  A    between atoms: C_3  and  O_12
REMARK    3  A    between atoms: C_5  and  O_14
REMARK    4  A    between atoms: C_6  and  O_16
REMARK                            x       y       z     vdW  Elec       q    Type
REMARK                         _______ _______ _______ _____ _____    ______ ____
ROOT
ATOM      1  O   UNL     1      33.460 -14.581 -24.431  0.00  0.00    -0.333 OA
ATOM      2  C   UNL     1      34.572 -15.710 -22.589  0.00  0.00    -0.008 C 
ATOM      3  C   UNL     1      34.775 -16.948 -23.476  0.00  0.00    +0.125 C 
ATOM      4  C   UNL     1      33.328 -14.926 -23.046  0.00  0.00    +0.101 C 
ATOM      5  C   UNL     1      34.730 -16.575 -24.959  0.00  0.00    +0.192 C 
ATOM      6  C   UNL     1      33.504 -15.723 -25.281  0.00  0.00    +0.262 C 
ATOM      7  C   UNL     1      33.139 -13.615 -22.287  0.00  0.00    +0.030 C 
ENDROOT
BRANCH   2   8
ATOM      8  N   UNL     1      34.477 -16.130 -21.189  0.00  0.00    +0.385 N 
ATOM      9  H   UNL     1      34.947 -15.447 -20.596  0.00  0.00    -0.089 HD
ATOM     10  H   UNL     1      34.922 -17.042 -21.077  0.00  0.00    -0.089 HD
ATOM     11  H   UNL     1      33.495 -16.195 -20.920  0.00  0.00    -0.089 HD
ENDBRANCH   2   8
BRANCH   3  12
ATOM     12  O   UNL     1      36.051 -17.523 -23.188  0.00  0.00    -0.384 OA
ATOM     13  H   UNL     1      36.071 -17.819 -22.265  0.00  0.00    +0.210 HD
ENDBRANCH   3  12
BRANCH   5  14
ATOM     14  O   UNL     1      34.684 -17.780 -25.722  0.00  0.00    -0.378 OA
ATOM     15  H   UNL     1      35.513 -18.270 -25.604  0.00  0.00    +0.211 HD
ENDBRANCH   5  14
BRANCH   6  16
ATOM     16  O   UNL     1      33.606 -15.309 -26.642  0.00  0.00    -0.358 OA
ATOM     17  H   UNL     1      33.005 -15.840 -27.187  0.00  0.00    +0.213 HD
ENDBRANCH   6  16
TORSDOF 4
ENDMDL
MODEL 8
REMARK VINA RESULT:      -5.7     13.033     14.255
REMARK  Name = 447845
REMARK  4 active torsions:
REMARK  status: ('A' for Active; 'I' for Inactive)
REMARK    1  A    between atoms: C_2  and  N_8
REMARK    2  A    between atoms: C_3  and  O_12
REMARK    3  A    between atoms: C_5  and  O_14
REMARK    4  A    between atoms: C_6  and  O_16
REMARK                            x       y       z     vdW  Elec       q    Type
REMARK                         _______ _______ _______ _____ _____    ______ ____
ROOT
ATOM      1  O   UNL     1      33.422 -16.695 -25.702  0.00  0.00    -0.333 OA
ATOM      2  C   UNL     1      34.620 -16.692 -23.588  0.00  0.00    -0.008 C 
ATOM      3  C   UNL     1      34.589 -15.156 -23.576  0.00  0.00    +0.125 C 
ATOM      4  C   UNL     1      34.580 -17.215 -25.035  0.00  0.00    +0.101 C 
ATOM      5  C   UNL     1      33.449 -14.623 -24.446  0.00  0.00    +0.192 C 
ATOM      6  C   UNL     1      33.450 -15.276 -25.826  0.00  0.00    +0.262 C 
ATOM      7  C   UNL     1      34.481 -18.737 -25.116  0.00  0.00    +0.030 C 
ENDROOT
BRANCH   2   8
ATOM      8  N   UNL     1      35.807 -17.156 -22.865  0.00  0.00    +0.385 N 
ATOM      9  H   UNL     1      35.526 -17.802 -22.127  0.00  0.00    -0.089 HD
ATOM     10  H   UNL     1      36.288 -16.356 -22.453  0.00  0.00    -0.089 HD
ATOM     11  H   UNL     1      36.434 -17.632 -23.513  0.00  0.00    -0.089 HD
ENDBRANCH   2   8
BRANCH   3  12
ATOM     12  O   UNL     1      34.390 -14.704 -22.235  0.00  0.00    -0.384 OA
ATOM     13  H   UNL     1      34.115 -15.451 -21.680  0.00  0.00    +0.210 HD
ENDBRANCH   3  12
BRANCH   5  14
ATOM     14  O   UNL     1      33.615 -13.213 -24.588  0.00  0.00    -0.378 OA
ATOM     15  H   UNL     1      33.804 -12.820 -23.720  0.00  0.00    +0.211 HD
ENDBRANCH   5  14
BRANCH   6  16
ATOM     16  O   UNL     1      32.289 -14.829 -26.523  0.00  0.00    -0.358 OA
ATOM     17  H   UNL     1      31.987 -13.989 -26.143  0.00  0.00    +0.213 HD
ENDBRANCH   6  16
TORSDOF 4
ENDMDL
MODEL 9
REMARK VINA RESULT:      -5.6     16.887     18.363
REMARK  Name = 447845
REMARK  4 active torsions:
REMARK  status: ('A' for Active; 'I' for Inactive)
REMARK    1  A    between atoms: C_2  and  N_8
REMARK    2  A    between atoms: C_3  and  O_12
REMARK    3  A    between atoms: C_5  and  O_14
REMARK    4  A    between atoms: C_6  and  O_16
REMARK                            x       y       z     vdW  Elec       q    Type
REMARK                         _______ _______ _______ _____ _____    ______ ____
ROOT
ATOM      1  O   UNL     1      32.393  -9.177 -19.503  0.00  0.00    -0.333 OA
ATOM      2  C   UNL     1      31.734 -10.347 -21.528  0.00  0.00    -0.008 C 
ATOM      3  C   UNL     1      31.775  -9.021 -22.303  0.00  0.00    +0.125 C 
ATOM      4  C   UNL     1      31.426 -10.086 -20.043  0.00  0.00    +0.101 C 
ATOM      5  C   UNL     1      32.678  -8.004 -21.604  0.00  0.00    +0.192 C 
ATOM      6  C   UNL     1      32.344  -7.893 -20.118  0.00  0.00    +0.262 C 
ATOM      7  C   UNL     1      31.494 -11.351 -19.189  0.00  0.00    +0.030 C 
ENDROOT
BRANCH   2   8
ATOM      8  N   UNL     1      30.751 -11.238 -22.149  0.00  0.00    +0.385 N 
ATOM      9  H   UNL     1      31.186 -11.737 -22.925  0.00  0.00    -0.089 HD
ATOM     10  H   UNL     1      29.965 -10.688 -22.496  0.00  0.00    -0.089 HD
ATOM     11  H   UNL     1      30.417 -11.910 -21.458  0.00  0.00    -0.089 HD
ENDBRANCH   2   8
BRANCH   3  12
ATOM     12  O   UNL     1      32.290  -9.264 -23.614  0.00  0.00    -0.384 OA
ATOM     13  H   UNL     1      32.522 -10.202 -23.701  0.00  0.00    +0.210 HD
ENDBRANCH   3  12
BRANCH   5  14
ATOM     14  O   UNL     1      32.490  -6.735 -22.228  0.00  0.00    -0.378 OA
ATOM     15  H   UNL     1      31.662  -6.742 -22.734  0.00  0.00    +0.211 HD
ENDBRANCH   5  14
BRANCH   6  16
ATOM     16  O   UNL     1      33.309  -7.032 -19.516  0.00  0.00    -0.358 OA
ATOM     17  H   UNL     1      33.056  -6.107 -19.665  0.00  0.00    +0.213 HD
ENDBRANCH   6  16
TORSDOF 4
ENDMDL
