MODEL 1
REMARK VINA RESULT:      -5.6      0.000      0.000
REMARK  Name = 10918
REMARK  6 active torsions:
REMARK  status: ('A' for Active; 'I' for Inactive)
REMARK    1  A    between atoms: C_1  and  O_2
REMARK    2  A    between atoms: C_1  and  C_4
REMARK    3  A    between atoms: C_1  and  C_9
REMARK    4  A    between atoms: C_4  and  N_5
REMARK    5  A    between atoms: C_9  and  C_11
REMARK    6  A    between atoms: C_11  and  O_12
REMARK                            x       y       z     vdW  Elec       q    Type
REMARK                         _______ _______ _______ _____ _____    ______ ____
ROOT
ATOM      1  C   UNL     1      38.178 -25.642 -14.037  0.00  0.00    +0.102 C 
ENDROOT
BRANCH   1   2
ATOM      2  O   UNL     1      38.180 -27.004 -14.468  0.00  0.00    -0.386 OA
ATOM      3  H   UNL     1      39.095 -27.298 -14.606  0.00  0.00    +0.210 HD
ENDBRANCH   1   2
BRANCH   1   4
ATOM      4  C   UNL     1      37.436 -25.533 -12.708  0.00  0.00    -0.043 C 
BRANCH   4   5
ATOM      5  N   UNL     1      36.606 -24.301 -12.698  0.00  0.00    +0.387 N 
ATOM      6  C   UNL     1      37.325 -23.167 -11.956  0.00  0.00    -0.096 C 
ATOM      7  C   UNL     1      36.317 -23.829 -14.129  0.00  0.00    -0.096 C 
ATOM      8  C   UNL     1      35.264 -24.556 -11.998  0.00  0.00    -0.096 C 
ENDBRANCH   4   5
ENDBRANCH   1   4
BRANCH   1   9
ATOM      9  C   UNL     1      39.635 -25.211 -13.869  0.00  0.00    +0.136 C 
BRANCH   9  11
ATOM     10  O   UNL     1      41.324 -26.920 -14.132  0.00  0.00    -0.250 OA
ATOM     11  C   UNL     1      40.563 -26.110 -14.647  0.00  0.00    +0.316 C 
BRANCH  11  12
ATOM     12  O   UNL     1      40.457 -25.934 -15.988  0.00  0.00    -0.480 OA
ATOM     13  H   UNL     1      39.910 -26.503 -16.493  0.00  0.00    +0.295 HD
ENDBRANCH  11  12
ENDBRANCH   9  11
ENDBRANCH   1   9
TORSDOF 6
ENDMDL
MODEL 2
REMARK VINA RESULT:      -5.3      1.328      1.759
REMARK  Name = 10918
REMARK  6 active torsions:
REMARK  status: ('A' for Active; 'I' for Inactive)
REMARK    1  A    between atoms: C_1  and  O_2
REMARK    2  A    between atoms: C_1  and  C_4
REMARK    3  A    between atoms: C_1  and  C_9
REMARK    4  A    between atoms: C_4  and  N_5
REMARK    5  A    between atoms: C_9  and  C_11
REMARK    6  A    between atoms: C_11  and  O_12
REMARK                            x       y       z     vdW  Elec       q    Type
REMARK                         _______ _______ _______ _____ _____    ______ ____
ROOT
ATOM      1  C   UNL     1      37.776 -25.537 -14.857  0.00  0.00    +0.102 C 
ENDROOT
BRANCH   1   2
ATOM      2  O   UNL     1      37.543 -26.597 -15.787  0.00  0.00    -0.386 OA
ATOM      3  H   UNL     1      37.391 -26.224 -16.670  0.00  0.00    +0.210 HD
ENDBRANCH   1   2
BRANCH   1   4
ATOM      4  C   UNL     1      36.584 -25.421 -13.913  0.00  0.00    -0.043 C 
BRANCH   4   5
ATOM      5  N   UNL     1      36.074 -24.026 -13.920  0.00  0.00    +0.387 N 
ATOM      6  C   UNL     1      36.720 -23.216 -15.052  0.00  0.00    -0.096 C 
ATOM      7  C   UNL     1      34.553 -24.003 -14.122  0.00  0.00    -0.096 C 
ATOM      8  C   UNL     1      36.390 -23.326 -12.591  0.00  0.00    -0.096 C 
ENDBRANCH   4   5
ENDBRANCH   1   4
BRANCH   1   9
ATOM      9  C   UNL     1      39.042 -25.883 -14.075  0.00  0.00    +0.136 C 
BRANCH   9  11
ATOM     10  O   UNL     1      40.614 -26.115 -15.897  0.00  0.00    -0.250 OA
ATOM     11  C   UNL     1      40.283 -25.545 -14.866  0.00  0.00    +0.316 C 
BRANCH  11  12
ATOM     12  O   UNL     1      40.990 -24.527 -14.315  0.00  0.00    -0.480 OA
ATOM     13  H   UNL     1      41.626 -24.704 -13.651  0.00  0.00    +0.295 HD
ENDBRANCH  11  12
ENDBRANCH   9  11
ENDBRANCH   1   9
TORSDOF 6
ENDMDL
MODEL 3
REMARK VINA RESULT:      -5.2      2.855      4.651
REMARK  Name = 10918
REMARK  6 active torsions:
REMARK  status: ('A' for Active; 'I' for Inactive)
REMARK    1  A    between atoms: C_1  and  O_2
REMARK    2  A    between atoms: C_1  and  C_4
REMARK    3  A    between atoms: C_1  and  C_9
REMARK    4  A    between atoms: C_4  and  N_5
REMARK    5  A    between atoms: C_9  and  C_11
REMARK    6  A    between atoms: C_11  and  O_12
REMARK                            x       y       z     vdW  Elec       q    Type
REMARK                         _______ _______ _______ _____ _____    ______ ____
ROOT
ATOM      1  C   UNL     1      37.797 -23.667 -12.159  0.00  0.00    +0.102 C 
ENDROOT
BRANCH   1   2
ATOM      2  O   UNL     1      39.042 -23.118 -11.721  0.00  0.00    -0.386 OA
ATOM      3  H   UNL     1      39.491 -22.696 -12.470  0.00  0.00    +0.210 HD
ENDBRANCH   1   2
BRANCH   1   4
ATOM      4  C   UNL     1      37.951 -25.171 -12.362  0.00  0.00    -0.043 C 
BRANCH   4   5
ATOM      5  N   UNL     1      38.064 -25.471 -13.812  0.00  0.00    +0.387 N 
ATOM      6  C   UNL     1      39.531 -25.670 -14.214  0.00  0.00    -0.096 C 
ATOM      7  C   UNL     1      37.294 -26.751 -14.164  0.00  0.00    -0.096 C 
ATOM      8  C   UNL     1      37.490 -24.322 -14.651  0.00  0.00    -0.096 C 
ENDBRANCH   4   5
ENDBRANCH   1   4
BRANCH   1   9
ATOM      9  C   UNL     1      36.761 -23.380 -11.073  0.00  0.00    +0.136 C 
BRANCH   9  11
ATOM     10  O   UNL     1      35.241 -25.207 -10.632  0.00  0.00    -0.250 OA
ATOM     11  C   UNL     1      35.513 -24.204 -11.278  0.00  0.00    +0.316 C 
BRANCH  11  12
ATOM     12  O   UNL     1      34.714 -23.704 -12.254  0.00  0.00    -0.480 OA
ATOM     13  H   UNL     1      33.835 -24.015 -12.345  0.00  0.00    +0.295 HD
ENDBRANCH  11  12
ENDBRANCH   9  11
ENDBRANCH   1   9
TORSDOF 6
ENDMDL
MODEL 4
REMARK VINA RESULT:      -4.9      3.206      4.475
REMARK  Name = 10918
REMARK  6 active torsions:
REMARK  status: ('A' for Active; 'I' for Inactive)
REMARK    1  A    between atoms: C_1  and  O_2
REMARK    2  A    between atoms: C_1  and  C_4
REMARK    3  A    between atoms: C_1  and  C_9
REMARK    4  A    between atoms: C_4  and  N_5
REMARK    5  A    between atoms: C_9  and  C_11
REMARK    6  A    between atoms: C_11  and  O_12
REMARK                            x       y       z     vdW  Elec       q    Type
REMARK                         _______ _______ _______ _____ _____    ______ ____
ROOT
ATOM      1  C   UNL     1      37.222 -23.556 -15.499  0.00  0.00    +0.102 C 
ENDROOT
BRANCH   1   2
ATOM      2  O   UNL     1      38.515 -23.248 -16.022  0.00  0.00    -0.386 OA
ATOM      3  H   UNL     1      38.852 -24.010 -16.520  0.00  0.00    +0.210 HD
ENDBRANCH   1   2
BRANCH   1   4
ATOM      4  C   UNL     1      37.298 -23.635 -13.977  0.00  0.00    -0.043 C 
BRANCH   4   5
ATOM      5  N   UNL     1      37.354 -25.056 -13.551  0.00  0.00    +0.387 N 
ATOM      6  C   UNL     1      36.552 -25.270 -12.261  0.00  0.00    -0.096 C 
ATOM      7  C   UNL     1      36.771 -25.972 -14.635  0.00  0.00    -0.096 C 
ATOM      8  C   UNL     1      38.803 -25.488 -13.290  0.00  0.00    -0.096 C 
ENDBRANCH   4   5
ENDBRANCH   1   4
BRANCH   1   9
ATOM      9  C   UNL     1      36.274 -22.437 -15.927  0.00  0.00    +0.136 C 
BRANCH   9  11
ATOM     10  O   UNL     1      36.601 -22.130 -18.302  0.00  0.00    -0.250 OA
ATOM     11  C   UNL     1      36.784 -21.731 -17.159  0.00  0.00    +0.316 C 
BRANCH  11  12
ATOM     12  O   UNL     1      37.462 -20.593 -16.865  0.00  0.00    -0.480 OA
ATOM     13  H   UNL     1      38.256 -20.391 -17.319  0.00  0.00    +0.295 HD
ENDBRANCH  11  12
ENDBRANCH   9  11
ENDBRANCH   1   9
TORSDOF 6
ENDMDL
MODEL 5
REMARK VINA RESULT:      -4.8      3.822      4.623
REMARK  Name = 10918
REMARK  6 active torsions:
REMARK  status: ('A' for Active; 'I' for Inactive)
REMARK    1  A    between atoms: C_1  and  O_2
REMARK    2  A    between atoms: C_1  and  C_4
REMARK    3  A    between atoms: C_1  and  C_9
REMARK    4  A    between atoms: C_4  and  N_5
REMARK    5  A    between atoms: C_9  and  C_11
REMARK    6  A    between atoms: C_11  and  O_12
REMARK                            x       y       z     vdW  Elec       q    Type
REMARK                         _______ _______ _______ _____ _____    ______ ____
ROOT
ATOM      1  C   UNL     1      35.754 -24.837 -12.835  0.00  0.00    +0.102 C 
ENDROOT
BRANCH   1   2
ATOM      2  O   UNL     1      34.670 -24.953 -11.911  0.00  0.00    -0.386 OA
ATOM      3  H   UNL     1      34.044 -24.226 -12.056  0.00  0.00    +0.210 HD
ENDBRANCH   1   2
BRANCH   1   4
ATOM      4  C   UNL     1      35.558 -23.590 -13.692  0.00  0.00    -0.043 C 
BRANCH   4   5
ATOM      5  N   UNL     1      35.760 -23.930 -15.124  0.00  0.00    +0.387 N 
ATOM      6  C   UNL     1      35.836 -25.450 -15.317  0.00  0.00    -0.096 C 
ATOM      7  C   UNL     1      34.601 -23.397 -15.977  0.00  0.00    -0.096 C 
ATOM      8  C   UNL     1      37.063 -23.315 -15.650  0.00  0.00    -0.096 C 
ENDBRANCH   4   5
ENDBRANCH   1   4
BRANCH   1   9
ATOM      9  C   UNL     1      37.043 -24.725 -12.020  0.00  0.00    +0.136 C 
BRANCH   9  11
ATOM     10  O   UNL     1      37.398 -22.514 -11.110  0.00  0.00    -0.250 OA
ATOM     11  C   UNL     1      36.936 -23.640 -10.977  0.00  0.00    +0.316 C 
BRANCH  11  12
ATOM     12  O   UNL     1      36.258 -24.044  -9.873  0.00  0.00    -0.480 OA
ATOM     13  H   UNL     1      36.673 -24.604  -9.248  0.00  0.00    +0.295 HD
ENDBRANCH  11  12
ENDBRANCH   9  11
ENDBRANCH   1   9
TORSDOF 6
ENDMDL
MODEL 6
REMARK VINA RESULT:      -4.8     11.296     12.722
REMARK  Name = 10918
REMARK  6 active torsions:
REMARK  status: ('A' for Active; 'I' for Inactive)
REMARK    1  A    between atoms: C_1  and  O_2
REMARK    2  A    between atoms: C_1  and  C_4
REMARK    3  A    between atoms: C_1  and  C_9
REMARK    4  A    between atoms: C_4  and  N_5
REMARK    5  A    between atoms: C_9  and  C_11
REMARK    6  A    between atoms: C_11  and  O_12
REMARK                            x       y       z     vdW  Elec       q    Type
REMARK                         _______ _______ _______ _____ _____    ______ ____
ROOT
ATOM      1  C   UNL     1      34.879 -16.451 -21.243  0.00  0.00    +0.102 C 
ENDROOT
BRANCH   1   2
ATOM      2  O   UNL     1      35.000 -15.910 -19.927  0.00  0.00    -0.386 OA
ATOM      3  H   UNL     1      34.154 -16.003 -19.460  0.00  0.00    +0.210 HD
ENDBRANCH   1   2
BRANCH   1   4
ATOM      4  C   UNL     1      33.975 -17.680 -21.205  0.00  0.00    -0.043 C 
BRANCH   4   5
ATOM      5  N   UNL     1      34.767 -18.895 -21.523  0.00  0.00    +0.387 N 
ATOM      6  C   UNL     1      34.608 -19.277 -23.001  0.00  0.00    -0.096 C 
ATOM      7  C   UNL     1      36.258 -18.659 -21.248  0.00  0.00    -0.096 C 
ATOM      8  C   UNL     1      34.306 -20.084 -20.669  0.00  0.00    -0.096 C 
ENDBRANCH   4   5
ENDBRANCH   1   4
BRANCH   1   9
ATOM      9  C   UNL     1      34.266 -15.369 -22.131  0.00  0.00    +0.136 C 
BRANCH   9  11
ATOM     10  O   UNL     1      33.702 -15.462 -24.480  0.00  0.00    -0.250 OA
ATOM     11  C   UNL     1      34.523 -15.651 -23.592  0.00  0.00    +0.316 C 
BRANCH  11  12
ATOM     12  O   UNL     1      35.772 -16.129 -23.818  0.00  0.00    -0.480 OA
ATOM     13  H   UNL     1      36.095 -16.851 -23.317  0.00  0.00    +0.295 HD
ENDBRANCH  11  12
ENDBRANCH   9  11
ENDBRANCH   1   9
TORSDOF 6
ENDMDL
MODEL 7
REMARK VINA RESULT:      -4.8      9.040     10.450
REMARK  Name = 10918
REMARK  6 active torsions:
REMARK  status: ('A' for Active; 'I' for Inactive)
REMARK    1  A    between atoms: C_1  and  O_2
REMARK    2  A    between atoms: C_1  and  C_4
REMARK    3  A    between atoms: C_1  and  C_9
REMARK    4  A    between atoms: C_4  and  N_5
REMARK    5  A    between atoms: C_9  and  C_11
REMARK    6  A    between atoms: C_11  and  O_12
REMARK                            x       y       z     vdW  Elec       q    Type
REMARK                         _______ _______ _______ _____ _____    ______ ____
ROOT
ATOM      1  C   UNL     1      33.816 -20.281 -20.957  0.00  0.00    +0.102 C 
ENDROOT
BRANCH   1   2
ATOM      2  O   UNL     1      32.405 -20.490 -20.879  0.00  0.00    -0.386 OA
ATOM      3  H   UNL     1      32.006 -20.331 -21.749  0.00  0.00    +0.210 HD
ENDBRANCH   1   2
BRANCH   1   4
ATOM      4  C   UNL     1      34.110 -18.785 -20.912  0.00  0.00    -0.043 C 
BRANCH   4   5
ATOM      5  N   UNL     1      35.051 -18.426 -22.003  0.00  0.00    +0.387 N 
ATOM      6  C   UNL     1      34.782 -19.272 -23.254  0.00  0.00    -0.096 C 
ATOM      7  C   UNL     1      34.903 -16.947 -22.384  0.00  0.00    -0.096 C 
ATOM      8  C   UNL     1      36.503 -18.664 -21.567  0.00  0.00    -0.096 C 
ENDBRANCH   4   5
ENDBRANCH   1   4
BRANCH   1   9
ATOM      9  C   UNL     1      34.452 -20.984 -19.758  0.00  0.00    +0.136 C 
BRANCH   9  11
ATOM     10  O   UNL     1      32.564 -22.024 -18.663  0.00  0.00    -0.250 OA
ATOM     11  C   UNL     1      33.606 -22.145 -19.294  0.00  0.00    +0.316 C 
BRANCH  11  12
ATOM     12  O   UNL     1      34.121 -23.345 -19.664  0.00  0.00    -0.480 OA
ATOM     13  H   UNL     1      33.731 -24.137 -19.351  0.00  0.00    +0.295 HD
ENDBRANCH  11  12
ENDBRANCH   9  11
ENDBRANCH   1   9
TORSDOF 6
ENDMDL
MODEL 8
REMARK VINA RESULT:      -4.7     12.138     13.592
REMARK  Name = 10918
REMARK  6 active torsions:
REMARK  status: ('A' for Active; 'I' for Inactive)
REMARK    1  A    between atoms: C_1  and  O_2
REMARK    2  A    between atoms: C_1  and  C_4
REMARK    3  A    between atoms: C_1  and  C_9
REMARK    4  A    between atoms: C_4  and  N_5
REMARK    5  A    between atoms: C_9  and  C_11
REMARK    6  A    between atoms: C_11  and  O_12
REMARK                            x       y       z     vdW  Elec       q    Type
REMARK                         _______ _______ _______ _____ _____    ______ ____
ROOT
ATOM      1  C   UNL     1      34.600 -16.622 -22.928  0.00  0.00    +0.102 C 
ENDROOT
BRANCH   1   2
ATOM      2  O   UNL     1      35.719 -16.063 -23.619  0.00  0.00    -0.386 OA
ATOM      3  H   UNL     1      36.177 -16.763 -24.111  0.00  0.00    +0.210 HD
ENDBRANCH   1   2
BRANCH   1   4
ATOM      4  C   UNL     1      35.069 -17.219 -21.604  0.00  0.00    -0.043 C 
BRANCH   4   5
ATOM      5  N   UNL     1      34.928 -18.697 -21.644  0.00  0.00    +0.387 N 
ATOM      6  C   UNL     1      33.637 -19.139 -20.944  0.00  0.00    -0.096 C 
ATOM      7  C   UNL     1      34.884 -19.200 -23.093  0.00  0.00    -0.096 C 
ATOM      8  C   UNL     1      36.111 -19.373 -20.939  0.00  0.00    -0.096 C 
ENDBRANCH   4   5
ENDBRANCH   1   4
BRANCH   1   9
ATOM      9  C   UNL     1      33.603 -15.491 -22.678  0.00  0.00    +0.136 C 
BRANCH   9  11
ATOM     10  O   UNL     1      33.251 -14.577 -24.888  0.00  0.00    -0.250 OA
ATOM     11  C   UNL     1      33.691 -14.437 -23.754  0.00  0.00    +0.316 C 
BRANCH  11  12
ATOM     12  O   UNL     1      34.304 -13.305 -23.325  0.00  0.00    -0.480 OA
ATOM     13  H   UNL     1      34.793 -13.311 -22.527  0.00  0.00    +0.295 HD
ENDBRANCH  11  12
ENDBRANCH   9  11
ENDBRANCH   1   9
TORSDOF 6
ENDMDL
MODEL 9
REMARK VINA RESULT:      -4.7      1.208      1.950
REMARK  Name = 10918
REMARK  6 active torsions:
REMARK  status: ('A' for Active; 'I' for Inactive)
REMARK    1  A    between atoms: C_1  and  O_2
REMARK    2  A    between atoms: C_1  and  C_4
REMARK    3  A    between atoms: C_1  and  C_9
REMARK    4  A    between atoms: C_4  and  N_5
REMARK    5  A    between atoms: C_9  and  C_11
REMARK    6  A    between atoms: C_11  and  O_12
REMARK                            x       y       z     vdW  Elec       q    Type
REMARK                         _______ _______ _______ _____ _____    ______ ____
ROOT
ATOM      1  C   UNL     1      37.508 -25.867 -13.893  0.00  0.00    +0.102 C 
ENDROOT
BRANCH   1   2
ATOM      2  O   UNL     1      36.764 -27.085 -13.955  0.00  0.00    -0.386 OA
ATOM      3  H   UNL     1      36.527 -27.365 -13.057  0.00  0.00    +0.210 HD
ENDBRANCH   1   2
BRANCH   1   4
ATOM      4  C   UNL     1      37.575 -25.387 -12.446  0.00  0.00    -0.043 C 
BRANCH   4   5
ATOM      5  N   UNL     1      36.727 -24.179 -12.279  0.00  0.00    +0.387 N 
ATOM      6  C   UNL     1      35.669 -24.403 -11.191  0.00  0.00    -0.096 C 
ATOM      7  C   UNL     1      37.579 -22.969 -11.876  0.00  0.00    -0.096 C 
ATOM      8  C   UNL     1      36.003 -23.839 -13.588  0.00  0.00    -0.096 C 
ENDBRANCH   4   5
ENDBRANCH   1   4
BRANCH   1   9
ATOM      9  C   UNL     1      38.912 -26.158 -14.422  0.00  0.00    +0.136 C 
BRANCH   9  11
ATOM     10  O   UNL     1      39.029 -23.915 -15.317  0.00  0.00    -0.250 OA
ATOM     11  C   UNL     1      39.607 -24.889 -14.852  0.00  0.00    +0.316 C 
BRANCH  11  12
ATOM     12  O   UNL     1      40.949 -24.938 -14.656  0.00  0.00    -0.480 OA
ATOM     13  H   UNL     1      41.478 -25.509 -15.177  0.00  0.00    +0.295 HD
ENDBRANCH  11  12
ENDBRANCH   9  11
ENDBRANCH   1   9
TORSDOF 6
ENDMDL
