MODEL 1
REMARK VINA RESULT:      -8.8      0.000      0.000
REMARK  Name = 25022868
REMARK  5 active torsions:
REMARK  status: ('A' for Active; 'I' for Inactive)
REMARK    1  A    between atoms: C_2  and  C_11
REMARK    2  A    between atoms: C_3  and  C_19
REMARK    3  A    between atoms: C_10  and  O_27
REMARK    4  A    between atoms: C_16  and  O_17
REMARK    5  A    between atoms: C_24  and  O_25
REMARK                            x       y       z     vdW  Elec       q    Type
REMARK                         _______ _______ _______ _____ _____    ______ ____
ROOT
ATOM      1  O   UNL     1      35.293 -24.105 -12.370  0.00  0.00    -0.475 OA
ATOM      2  C   UNL     1      34.383 -24.891 -15.081  0.00  0.00    +0.055 C 
ATOM      3  C   UNL     1      33.424 -24.493 -13.924  0.00  0.00    +0.074 C 
ATOM      4  C   UNL     1      35.759 -25.193 -14.514  0.00  0.00    +0.016 C 
ATOM      5  C   UNL     1      34.130 -23.524 -12.968  0.00  0.00    +0.210 C 
ATOM      6  C   UNL     1      36.124 -24.782 -13.224  0.00  0.00    +0.138 C 
ATOM      7  C   UNL     1      36.690 -25.906 -15.287  0.00  0.00    +0.002 C 
ATOM      8  C   UNL     1      37.389 -25.092 -12.718  0.00  0.00    +0.073 C 
ATOM      9  C   UNL     1      37.956 -26.204 -14.781  0.00  0.00    +0.037 C 
ATOM     10  C   UNL     1      38.304 -25.799 -13.496  0.00  0.00    +0.137 C 
ENDROOT
BRANCH   2  11
ATOM     11  C   UNL     1      34.421 -23.904 -16.245  0.00  0.00    -0.018 C 
ATOM     12  C   UNL     1      33.415 -23.923 -17.210  0.00  0.00    -0.001 C 
ATOM     13  C   UNL     1      35.466 -22.983 -16.345  0.00  0.00    -0.001 C 
ATOM     14  C   UNL     1      33.451 -23.022 -18.275  0.00  0.00    +0.037 C 
ATOM     15  C   UNL     1      35.503 -22.083 -17.409  0.00  0.00    +0.037 C 
ATOM     16  C   UNL     1      34.496 -22.103 -18.374  0.00  0.00    +0.139 C 
BRANCH  16  17
ATOM     17  O   UNL     1      34.531 -21.223 -19.412  0.00  0.00    -0.471 OA
ATOM     18  C   UNL     1      33.279 -20.762 -19.916  0.00  0.00    +0.252 C 
ENDBRANCH  16  17
ENDBRANCH   2  11
BRANCH   3  19
ATOM     19  C   UNL     1      32.047 -24.060 -14.390  0.00  0.00    -0.018 C 
ATOM     20  C   UNL     1      31.734 -22.703 -14.477  0.00  0.00    -0.001 C 
ATOM     21  C   UNL     1      31.092 -25.019 -14.730  0.00  0.00    -0.001 C 
ATOM     22  C   UNL     1      30.468 -22.306 -14.905  0.00  0.00    +0.036 C 
ATOM     23  C   UNL     1      29.825 -24.620 -15.157  0.00  0.00    +0.036 C 
ATOM     24  C   UNL     1      29.513 -23.264 -15.245  0.00  0.00    +0.134 C 
BRANCH  24  25
ATOM     25  O   UNL     1      28.277 -22.875 -15.663  0.00  0.00    -0.506 OA
ATOM     26  H   UNL     1      27.753 -22.320 -15.121  0.00  0.00    +0.292 HD
ENDBRANCH  24  25
ENDBRANCH   3  19
BRANCH  10  27
ATOM     27  O   UNL     1      39.537 -26.092 -12.999  0.00  0.00    -0.505 OA
ATOM     28  H   UNL     1      40.040 -25.428 -12.571  0.00  0.00    +0.292 HD
ENDBRANCH  10  27
TORSDOF 5
ENDMDL
MODEL 2
REMARK VINA RESULT:      -6.8     12.884     17.188
REMARK  Name = 25022868
REMARK  5 active torsions:
REMARK  status: ('A' for Active; 'I' for Inactive)
REMARK    1  A    between atoms: C_2  and  C_11
REMARK    2  A    between atoms: C_3  and  C_19
REMARK    3  A    between atoms: C_10  and  O_27
REMARK    4  A    between atoms: C_16  and  O_17
REMARK    5  A    between atoms: C_24  and  O_25
REMARK                            x       y       z     vdW  Elec       q    Type
REMARK                         _______ _______ _______ _____ _____    ______ ____
ROOT
ATOM      1  O   UNL     1      34.694  -8.144 -24.518  0.00  0.00    -0.475 OA
ATOM      2  C   UNL     1      32.198  -9.641 -23.954  0.00  0.00    +0.055 C 
ATOM      3  C   UNL     1      33.512 -10.301 -24.458  0.00  0.00    +0.074 C 
ATOM      4  C   UNL     1      32.269  -8.141 -24.178  0.00  0.00    +0.016 C 
ATOM      5  C   UNL     1      34.721  -9.477 -23.999  0.00  0.00    +0.210 C 
ATOM      6  C   UNL     1      33.489  -7.498 -24.432  0.00  0.00    +0.138 C 
ATOM      7  C   UNL     1      31.093  -7.374 -24.140  0.00  0.00    +0.002 C 
ATOM      8  C   UNL     1      33.523  -6.119 -24.657  0.00  0.00    +0.073 C 
ATOM      9  C   UNL     1      31.134  -5.996 -24.354  0.00  0.00    +0.037 C 
ATOM     10  C   UNL     1      32.349  -5.369 -24.614  0.00  0.00    +0.137 C 
ENDROOT
BRANCH   2  11
ATOM     11  C   UNL     1      31.804 -10.014 -22.527  0.00  0.00    -0.018 C 
ATOM     12  C   UNL     1      30.911 -11.061 -22.298  0.00  0.00    -0.001 C 
ATOM     13  C   UNL     1      32.336  -9.304 -21.449  0.00  0.00    -0.001 C 
ATOM     14  C   UNL     1      30.551 -11.399 -20.994  0.00  0.00    +0.037 C 
ATOM     15  C   UNL     1      31.975  -9.641 -20.144  0.00  0.00    +0.037 C 
ATOM     16  C   UNL     1      31.083 -10.688 -19.918  0.00  0.00    +0.139 C 
BRANCH  16  17
ATOM     17  O   UNL     1      30.731 -11.019 -18.645  0.00  0.00    -0.471 OA
ATOM     18  C   UNL     1      31.657 -10.692 -17.610  0.00  0.00    +0.252 C 
ENDBRANCH  16  17
ENDBRANCH   2  11
BRANCH   3  19
ATOM     19  C   UNL     1      33.597 -11.791 -24.179  0.00  0.00    -0.018 C 
ATOM     20  C   UNL     1      33.993 -12.244 -22.921  0.00  0.00    -0.001 C 
ATOM     21  C   UNL     1      33.280 -12.707 -25.183  0.00  0.00    -0.001 C 
ATOM     22  C   UNL     1      34.071 -13.613 -22.666  0.00  0.00    +0.036 C 
ATOM     23  C   UNL     1      33.359 -14.076 -24.927  0.00  0.00    +0.036 C 
ATOM     24  C   UNL     1      33.754 -14.529 -23.670  0.00  0.00    +0.134 C 
BRANCH  24  25
ATOM     25  O   UNL     1      33.831 -15.865 -23.420  0.00  0.00    -0.506 OA
ATOM     26  H   UNL     1      33.231 -16.454 -23.833  0.00  0.00    +0.292 HD
ENDBRANCH  24  25
ENDBRANCH   3  19
BRANCH  10  27
ATOM     27  O   UNL     1      32.392  -4.025 -24.828  0.00  0.00    -0.505 OA
ATOM     28  H   UNL     1      33.001  -3.668 -25.442  0.00  0.00    +0.292 HD
ENDBRANCH  10  27
TORSDOF 5
ENDMDL
MODEL 3
REMARK VINA RESULT:      -6.7     14.342     18.809
REMARK  Name = 25022868
REMARK  5 active torsions:
REMARK  status: ('A' for Active; 'I' for Inactive)
REMARK    1  A    between atoms: C_2  and  C_11
REMARK    2  A    between atoms: C_3  and  C_19
REMARK    3  A    between atoms: C_10  and  O_27
REMARK    4  A    between atoms: C_16  and  O_17
REMARK    5  A    between atoms: C_24  and  O_25
REMARK                            x       y       z     vdW  Elec       q    Type
REMARK                         _______ _______ _______ _____ _____    ______ ____
ROOT
ATOM      1  O   UNL     1      31.117  -5.573 -24.543  0.00  0.00    -0.475 OA
ATOM      2  C   UNL     1      33.520  -7.076 -23.672  0.00  0.00    +0.055 C 
ATOM      3  C   UNL     1      32.288  -6.805 -22.764  0.00  0.00    +0.074 C 
ATOM      4  C   UNL     1      33.474  -6.149 -24.874  0.00  0.00    +0.016 C 
ATOM      5  C   UNL     1      31.025  -6.664 -23.622  0.00  0.00    +0.210 C 
ATOM      6  C   UNL     1      32.297  -5.476 -25.232  0.00  0.00    +0.138 C 
ATOM      7  C   UNL     1      34.632  -5.949 -25.644  0.00  0.00    +0.002 C 
ATOM      8  C   UNL     1      32.288  -4.611 -26.330  0.00  0.00    +0.073 C 
ATOM      9  C   UNL     1      34.615  -5.092 -26.745  0.00  0.00    +0.037 C 
ATOM     10  C   UNL     1      33.443  -4.423 -27.087  0.00  0.00    +0.137 C 
ENDROOT
BRANCH   2  11
ATOM     11  C   UNL     1      33.719  -8.541 -24.056  0.00  0.00    -0.018 C 
ATOM     12  C   UNL     1      32.615  -9.377 -24.218  0.00  0.00    -0.001 C 
ATOM     13  C   UNL     1      35.008  -9.044 -24.243  0.00  0.00    -0.001 C 
ATOM     14  C   UNL     1      32.798 -10.716 -24.567  0.00  0.00    +0.037 C 
ATOM     15  C   UNL     1      35.192 -10.381 -24.591  0.00  0.00    +0.037 C 
ATOM     16  C   UNL     1      34.087 -11.217 -24.753  0.00  0.00    +0.139 C 
BRANCH  16  17
ATOM     17  O   UNL     1      34.265 -12.523 -25.094  0.00  0.00    -0.471 OA
ATOM     18  C   UNL     1      33.387 -13.476 -24.497  0.00  0.00    +0.252 C 
ENDBRANCH  16  17
ENDBRANCH   2  11
BRANCH   3  19
ATOM     19  C   UNL     1      32.172  -7.756 -21.587  0.00  0.00    -0.018 C 
ATOM     20  C   UNL     1      31.607  -9.020 -21.764  0.00  0.00    -0.001 C 
ATOM     21  C   UNL     1      32.628  -7.367 -20.327  0.00  0.00    -0.001 C 
ATOM     22  C   UNL     1      31.500  -9.893 -20.681  0.00  0.00    +0.036 C 
ATOM     23  C   UNL     1      32.520  -8.240 -19.245  0.00  0.00    +0.036 C 
ATOM     24  C   UNL     1      31.957  -9.503 -19.423  0.00  0.00    +0.134 C 
BRANCH  24  25
ATOM     25  O   UNL     1      31.852 -10.357 -18.367  0.00  0.00    -0.506 OA
ATOM     26  H   UNL     1      31.933 -11.280 -18.501  0.00  0.00    +0.292 HD
ENDBRANCH  24  25
ENDBRANCH   3  19
BRANCH  10  27
ATOM     27  O   UNL     1      33.425  -3.583 -28.158  0.00  0.00    -0.505 OA
ATOM     28  H   UNL     1      33.973  -2.823 -28.167  0.00  0.00    +0.292 HD
ENDBRANCH  10  27
TORSDOF 5
ENDMDL
MODEL 4
REMARK VINA RESULT:      -6.6      1.794      5.420
REMARK  Name = 25022868
REMARK  5 active torsions:
REMARK  status: ('A' for Active; 'I' for Inactive)
REMARK    1  A    between atoms: C_2  and  C_11
REMARK    2  A    between atoms: C_3  and  C_19
REMARK    3  A    between atoms: C_10  and  O_27
REMARK    4  A    between atoms: C_16  and  O_17
REMARK    5  A    between atoms: C_24  and  O_25
REMARK                            x       y       z     vdW  Elec       q    Type
REMARK                         _______ _______ _______ _____ _____    ______ ____
ROOT
ATOM      1  O   UNL     1      33.457 -23.138 -18.818  0.00  0.00    -0.475 OA
ATOM      2  C   UNL     1      34.431 -22.567 -16.077  0.00  0.00    +0.055 C 
ATOM      3  C   UNL     1      32.957 -22.922 -16.419  0.00  0.00    +0.074 C 
ATOM      4  C   UNL     1      35.164 -22.178 -17.348  0.00  0.00    +0.016 C 
ATOM      5  C   UNL     1      32.908 -23.801 -17.675  0.00  0.00    +0.210 C 
ATOM      6  C   UNL     1      34.647 -22.489 -18.614  0.00  0.00    +0.138 C 
ATOM      7  C   UNL     1      36.382 -21.484 -17.266  0.00  0.00    +0.002 C 
ATOM      8  C   UNL     1      35.330 -22.100 -19.769  0.00  0.00    +0.073 C 
ATOM      9  C   UNL     1      37.067 -21.106 -18.422  0.00  0.00    +0.037 C 
ATOM     10  C   UNL     1      36.539 -21.413 -19.673  0.00  0.00    +0.137 C 
ENDROOT
BRANCH   2  11
ATOM     11  C   UNL     1      35.170 -23.626 -15.262  0.00  0.00    -0.018 C 
ATOM     12  C   UNL     1      35.440 -24.875 -15.822  0.00  0.00    -0.001 C 
ATOM     13  C   UNL     1      35.575 -23.345 -13.957  0.00  0.00    -0.001 C 
ATOM     14  C   UNL     1      36.114 -25.843 -15.076  0.00  0.00    +0.037 C 
ATOM     15  C   UNL     1      36.249 -24.312 -13.211  0.00  0.00    +0.037 C 
ATOM     16  C   UNL     1      36.518 -25.561 -13.771  0.00  0.00    +0.139 C 
BRANCH  16  17
ATOM     17  O   UNL     1      37.175 -26.505 -13.044  0.00  0.00    -0.471 OA
ATOM     18  C   UNL     1      38.168 -26.045 -12.129  0.00  0.00    +0.252 C 
ENDBRANCH  16  17
ENDBRANCH   2  11
BRANCH   3  19
ATOM     19  C   UNL     1      32.159 -23.436 -15.234  0.00  0.00    -0.018 C 
ATOM     20  C   UNL     1      31.650 -24.735 -15.246  0.00  0.00    -0.001 C 
ATOM     21  C   UNL     1      31.934 -22.609 -14.134  0.00  0.00    -0.001 C 
ATOM     22  C   UNL     1      30.915 -25.206 -14.158  0.00  0.00    +0.036 C 
ATOM     23  C   UNL     1      31.199 -23.080 -13.046  0.00  0.00    +0.036 C 
ATOM     24  C   UNL     1      30.690 -24.378 -13.058  0.00  0.00    +0.134 C 
BRANCH  24  25
ATOM     25  O   UNL     1      29.974 -24.839 -11.995  0.00  0.00    -0.506 OA
ATOM     26  H   UNL     1      29.198 -25.345 -12.137  0.00  0.00    +0.292 HD
ENDBRANCH  24  25
ENDBRANCH   3  19
BRANCH  10  27
ATOM     27  O   UNL     1      37.203 -21.042 -20.803  0.00  0.00    -0.505 OA
ATOM     28  H   UNL     1      37.413 -20.142 -20.947  0.00  0.00    +0.292 HD
ENDBRANCH  10  27
TORSDOF 5
ENDMDL
MODEL 5
REMARK VINA RESULT:      -6.4      2.492      6.403
REMARK  Name = 25022868
REMARK  5 active torsions:
REMARK  status: ('A' for Active; 'I' for Inactive)
REMARK    1  A    between atoms: C_2  and  C_11
REMARK    2  A    between atoms: C_3  and  C_19
REMARK    3  A    between atoms: C_10  and  O_27
REMARK    4  A    between atoms: C_16  and  O_17
REMARK    5  A    between atoms: C_24  and  O_25
REMARK                            x       y       z     vdW  Elec       q    Type
REMARK                         _______ _______ _______ _____ _____    ______ ____
ROOT
ATOM      1  O   UNL     1      33.750 -23.184 -16.748  0.00  0.00    -0.475 OA
ATOM      2  C   UNL     1      36.388 -22.692 -15.487  0.00  0.00    +0.055 C 
ATOM      3  C   UNL     1      35.075 -22.930 -14.690  0.00  0.00    +0.074 C 
ATOM      4  C   UNL     1      36.050 -22.361 -16.930  0.00  0.00    +0.016 C 
ATOM      5  C   UNL     1      34.115 -23.801 -15.510  0.00  0.00    +0.210 C 
ATOM      6  C   UNL     1      34.780 -22.631 -17.462  0.00  0.00    +0.138 C 
ATOM      7  C   UNL     1      37.018 -21.766 -17.754  0.00  0.00    +0.002 C 
ATOM      8  C   UNL     1      34.488 -22.296 -18.787  0.00  0.00    +0.073 C 
ATOM      9  C   UNL     1      36.725 -21.444 -19.080  0.00  0.00    +0.037 C 
ATOM     10  C   UNL     1      35.459 -21.707 -19.595  0.00  0.00    +0.137 C 
ENDROOT
BRANCH   2  11
ATOM     11  C   UNL     1      37.423 -23.807 -15.357  0.00  0.00    -0.018 C 
ATOM     12  C   UNL     1      38.784 -23.509 -15.427  0.00  0.00    -0.001 C 
ATOM     13  C   UNL     1      37.007 -25.126 -15.171  0.00  0.00    -0.001 C 
ATOM     14  C   UNL     1      39.729 -24.529 -15.310  0.00  0.00    +0.037 C 
ATOM     15  C   UNL     1      37.951 -26.146 -15.054  0.00  0.00    +0.037 C 
ATOM     16  C   UNL     1      39.312 -25.847 -15.124  0.00  0.00    +0.139 C 
BRANCH  16  17
ATOM     17  O   UNL     1      40.234 -26.841 -15.010  0.00  0.00    -0.471 OA
ATOM     18  C   UNL     1      41.158 -26.750 -13.927  0.00  0.00    +0.252 C 
ENDBRANCH  16  17
ENDBRANCH   2  11
BRANCH   3  19
ATOM     19  C   UNL     1      35.299 -23.379 -13.258  0.00  0.00    -0.018 C 
ATOM     20  C   UNL     1      36.417 -22.932 -12.553  0.00  0.00    -0.001 C 
ATOM     21  C   UNL     1      34.387 -24.240 -12.646  0.00  0.00    -0.001 C 
ATOM     22  C   UNL     1      36.623 -23.346 -11.237  0.00  0.00    +0.036 C 
ATOM     23  C   UNL     1      34.594 -24.654 -11.330  0.00  0.00    +0.036 C 
ATOM     24  C   UNL     1      35.711 -24.207 -10.626  0.00  0.00    +0.134 C 
BRANCH  24  25
ATOM     25  O   UNL     1      35.912 -24.610  -9.341  0.00  0.00    -0.506 OA
ATOM     26  H   UNL     1      36.771 -24.849  -9.054  0.00  0.00    +0.292 HD
ENDBRANCH  24  25
ENDBRANCH   3  19
BRANCH  10  27
ATOM     27  O   UNL     1      35.169 -21.390 -20.887  0.00  0.00    -0.505 OA
ATOM     28  H   UNL     1      34.881 -22.055 -21.479  0.00  0.00    +0.292 HD
ENDBRANCH  10  27
TORSDOF 5
ENDMDL
MODEL 6
REMARK VINA RESULT:      -6.4     13.996     17.918
REMARK  Name = 25022868
REMARK  5 active torsions:
REMARK  status: ('A' for Active; 'I' for Inactive)
REMARK    1  A    between atoms: C_2  and  C_11
REMARK    2  A    between atoms: C_3  and  C_19
REMARK    3  A    between atoms: C_10  and  O_27
REMARK    4  A    between atoms: C_16  and  O_17
REMARK    5  A    between atoms: C_24  and  O_25
REMARK                            x       y       z     vdW  Elec       q    Type
REMARK                         _______ _______ _______ _____ _____    ______ ____
ROOT
ATOM      1  O   UNL     1      32.280  -7.429 -19.933  0.00  0.00    -0.475 OA
ATOM      2  C   UNL     1      31.764  -8.652 -22.585  0.00  0.00    +0.055 C 
ATOM      3  C   UNL     1      31.763  -7.121 -22.319  0.00  0.00    +0.074 C 
ATOM      4  C   UNL     1      31.669  -9.393 -21.262  0.00  0.00    +0.016 C 
ATOM      5  C   UNL     1      32.694  -6.792 -21.146  0.00  0.00    +0.210 C 
ATOM      6  C   UNL     1      31.937  -8.751 -20.045  0.00  0.00    +0.138 C 
ATOM      7  C   UNL     1      31.300 -10.748 -21.248  0.00  0.00    +0.002 C 
ATOM      8  C   UNL     1      31.821  -9.450 -18.840  0.00  0.00    +0.073 C 
ATOM      9  C   UNL     1      31.196 -11.445 -20.043  0.00  0.00    +0.037 C 
ATOM     10  C   UNL     1      31.455 -10.795 -18.840  0.00  0.00    +0.137 C 
ENDROOT
BRANCH   2  11
ATOM     11  C   UNL     1      32.910  -9.146 -23.465  0.00  0.00    -0.018 C 
ATOM     12  C   UNL     1      34.182  -8.591 -23.332  0.00  0.00    -0.001 C 
ATOM     13  C   UNL     1      32.683 -10.153 -24.404  0.00  0.00    -0.001 C 
ATOM     14  C   UNL     1      35.228  -9.042 -24.138  0.00  0.00    +0.037 C 
ATOM     15  C   UNL     1      33.728 -10.604 -25.211  0.00  0.00    +0.037 C 
ATOM     16  C   UNL     1      35.000 -10.048 -25.077  0.00  0.00    +0.139 C 
BRANCH  16  17
ATOM     17  O   UNL     1      36.020 -10.488 -25.863  0.00  0.00    -0.471 OA
ATOM     18  C   UNL     1      35.686 -10.920 -27.181  0.00  0.00    +0.252 C 
ENDBRANCH  16  17
ENDBRANCH   2  11
BRANCH   3  19
ATOM     19  C   UNL     1      31.967  -6.282 -23.567  0.00  0.00    -0.018 C 
ATOM     20  C   UNL     1      33.166  -6.366 -24.276  0.00  0.00    -0.001 C 
ATOM     21  C   UNL     1      30.957  -5.425 -24.005  0.00  0.00    -0.001 C 
ATOM     22  C   UNL     1      33.353  -5.593 -25.422  0.00  0.00    +0.036 C 
ATOM     23  C   UNL     1      31.145  -4.652 -25.151  0.00  0.00    +0.036 C 
ATOM     24  C   UNL     1      32.343  -4.737 -25.859  0.00  0.00    +0.134 C 
BRANCH  24  25
ATOM     25  O   UNL     1      32.527  -3.984 -26.979  0.00  0.00    -0.506 OA
ATOM     26  H   UNL     1      33.114  -3.254 -26.961  0.00  0.00    +0.292 HD
ENDBRANCH  24  25
ENDBRANCH   3  19
BRANCH  10  27
ATOM     27  O   UNL     1      31.350 -11.471 -17.663  0.00  0.00    -0.505 OA
ATOM     28  H   UNL     1      31.384 -11.006 -16.851  0.00  0.00    +0.292 HD
ENDBRANCH  10  27
TORSDOF 5
ENDMDL
MODEL 7
REMARK VINA RESULT:      -6.0     11.667     14.142
REMARK  Name = 25022868
REMARK  5 active torsions:
REMARK  status: ('A' for Active; 'I' for Inactive)
REMARK    1  A    between atoms: C_2  and  C_11
REMARK    2  A    between atoms: C_3  and  C_19
REMARK    3  A    between atoms: C_10  and  O_27
REMARK    4  A    between atoms: C_16  and  O_17
REMARK    5  A    between atoms: C_24  and  O_25
REMARK                            x       y       z     vdW  Elec       q    Type
REMARK                         _______ _______ _______ _____ _____    ______ ____
ROOT
ATOM      1  O   UNL     1      34.000 -15.437 -21.875  0.00  0.00    -0.475 OA
ATOM      2  C   UNL     1      32.489 -13.295 -23.261  0.00  0.00    +0.055 C 
ATOM      3  C   UNL     1      32.401 -13.572 -21.734  0.00  0.00    +0.074 C 
ATOM      4  C   UNL     1      33.119 -14.490 -23.955  0.00  0.00    +0.016 C 
ATOM      5  C   UNL     1      33.714 -14.188 -21.237  0.00  0.00    +0.210 C 
ATOM      6  C   UNL     1      33.829 -15.462 -23.234  0.00  0.00    +0.138 C 
ATOM      7  C   UNL     1      32.987 -14.639 -25.345  0.00  0.00    +0.002 C 
ATOM      8  C   UNL     1      34.380 -16.564 -23.894  0.00  0.00    +0.073 C 
ATOM      9  C   UNL     1      33.549 -15.735 -26.001  0.00  0.00    +0.037 C 
ATOM     10  C   UNL     1      34.244 -16.698 -25.274  0.00  0.00    +0.137 C 
ENDROOT
BRANCH   2  11
ATOM     11  C   UNL     1      33.153 -11.971 -23.633  0.00  0.00    -0.018 C 
ATOM     12  C   UNL     1      32.680 -10.776 -23.092  0.00  0.00    -0.001 C 
ATOM     13  C   UNL     1      34.233 -11.957 -24.516  0.00  0.00    -0.001 C 
ATOM     14  C   UNL     1      33.286  -9.567 -23.433  0.00  0.00    +0.037 C 
ATOM     15  C   UNL     1      34.840 -10.749 -24.858  0.00  0.00    +0.037 C 
ATOM     16  C   UNL     1      34.365  -9.554 -24.316  0.00  0.00    +0.139 C 
BRANCH  16  17
ATOM     17  O   UNL     1      34.957  -8.374 -24.649  0.00  0.00    -0.471 OA
ATOM     18  C   UNL     1      34.638  -7.239 -23.846  0.00  0.00    +0.252 C 
ENDBRANCH  16  17
ENDBRANCH   2  11
BRANCH   3  19
ATOM     19  C   UNL     1      31.888 -12.394 -20.926  0.00  0.00    -0.018 C 
ATOM     20  C   UNL     1      30.695 -11.767 -21.287  0.00  0.00    -0.001 C 
ATOM     21  C   UNL     1      32.610 -11.938 -19.822  0.00  0.00    -0.001 C 
ATOM     22  C   UNL     1      30.225 -10.684 -20.544  0.00  0.00    +0.036 C 
ATOM     23  C   UNL     1      32.139 -10.855 -19.080  0.00  0.00    +0.036 C 
ATOM     24  C   UNL     1      30.947 -10.229 -19.441  0.00  0.00    +0.134 C 
BRANCH  24  25
ATOM     25  O   UNL     1      30.486  -9.172 -18.716  0.00  0.00    -0.506 OA
ATOM     26  H   UNL     1      31.080  -8.506 -18.430  0.00  0.00    +0.292 HD
ENDBRANCH  24  25
ENDBRANCH   3  19
BRANCH  10  27
ATOM     27  O   UNL     1      34.789 -17.771 -25.911  0.00  0.00    -0.505 OA
ATOM     28  H   UNL     1      35.263 -17.650 -26.709  0.00  0.00    +0.292 HD
ENDBRANCH  10  27
TORSDOF 5
ENDMDL
