MODEL 1
REMARK VINA RESULT:     -11.4      0.000      0.000
REMARK  Name = 10453870
REMARK  8 active torsions:
REMARK  status: ('A' for Active; 'I' for Inactive)
REMARK    1  A    between atoms: C_2  and  C_12
REMARK    2  A    between atoms: C_5  and  C_23
REMARK    3  A    between atoms: C_9  and  O_14
REMARK    4  A    between atoms: C_10  and  O_16
REMARK    5  A    between atoms: C_11  and  O_18
REMARK    6  A    between atoms: C_13  and  C_20
REMARK    7  A    between atoms: C_20  and  O_21
REMARK    8  A    between atoms: C_23  and  C_25
REMARK                            x       y       z     vdW  Elec       q    Type
REMARK                         _______ _______ _______ _____ _____    ______ ____
ROOT
ATOM      1  F   UNL     1      31.022 -22.749 -17.517  0.00  0.00    -0.204 F 
ATOM      2  C   UNL     1      34.147 -23.509 -14.929  0.00  0.00    +0.007 C 
ATOM      3  C   UNL     1      34.343 -23.626 -16.304  0.00  0.00    -0.004 C 
ATOM      4  C   UNL     1      32.901 -23.136 -14.429  0.00  0.00    +0.000 C 
ATOM      5  C   UNL     1      33.289 -23.369 -17.181  0.00  0.00    +0.010 C 
ATOM      6  C   UNL     1      31.847 -22.880 -15.306  0.00  0.00    +0.029 C 
ATOM      7  C   UNL     1      32.041 -22.997 -16.683  0.00  0.00    +0.136 C 
ENDROOT
BRANCH   2  12
ATOM      8  O   UNL     1      36.136 -24.769 -14.584  0.00  0.00    -0.347 OA
ATOM      9  C   UNL     1      34.793 -24.270 -12.605  0.00  0.00    +0.171 C 
ATOM     10  C   UNL     1      35.965 -24.697 -11.715  0.00  0.00    +0.169 C 
ATOM     11  C   UNL     1      36.915 -25.635 -12.459  0.00  0.00    +0.169 C 
ATOM     12  C   UNL     1      35.292 -23.787 -13.976  0.00  0.00    +0.167 C 
ATOM     13  C   UNL     1      37.307 -25.047 -13.816  0.00  0.00    +0.174 C 
BRANCH   9  14
ATOM     14  O   UNL     1      34.095 -23.200 -11.969  0.00  0.00    -0.379 OA
ATOM     15  H   UNL     1      33.484 -22.791 -12.602  0.00  0.00    +0.211 HD
ENDBRANCH   9  14
BRANCH  10  16
ATOM     16  O   UNL     1      35.464 -25.392 -10.572  0.00  0.00    -0.379 OA
ATOM     17  H   UNL     1      36.165 -25.466  -9.905  0.00  0.00    +0.211 HD
ENDBRANCH  10  16
BRANCH  11  18
ATOM     18  O   UNL     1      38.089 -25.834 -11.676  0.00  0.00    -0.379 OA
ATOM     19  H   UNL     1      37.856 -26.298 -10.856  0.00  0.00    +0.211 HD
ENDBRANCH  11  18
BRANCH  13  20
ATOM     20  C   UNL     1      38.167 -26.013 -14.623  0.00  0.00    +0.169 C 
BRANCH  20  21
ATOM     21  O   UNL     1      37.428 -26.437 -15.755  0.00  0.00    -0.379 OA
ATOM     22  H   UNL     1      37.984 -26.373 -16.547  0.00  0.00    +0.211 HD
ENDBRANCH  20  21
ENDBRANCH  13  20
ENDBRANCH   2  12
BRANCH   5  23
ATOM     23  C   UNL     1      33.500 -23.496 -18.653  0.00  0.00    +0.061 C 
BRANCH  23  25
ATOM     24  S   UNL     1      35.593 -21.883 -19.423  0.00  0.00    -0.091 S 
ATOM     25  C   UNL     1      33.941 -22.205 -19.313  0.00  0.00    +0.012 C 
ATOM     26  C   UNL     1      33.150 -21.246 -19.843  0.00  0.00    +0.003 C 
ATOM     27  C   UNL     1      33.919 -20.162 -20.384  0.00  0.00    +0.006 C 
ATOM     28  C   UNL     1      35.290 -20.384 -20.220  0.00  0.00    +0.029 C 
ATOM     29  C   UNL     1      33.506 -18.969 -21.024  0.00  0.00    +0.001 C 
ATOM     30  C   UNL     1      36.246 -19.453 -20.674  0.00  0.00    +0.006 C 
ATOM     31  C   UNL     1      34.452 -18.044 -21.475  0.00  0.00    +0.000 C 
ATOM     32  C   UNL     1      35.808 -18.286 -21.300  0.00  0.00    +0.001 C 
ENDBRANCH  23  25
ENDBRANCH   5  23
TORSDOF 8
ENDMDL
MODEL 2
REMARK VINA RESULT:     -11.2      7.944     12.426
REMARK  Name = 10453870
REMARK  8 active torsions:
REMARK  status: ('A' for Active; 'I' for Inactive)
REMARK    1  A    between atoms: C_2  and  C_12
REMARK    2  A    between atoms: C_5  and  C_23
REMARK    3  A    between atoms: C_9  and  O_14
REMARK    4  A    between atoms: C_10  and  O_16
REMARK    5  A    between atoms: C_11  and  O_18
REMARK    6  A    between atoms: C_13  and  C_20
REMARK    7  A    between atoms: C_20  and  O_21
REMARK    8  A    between atoms: C_23  and  C_25
REMARK                            x       y       z     vdW  Elec       q    Type
REMARK                         _______ _______ _______ _____ _____    ______ ____
ROOT
ATOM      1  F   UNL     1      35.424 -18.760 -24.487  0.00  0.00    -0.204 F 
ATOM      2  C   UNL     1      33.782 -14.982 -24.226  0.00  0.00    +0.007 C 
ATOM      3  C   UNL     1      34.630 -15.440 -23.218  0.00  0.00    -0.004 C 
ATOM      4  C   UNL     1      33.490 -15.796 -25.319  0.00  0.00    +0.000 C 
ATOM      5  C   UNL     1      35.186 -16.716 -23.304  0.00  0.00    +0.010 C 
ATOM      6  C   UNL     1      34.047 -17.072 -25.404  0.00  0.00    +0.029 C 
ATOM      7  C   UNL     1      34.895 -17.533 -24.396  0.00  0.00    +0.136 C 
ENDROOT
BRANCH   2  12
ATOM      8  O   UNL     1      34.163 -12.660 -24.583  0.00  0.00    -0.347 OA
ATOM      9  C   UNL     1      32.720 -13.262 -22.706  0.00  0.00    +0.171 C 
ATOM     10  C   UNL     1      32.263 -11.804 -22.603  0.00  0.00    +0.169 C 
ATOM     11  C   UNL     1      33.287 -10.854 -23.224  0.00  0.00    +0.169 C 
ATOM     12  C   UNL     1      33.178 -13.595 -24.134  0.00  0.00    +0.167 C 
ATOM     13  C   UNL     1      33.675 -11.319 -24.629  0.00  0.00    +0.174 C 
BRANCH   9  14
ATOM     14  O   UNL     1      31.628 -14.115 -22.365  0.00  0.00    -0.379 OA
ATOM     15  H   UNL     1      31.257 -13.841 -21.512  0.00  0.00    +0.211 HD
ENDBRANCH   9  14
BRANCH  10  16
ATOM     16  O   UNL     1      32.111 -11.449 -21.227  0.00  0.00    -0.379 OA
ATOM     17  H   UNL     1      32.092 -10.484 -21.142  0.00  0.00    +0.211 HD
ENDBRANCH  10  16
BRANCH  11  18
ATOM     18  O   UNL     1      32.730  -9.545 -23.299  0.00  0.00    -0.379 OA
ATOM     19  H   UNL     1      32.482  -9.247 -22.409  0.00  0.00    +0.211 HD
ENDBRANCH  11  18
BRANCH  13  20
ATOM     20  C   UNL     1      34.776 -10.450 -25.228  0.00  0.00    +0.169 C 
BRANCH  20  21
ATOM     21  O   UNL     1      35.505  -9.854 -24.170  0.00  0.00    -0.379 OA
ATOM     22  H   UNL     1      36.450 -10.037 -24.285  0.00  0.00    +0.211 HD
ENDBRANCH  20  21
ENDBRANCH  13  20
ENDBRANCH   2  12
BRANCH   5  23
ATOM     23  C   UNL     1      36.093 -17.205 -22.224  0.00  0.00    +0.061 C 
BRANCH  23  25
ATOM     24  S   UNL     1      36.645 -19.529 -20.857  0.00  0.00    -0.091 S 
ATOM     25  C   UNL     1      35.549 -18.405 -21.476  0.00  0.00    +0.012 C 
ATOM     26  C   UNL     1      34.253 -18.700 -21.234  0.00  0.00    +0.003 C 
ATOM     27  C   UNL     1      34.115 -19.921 -20.493  0.00  0.00    +0.006 C 
ATOM     28  C   UNL     1      35.363 -20.488 -20.216  0.00  0.00    +0.029 C 
ATOM     29  C   UNL     1      32.957 -20.592 -20.031  0.00  0.00    +0.001 C 
ATOM     30  C   UNL     1      35.481 -21.694 -19.498  0.00  0.00    +0.006 C 
ATOM     31  C   UNL     1      33.071 -21.789 -19.319  0.00  0.00    +0.000 C 
ATOM     32  C   UNL     1      34.321 -22.333 -19.056  0.00  0.00    +0.001 C 
ENDBRANCH  23  25
ENDBRANCH   5  23
TORSDOF 8
ENDMDL
MODEL 3
REMARK VINA RESULT:     -10.7      8.422     12.960
REMARK  Name = 10453870
REMARK  8 active torsions:
REMARK  status: ('A' for Active; 'I' for Inactive)
REMARK    1  A    between atoms: C_2  and  C_12
REMARK    2  A    between atoms: C_5  and  C_23
REMARK    3  A    between atoms: C_9  and  O_14
REMARK    4  A    between atoms: C_10  and  O_16
REMARK    5  A    between atoms: C_11  and  O_18
REMARK    6  A    between atoms: C_13  and  C_20
REMARK    7  A    between atoms: C_20  and  O_21
REMARK    8  A    between atoms: C_23  and  C_25
REMARK                            x       y       z     vdW  Elec       q    Type
REMARK                         _______ _______ _______ _____ _____    ______ ____
ROOT
ATOM      1  F   UNL     1      34.243 -17.417 -25.504  0.00  0.00    -0.204 F 
ATOM      2  C   UNL     1      33.656 -13.768 -23.665  0.00  0.00    +0.007 C 
ATOM      3  C   UNL     1      34.626 -14.643 -23.175  0.00  0.00    -0.004 C 
ATOM      4  C   UNL     1      32.888 -14.124 -24.771  0.00  0.00    +0.000 C 
ATOM      5  C   UNL     1      34.827 -15.877 -23.795  0.00  0.00    +0.010 C 
ATOM      6  C   UNL     1      33.088 -15.358 -25.391  0.00  0.00    +0.029 C 
ATOM      7  C   UNL     1      34.058 -16.234 -24.902  0.00  0.00    +0.136 C 
ENDROOT
BRANCH   2  12
ATOM      8  O   UNL     1      32.163 -12.469 -22.345  0.00  0.00    -0.347 OA
ATOM      9  C   UNL     1      33.505 -11.265 -23.993  0.00  0.00    +0.171 C 
ATOM     10  C   UNL     1      33.124  -9.942 -23.322  0.00  0.00    +0.169 C 
ATOM     11  C   UNL     1      31.826 -10.075 -22.526  0.00  0.00    +0.169 C 
ATOM     12  C   UNL     1      33.438 -12.428 -22.992  0.00  0.00    +0.167 C 
ATOM     13  C   UNL     1      31.884 -11.287 -21.594  0.00  0.00    +0.174 C 
BRANCH   9  14
ATOM     14  O   UNL     1      34.840 -11.165 -24.489  0.00  0.00    -0.379 OA
ATOM     15  H   UNL     1      34.841 -10.663 -25.318  0.00  0.00    +0.211 HD
ENDBRANCH   9  14
BRANCH  10  16
ATOM     16  O   UNL     1      32.927  -8.942 -24.323  0.00  0.00    -0.379 OA
ATOM     17  H   UNL     1      33.117  -8.067 -23.949  0.00  0.00    +0.211 HD
ENDBRANCH  10  16
BRANCH  11  18
ATOM     18  O   UNL     1      31.625  -8.896 -21.753  0.00  0.00    -0.379 OA
ATOM     19  H   UNL     1      31.081  -9.106 -20.978  0.00  0.00    +0.211 HD
ENDBRANCH  11  18
BRANCH  13  20
ATOM     20  C   UNL     1      30.560 -11.505 -20.869  0.00  0.00    +0.169 C 
BRANCH  20  21
ATOM     21  O   UNL     1      30.575 -10.758 -19.666  0.00  0.00    -0.379 OA
ATOM     22  H   UNL     1      29.936 -10.032 -19.728  0.00  0.00    +0.211 HD
ENDBRANCH  20  21
ENDBRANCH  13  20
ENDBRANCH   2  12
BRANCH   5  23
ATOM     23  C   UNL     1      35.864 -16.811 -23.270  0.00  0.00    +0.061 C 
BRANCH  23  25
ATOM     24  S   UNL     1      36.382 -18.950 -21.617  0.00  0.00    -0.091 S 
ATOM     25  C   UNL     1      35.305 -17.885 -22.359  0.00  0.00    +0.012 C 
ATOM     26  C   UNL     1      34.006 -18.105 -22.055  0.00  0.00    +0.003 C 
ATOM     27  C   UNL     1      33.852 -19.213 -21.157  0.00  0.00    +0.006 C 
ATOM     28  C   UNL     1      35.089 -19.776 -20.830  0.00  0.00    +0.029 C 
ATOM     29  C   UNL     1      32.686 -19.782 -20.587  0.00  0.00    +0.001 C 
ATOM     30  C   UNL     1      35.190 -20.880 -19.960  0.00  0.00    +0.006 C 
ATOM     31  C   UNL     1      32.783 -20.876 -19.725  0.00  0.00    +0.000 C 
ATOM     32  C   UNL     1      34.023 -21.419 -19.416  0.00  0.00    +0.001 C 
ENDBRANCH  23  25
ENDBRANCH   5  23
TORSDOF 8
ENDMDL
MODEL 4
REMARK VINA RESULT:     -10.3      2.390      4.397
REMARK  Name = 10453870
REMARK  8 active torsions:
REMARK  status: ('A' for Active; 'I' for Inactive)
REMARK    1  A    between atoms: C_2  and  C_12
REMARK    2  A    between atoms: C_5  and  C_23
REMARK    3  A    between atoms: C_9  and  O_14
REMARK    4  A    between atoms: C_10  and  O_16
REMARK    5  A    between atoms: C_11  and  O_18
REMARK    6  A    between atoms: C_13  and  C_20
REMARK    7  A    between atoms: C_20  and  O_21
REMARK    8  A    between atoms: C_23  and  C_25
REMARK                            x       y       z     vdW  Elec       q    Type
REMARK                         _______ _______ _______ _____ _____    ______ ____
ROOT
ATOM      1  F   UNL     1      33.305 -19.881 -21.350  0.00  0.00    -0.204 F 
ATOM      2  C   UNL     1      34.556 -22.259 -18.216  0.00  0.00    +0.007 C 
ATOM      3  C   UNL     1      35.499 -21.618 -19.018  0.00  0.00    -0.004 C 
ATOM      4  C   UNL     1      33.195 -22.098 -18.471  0.00  0.00    +0.000 C 
ATOM      5  C   UNL     1      35.080 -20.813 -20.078  0.00  0.00    +0.010 C 
ATOM      6  C   UNL     1      32.776 -21.293 -19.531  0.00  0.00    +0.029 C 
ATOM      7  C   UNL     1      33.718 -20.651 -20.334  0.00  0.00    +0.136 C 
ENDROOT
BRANCH   2  12
ATOM      8  O   UNL     1      33.913 -23.262 -16.156  0.00  0.00    -0.347 OA
ATOM      9  C   UNL     1      36.242 -22.551 -16.354  0.00  0.00    +0.171 C 
ATOM     10  C   UNL     1      36.586 -23.362 -15.101  0.00  0.00    +0.169 C 
ATOM     11  C   UNL     1      35.350 -23.594 -14.232  0.00  0.00    +0.169 C 
ATOM     12  C   UNL     1      35.011 -23.133 -17.065  0.00  0.00    +0.167 C 
ATOM     13  C   UNL     1      34.194 -24.145 -15.069  0.00  0.00    +0.174 C 
BRANCH   9  14
ATOM     14  O   UNL     1      37.351 -22.595 -17.252  0.00  0.00    -0.379 OA
ATOM     15  H   UNL     1      37.035 -22.486 -18.162  0.00  0.00    +0.211 HD
ENDBRANCH   9  14
BRANCH  10  16
ATOM     16  O   UNL     1      37.545 -22.647 -14.320  0.00  0.00    -0.379 OA
ATOM     17  H   UNL     1      37.366 -22.787 -13.378  0.00  0.00    +0.211 HD
ENDBRANCH  10  16
BRANCH  11  18
ATOM     18  O   UNL     1      35.667 -24.523 -13.199  0.00  0.00    -0.379 OA
ATOM     19  H   UNL     1      34.858 -24.971 -12.906  0.00  0.00    +0.211 HD
ENDBRANCH  11  18
BRANCH  13  20
ATOM     20  C   UNL     1      32.916 -24.281 -14.247  0.00  0.00    +0.169 C 
BRANCH  20  21
ATOM     21  O   UNL     1      32.978 -23.372 -13.163  0.00  0.00    -0.379 OA
ATOM     22  H   UNL     1      32.090 -23.029 -12.977  0.00  0.00    +0.211 HD
ENDBRANCH  20  21
ENDBRANCH  13  20
ENDBRANCH   2  12
BRANCH   5  23
ATOM     23  C   UNL     1      36.090 -20.128 -20.935  0.00  0.00    +0.061 C 
BRANCH  23  25
ATOM     24  S   UNL     1      35.483 -18.546 -23.104  0.00  0.00    -0.091 S 
ATOM     25  C   UNL     1      35.636 -18.773 -21.439  0.00  0.00    +0.012 C 
ATOM     26  C   UNL     1      35.328 -17.686 -20.698  0.00  0.00    +0.003 C 
ATOM     27  C   UNL     1      34.936 -16.577 -21.519  0.00  0.00    +0.006 C 
ATOM     28  C   UNL     1      34.976 -16.913 -22.876  0.00  0.00    +0.029 C 
ATOM     29  C   UNL     1      34.537 -15.265 -21.167  0.00  0.00    +0.001 C 
ATOM     30  C   UNL     1      34.632 -15.983 -23.876  0.00  0.00    +0.006 C 
ATOM     31  C   UNL     1      34.195 -14.340 -22.157  0.00  0.00    +0.000 C 
ATOM     32  C   UNL     1      34.243 -14.697 -23.497  0.00  0.00    +0.001 C 
ENDBRANCH  23  25
ENDBRANCH   5  23
TORSDOF 8
ENDMDL
MODEL 5
REMARK VINA RESULT:     -10.0      5.690      9.968
REMARK  Name = 10453870
REMARK  8 active torsions:
REMARK  status: ('A' for Active; 'I' for Inactive)
REMARK    1  A    between atoms: C_2  and  C_12
REMARK    2  A    between atoms: C_5  and  C_23
REMARK    3  A    between atoms: C_9  and  O_14
REMARK    4  A    between atoms: C_10  and  O_16
REMARK    5  A    between atoms: C_11  and  O_18
REMARK    6  A    between atoms: C_13  and  C_20
REMARK    7  A    between atoms: C_20  and  O_21
REMARK    8  A    between atoms: C_23  and  C_25
REMARK                            x       y       z     vdW  Elec       q    Type
REMARK                         _______ _______ _______ _____ _____    ______ ____
ROOT
ATOM      1  F   UNL     1      33.530 -22.519 -19.384  0.00  0.00    -0.204 F 
ATOM      2  C   UNL     1      34.436 -18.822 -20.983  0.00  0.00    +0.007 C 
ATOM      3  C   UNL     1      35.455 -19.622 -20.468  0.00  0.00    -0.004 C 
ATOM      4  C   UNL     1      33.116 -19.268 -20.958  0.00  0.00    +0.000 C 
ATOM      5  C   UNL     1      35.152 -20.872 -19.927  0.00  0.00    +0.010 C 
ATOM      6  C   UNL     1      32.813 -20.518 -20.417  0.00  0.00    +0.029 C 
ATOM      7  C   UNL     1      33.832 -21.320 -19.902  0.00  0.00    +0.136 C 
ENDROOT
BRANCH   2  12
ATOM      8  O   UNL     1      33.742 -16.552 -21.156  0.00  0.00    -0.347 OA
ATOM      9  C   UNL     1      34.866 -17.511 -23.102  0.00  0.00    +0.171 C 
ATOM     10  C   UNL     1      35.038 -16.104 -23.683  0.00  0.00    +0.169 C 
ATOM     11  C   UNL     1      34.010 -15.133 -23.102  0.00  0.00    +0.169 C 
ATOM     12  C   UNL     1      34.764 -17.464 -21.570  0.00  0.00    +0.167 C 
ATOM     13  C   UNL     1      33.994 -15.210 -21.575  0.00  0.00    +0.174 C 
BRANCH   9  14
ATOM     14  O   UNL     1      35.998 -18.302 -23.462  0.00  0.00    -0.379 OA
ATOM     15  H   UNL     1      36.416 -17.928 -24.253  0.00  0.00    +0.211 HD
ENDBRANCH   9  14
BRANCH  10  16
ATOM     16  O   UNL     1      34.851 -16.148 -25.099  0.00  0.00    -0.379 OA
ATOM     17  H   UNL     1      34.067 -15.631 -25.339  0.00  0.00    +0.211 HD
ENDBRANCH  10  16
BRANCH  11  18
ATOM     18  O   UNL     1      34.339 -13.805 -23.502  0.00  0.00    -0.379 OA
ATOM     19  H   UNL     1      34.376 -13.231 -22.721  0.00  0.00    +0.211 HD
ENDBRANCH  11  18
BRANCH  13  20
ATOM     20  C   UNL     1      32.901 -14.331 -20.976  0.00  0.00    +0.169 C 
BRANCH  20  21
ATOM     21  O   UNL     1      31.941 -14.057 -21.982  0.00  0.00    -0.379 OA
ATOM     22  H   UNL     1      32.084 -14.650 -22.735  0.00  0.00    +0.211 HD
ENDBRANCH  20  21
ENDBRANCH  13  20
ENDBRANCH   2  12
BRANCH   5  23
ATOM     23  C   UNL     1      36.244 -21.727 -19.377  0.00  0.00    +0.061 C 
BRANCH  23  25
ATOM     24  S   UNL     1      37.240 -22.011 -16.827  0.00  0.00    -0.091 S 
ATOM     25  C   UNL     1      35.995 -22.182 -17.953  0.00  0.00    +0.012 C 
ATOM     26  C   UNL     1      34.863 -22.725 -17.453  0.00  0.00    +0.003 C 
ATOM     27  C   UNL     1      34.993 -23.033 -16.058  0.00  0.00    +0.006 C 
ATOM     28  C   UNL     1      36.261 -22.688 -15.579  0.00  0.00    +0.029 C 
ATOM     29  C   UNL     1      34.068 -23.604 -15.151  0.00  0.00    +0.001 C 
ATOM     30  C   UNL     1      36.623 -22.899 -14.234  0.00  0.00    +0.006 C 
ATOM     31  C   UNL     1      34.424 -23.814 -13.816  0.00  0.00    +0.000 C 
ATOM     32  C   UNL     1      35.689 -23.464 -13.364  0.00  0.00    +0.001 C 
ENDBRANCH  23  25
ENDBRANCH   5  23
TORSDOF 8
ENDMDL
MODEL 6
REMARK VINA RESULT:     -10.0     12.226     16.611
REMARK  Name = 10453870
REMARK  8 active torsions:
REMARK  status: ('A' for Active; 'I' for Inactive)
REMARK    1  A    between atoms: C_2  and  C_12
REMARK    2  A    between atoms: C_5  and  C_23
REMARK    3  A    between atoms: C_9  and  O_14
REMARK    4  A    between atoms: C_10  and  O_16
REMARK    5  A    between atoms: C_11  and  O_18
REMARK    6  A    between atoms: C_13  and  C_20
REMARK    7  A    between atoms: C_20  and  O_21
REMARK    8  A    between atoms: C_23  and  C_25
REMARK                            x       y       z     vdW  Elec       q    Type
REMARK                         _______ _______ _______ _____ _____    ______ ____
ROOT
ATOM      1  F   UNL     1      31.386 -11.080 -19.021  0.00  0.00    -0.204 F 
ATOM      2  C   UNL     1      32.502  -8.085 -21.634  0.00  0.00    +0.007 C 
ATOM      3  C   UNL     1      31.949  -9.266 -22.129  0.00  0.00    -0.004 C 
ATOM      4  C   UNL     1      32.678  -7.916 -20.262  0.00  0.00    +0.000 C 
ATOM      5  C   UNL     1      31.571 -10.279 -21.248  0.00  0.00    +0.010 C 
ATOM      6  C   UNL     1      32.299  -8.930 -19.382  0.00  0.00    +0.029 C 
ATOM      7  C   UNL     1      31.746 -10.112 -19.875  0.00  0.00    +0.136 C 
ENDROOT
BRANCH   2  12
ATOM      8  O   UNL     1      31.727  -6.482 -23.213  0.00  0.00    -0.347 OA
ATOM      9  C   UNL     1      33.914  -7.482 -23.645  0.00  0.00    +0.171 C 
ATOM     10  C   UNL     1      34.190  -6.400 -24.693  0.00  0.00    +0.169 C 
ATOM     11  C   UNL     1      32.891  -5.796 -25.225  0.00  0.00    +0.169 C 
ATOM     12  C   UNL     1      32.914  -6.984 -22.591  0.00  0.00    +0.167 C 
ATOM     13  C   UNL     1      31.979  -5.371 -24.073  0.00  0.00    +0.174 C 
BRANCH   9  14
ATOM     14  O   UNL     1      35.137  -7.818 -22.992  0.00  0.00    -0.379 OA
ATOM     15  H   UNL     1      35.286  -8.774 -23.054  0.00  0.00    +0.211 HD
ENDBRANCH   9  14
BRANCH  10  16
ATOM     16  O   UNL     1      34.893  -6.975 -25.796  0.00  0.00    -0.379 OA
ATOM     17  H   UNL     1      35.848  -6.901 -25.645  0.00  0.00    +0.211 HD
ENDBRANCH  10  16
BRANCH  11  18
ATOM     18  O   UNL     1      33.195  -4.659 -26.028  0.00  0.00    -0.379 OA
ATOM     19  H   UNL     1      32.370  -4.249 -26.334  0.00  0.00    +0.211 HD
ENDBRANCH  11  18
BRANCH  13  20
ATOM     20  C   UNL     1      30.631  -4.865 -24.576  0.00  0.00    +0.169 C 
BRANCH  20  21
ATOM     21  O   UNL     1      30.668  -3.450 -24.624  0.00  0.00    -0.379 OA
ATOM     22  H   UNL     1      31.128  -3.166 -25.429  0.00  0.00    +0.211 HD
ENDBRANCH  20  21
ENDBRANCH  13  20
ENDBRANCH   2  12
BRANCH   5  23
ATOM     23  C   UNL     1      30.979 -11.542 -21.780  0.00  0.00    +0.061 C 
BRANCH  23  25
ATOM     24  S   UNL     1      32.720 -13.012 -23.323  0.00  0.00    -0.091 S 
ATOM     25  C   UNL     1      31.966 -12.689 -21.849  0.00  0.00    +0.012 C 
ATOM     26  C   UNL     1      32.332 -13.516 -20.844  0.00  0.00    +0.003 C 
ATOM     27  C   UNL     1      33.292 -14.488 -21.279  0.00  0.00    +0.006 C 
ATOM     28  C   UNL     1      33.600 -14.325 -22.634  0.00  0.00    +0.029 C 
ATOM     29  C   UNL     1      33.936 -15.530 -20.567  0.00  0.00    +0.001 C 
ATOM     30  C   UNL     1      34.521 -15.168 -23.286  0.00  0.00    +0.006 C 
ATOM     31  C   UNL     1      34.850 -16.367 -21.213  0.00  0.00    +0.000 C 
ATOM     32  C   UNL     1      35.139 -16.186 -22.558  0.00  0.00    +0.001 C 
ENDBRANCH  23  25
ENDBRANCH   5  23
TORSDOF 8
ENDMDL
MODEL 7
REMARK VINA RESULT:     -10.0      2.916      5.083
REMARK  Name = 10453870
REMARK  8 active torsions:
REMARK  status: ('A' for Active; 'I' for Inactive)
REMARK    1  A    between atoms: C_2  and  C_12
REMARK    2  A    between atoms: C_5  and  C_23
REMARK    3  A    between atoms: C_9  and  O_14
REMARK    4  A    between atoms: C_10  and  O_16
REMARK    5  A    between atoms: C_11  and  O_18
REMARK    6  A    between atoms: C_13  and  C_20
REMARK    7  A    between atoms: C_20  and  O_21
REMARK    8  A    between atoms: C_23  and  C_25
REMARK                            x       y       z     vdW  Elec       q    Type
REMARK                         _______ _______ _______ _____ _____    ______ ____
ROOT
ATOM      1  F   UNL     1      37.242 -19.972 -20.540  0.00  0.00    -0.204 F 
ATOM      2  C   UNL     1      34.866 -22.285 -18.080  0.00  0.00    +0.007 C 
ATOM      3  C   UNL     1      34.396 -21.899 -19.334  0.00  0.00    -0.004 C 
ATOM      4  C   UNL     1      36.135 -21.892 -17.657  0.00  0.00    +0.000 C 
ATOM      5  C   UNL     1      35.196 -21.118 -20.168  0.00  0.00    +0.010 C 
ATOM      6  C   UNL     1      36.936 -21.111 -18.491  0.00  0.00    +0.029 C 
ATOM      7  C   UNL     1      36.466 -20.723 -19.746  0.00  0.00    +0.136 C 
ENDROOT
BRANCH   2  12
ATOM      8  O   UNL     1      32.682 -22.570 -17.180  0.00  0.00    -0.347 OA
ATOM      9  C   UNL     1      34.554 -23.203 -15.744  0.00  0.00    +0.171 C 
ATOM     10  C   UNL     1      33.579 -23.928 -14.811  0.00  0.00    +0.169 C 
ATOM     11  C   UNL     1      32.159 -23.384 -14.958  0.00  0.00    +0.169 C 
ATOM     12  C   UNL     1      33.997 -23.133 -17.174  0.00  0.00    +0.167 C 
ATOM     13  C   UNL     1      31.744 -23.342 -16.430  0.00  0.00    +0.174 C 
BRANCH   9  14
ATOM     14  O   UNL     1      35.790 -23.917 -15.769  0.00  0.00    -0.379 OA
ATOM     15  H   UNL     1      35.826 -24.527 -15.016  0.00  0.00    +0.211 HD
ENDBRANCH   9  14
BRANCH  10  16
ATOM     16  O   UNL     1      33.987 -23.736 -13.455  0.00  0.00    -0.379 OA
ATOM     17  H   UNL     1      34.207 -24.593 -13.058  0.00  0.00    +0.211 HD
ENDBRANCH  10  16
BRANCH  11  18
ATOM     18  O   UNL     1      31.257 -24.221 -14.239  0.00  0.00    -0.379 OA
ATOM     19  H   UNL     1      31.233 -23.947 -13.309  0.00  0.00    +0.211 HD
ENDBRANCH  11  18
BRANCH  13  20
ATOM     20  C   UNL     1      30.372 -22.701 -16.612  0.00  0.00    +0.169 C 
BRANCH  20  21
ATOM     21  O   UNL     1      29.381 -23.695 -16.424  0.00  0.00    -0.379 OA
ATOM     22  H   UNL     1      29.335 -23.933 -15.485  0.00  0.00    +0.211 HD
ENDBRANCH  20  21
ENDBRANCH  13  20
ENDBRANCH   2  12
BRANCH   5  23
ATOM     23  C   UNL     1      34.691 -20.705 -21.509  0.00  0.00    +0.061 C 
BRANCH  23  25
ATOM     24  S   UNL     1      35.277 -18.460 -22.989  0.00  0.00    -0.091 S 
ATOM     25  C   UNL     1      34.544 -19.205 -21.665  0.00  0.00    +0.012 C 
ATOM     26  C   UNL     1      33.877 -18.359 -20.848  0.00  0.00    +0.003 C 
ATOM     27  C   UNL     1      33.953 -17.004 -21.313  0.00  0.00    +0.006 C 
ATOM     28  C   UNL     1      34.699 -16.913 -22.492  0.00  0.00    +0.029 C 
ATOM     29  C   UNL     1      33.407 -15.814 -20.773  0.00  0.00    +0.001 C 
ATOM     30  C   UNL     1      34.912 -15.678 -23.136  0.00  0.00    +0.006 C 
ATOM     31  C   UNL     1      33.617 -14.588 -21.410  0.00  0.00    +0.000 C 
ATOM     32  C   UNL     1      34.362 -14.523 -22.579  0.00  0.00    +0.001 C 
ENDBRANCH  23  25
ENDBRANCH   5  23
TORSDOF 8
ENDMDL
MODEL 8
REMARK VINA RESULT:      -9.7     10.576     13.612
REMARK  Name = 10453870
REMARK  8 active torsions:
REMARK  status: ('A' for Active; 'I' for Inactive)
REMARK    1  A    between atoms: C_2  and  C_12
REMARK    2  A    between atoms: C_5  and  C_23
REMARK    3  A    between atoms: C_9  and  O_14
REMARK    4  A    between atoms: C_10  and  O_16
REMARK    5  A    between atoms: C_11  and  O_18
REMARK    6  A    between atoms: C_13  and  C_20
REMARK    7  A    between atoms: C_20  and  O_21
REMARK    8  A    between atoms: C_23  and  C_25
REMARK                            x       y       z     vdW  Elec       q    Type
REMARK                         _______ _______ _______ _____ _____    ______ ____
ROOT
ATOM      1  F   UNL     1      30.833 -11.256 -19.405  0.00  0.00    -0.204 F 
ATOM      2  C   UNL     1      33.000 -13.529 -22.086  0.00  0.00    +0.007 C 
ATOM      3  C   UNL     1      32.250 -12.446 -22.543  0.00  0.00    -0.004 C 
ATOM      4  C   UNL     1      33.018 -13.844 -20.728  0.00  0.00    +0.000 C 
ATOM      5  C   UNL     1      31.518 -11.676 -21.640  0.00  0.00    +0.010 C 
ATOM      6  C   UNL     1      32.285 -13.074 -19.825  0.00  0.00    +0.029 C 
ATOM      7  C   UNL     1      31.534 -11.989 -20.281  0.00  0.00    +0.136 C 
ENDROOT
BRANCH   2  12
ATOM      8  O   UNL     1      33.066 -14.407 -24.297  0.00  0.00    -0.347 OA
ATOM      9  C   UNL     1      34.051 -15.785 -22.536  0.00  0.00    +0.171 C 
ATOM     10  C   UNL     1      34.714 -16.658 -23.605  0.00  0.00    +0.169 C 
ATOM     11  C   UNL     1      33.978 -16.558 -24.941  0.00  0.00    +0.169 C 
ATOM     12  C   UNL     1      33.796 -14.366 -23.066  0.00  0.00    +0.167 C 
ATOM     13  C   UNL     1      33.765 -15.095 -25.334  0.00  0.00    +0.174 C 
BRANCH   9  14
ATOM     14  O   UNL     1      34.917 -15.701 -21.404  0.00  0.00    -0.379 OA
ATOM     15  H   UNL     1      35.578 -15.008 -21.553  0.00  0.00    +0.211 HD
ENDBRANCH   9  14
BRANCH  10  16
ATOM     16  O   UNL     1      34.685 -18.025 -23.188  0.00  0.00    -0.379 OA
ATOM     17  H   UNL     1      33.903 -18.177 -22.635  0.00  0.00    +0.211 HD
ENDBRANCH  10  16
BRANCH  11  18
ATOM     18  O   UNL     1      34.744 -17.209 -25.951  0.00  0.00    -0.379 OA
ATOM     19  H   UNL     1      35.608 -17.462 -25.589  0.00  0.00    +0.211 HD
ENDBRANCH  11  18
BRANCH  13  20
ATOM     20  C   UNL     1      32.937 -14.967 -26.608  0.00  0.00    +0.169 C 
BRANCH  20  21
ATOM     21  O   UNL     1      32.219 -16.172 -26.802  0.00  0.00    -0.379 OA
ATOM     22  H   UNL     1      32.487 -16.820 -26.133  0.00  0.00    +0.211 HD
ENDBRANCH  20  21
ENDBRANCH  13  20
ENDBRANCH   2  12
BRANCH   5  23
ATOM     23  C   UNL     1      30.716 -10.517 -22.131  0.00  0.00    +0.061 C 
BRANCH  23  25
ATOM     24  S   UNL     1      30.758  -8.121 -23.485  0.00  0.00    -0.091 S 
ATOM     25  C   UNL     1      31.549  -9.455 -22.819  0.00  0.00    +0.012 C 
ATOM     26  C   UNL     1      32.892  -9.440 -22.973  0.00  0.00    +0.003 C 
ATOM     27  C   UNL     1      33.332  -8.271 -23.678  0.00  0.00    +0.006 C 
ATOM     28  C   UNL     1      32.253  -7.450 -24.022  0.00  0.00    +0.029 C 
ATOM     29  C   UNL     1      34.634  -7.856 -24.051  0.00  0.00    +0.001 C 
ATOM     30  C   UNL     1      32.441  -6.243 -24.723  0.00  0.00    +0.006 C 
ATOM     31  C   UNL     1      34.822  -6.658 -24.746  0.00  0.00    +0.000 C 
ATOM     32  C   UNL     1      33.736  -5.861 -25.077  0.00  0.00    +0.001 C 
ENDBRANCH  23  25
ENDBRANCH   5  23
TORSDOF 8
ENDMDL
MODEL 9
REMARK VINA RESULT:      -9.6      4.129      7.565
REMARK  Name = 10453870
REMARK  8 active torsions:
REMARK  status: ('A' for Active; 'I' for Inactive)
REMARK    1  A    between atoms: C_2  and  C_12
REMARK    2  A    between atoms: C_5  and  C_23
REMARK    3  A    between atoms: C_9  and  O_14
REMARK    4  A    between atoms: C_10  and  O_16
REMARK    5  A    between atoms: C_11  and  O_18
REMARK    6  A    between atoms: C_13  and  C_20
REMARK    7  A    between atoms: C_20  and  O_21
REMARK    8  A    between atoms: C_23  and  C_25
REMARK                            x       y       z     vdW  Elec       q    Type
REMARK                         _______ _______ _______ _____ _____    ______ ____
ROOT
ATOM      1  F   UNL     1      36.974 -23.407 -13.433  0.00  0.00    -0.204 F 
ATOM      2  C   UNL     1      35.884 -22.392 -17.283  0.00  0.00    +0.007 C 
ATOM      3  C   UNL     1      34.980 -23.065 -16.462  0.00  0.00    -0.004 C 
ATOM      4  C   UNL     1      37.151 -22.064 -16.807  0.00  0.00    +0.000 C 
ATOM      5  C   UNL     1      35.345 -23.409 -15.160  0.00  0.00    +0.010 C 
ATOM      6  C   UNL     1      37.517 -22.408 -15.505  0.00  0.00    +0.029 C 
ATOM      7  C   UNL     1      36.613 -23.081 -14.682  0.00  0.00    +0.136 C 
ENDROOT
BRANCH   2  12
ATOM      8  O   UNL     1      36.211 -20.837 -19.054  0.00  0.00    -0.347 OA
ATOM      9  C   UNL     1      33.973 -21.791 -18.828  0.00  0.00    +0.171 C 
ATOM     10  C   UNL     1      33.617 -21.259 -20.220  0.00  0.00    +0.169 C 
ATOM     11  C   UNL     1      34.514 -20.086 -20.614  0.00  0.00    +0.169 C 
ATOM     12  C   UNL     1      35.487 -22.018 -18.697  0.00  0.00    +0.167 C 
ATOM     13  C   UNL     1      35.989 -20.438 -20.407  0.00  0.00    +0.174 C 
BRANCH   9  14
ATOM     14  O   UNL     1      33.305 -23.035 -18.622  0.00  0.00    -0.379 OA
ATOM     15  H   UNL     1      33.230 -23.209 -17.671  0.00  0.00    +0.211 HD
ENDBRANCH   9  14
BRANCH  10  16
ATOM     16  O   UNL     1      32.265 -20.800 -20.221  0.00  0.00    -0.379 OA
ATOM     17  H   UNL     1      32.192 -20.007 -20.774  0.00  0.00    +0.211 HD
ENDBRANCH  10  16
BRANCH  11  18
ATOM     18  O   UNL     1      34.295 -19.765 -21.984  0.00  0.00    -0.379 OA
ATOM     19  H   UNL     1      34.554 -20.518 -22.539  0.00  0.00    +0.211 HD
ENDBRANCH  11  18
BRANCH  13  20
ATOM     20  C   UNL     1      36.898 -19.246 -20.689  0.00  0.00    +0.169 C 
BRANCH  20  21
ATOM     21  O   UNL     1      36.102 -18.076 -20.755  0.00  0.00    -0.379 OA
ATOM     22  H   UNL     1      36.576 -17.339 -20.342  0.00  0.00    +0.211 HD
ENDBRANCH  20  21
ENDBRANCH  13  20
ENDBRANCH   2  12
BRANCH   5  23
ATOM     23  C   UNL     1      34.377 -24.128 -14.283  0.00  0.00    +0.061 C 
BRANCH  23  25
ATOM     24  S   UNL     1      31.782 -25.025 -14.080  0.00  0.00    -0.091 S 
ATOM     25  C   UNL     1      32.934 -23.969 -14.717  0.00  0.00    +0.012 C 
ATOM     26  C   UNL     1      32.435 -23.057 -15.581  0.00  0.00    +0.003 C 
ATOM     27  C   UNL     1      31.019 -23.206 -15.752  0.00  0.00    +0.006 C 
ATOM     28  C   UNL     1      30.524 -24.260 -14.977  0.00  0.00    +0.029 C 
ATOM     29  C   UNL     1      30.105 -22.476 -16.550  0.00  0.00    +0.001 C 
ATOM     30  C   UNL     1      29.156 -24.598 -14.982  0.00  0.00    +0.006 C 
ATOM     31  C   UNL     1      28.748 -22.809 -16.556  0.00  0.00    +0.000 C 
ATOM     32  C   UNL     1      28.281 -23.860 -15.780  0.00  0.00    +0.001 C 
ENDBRANCH  23  25
ENDBRANCH   5  23
TORSDOF 8
ENDMDL
