MODEL 1
REMARK VINA RESULT:      -8.8      0.000      0.000
REMARK  Name = 3000237
REMARK  2 active torsions:
REMARK  status: ('A' for Active; 'I' for Inactive)
REMARK    1  A    between atoms: N_3  and  C_19
REMARK    2  A    between atoms: C_19  and  C_20
REMARK                            x       y       z     vdW  Elec       q    Type
REMARK                         _______ _______ _______ _____ _____    ______ ____
ROOT
ATOM      1 CL   UNL     1      32.609 -13.204 -27.626  0.00  0.00    -0.082 Cl
ATOM      2  S   UNL     1      35.218 -18.763 -22.760  0.00  0.00    -0.013 S 
ATOM      3  N   UNL     1      32.519 -14.004 -21.445  0.00  0.00    +0.395 N 
ATOM      4  N   UNL     1      34.297 -16.133 -22.844  0.00  0.00    -0.310 N 
ATOM      5  N   UNL     1      34.353 -17.230 -24.837  0.00  0.00    -0.333 N 
ATOM      6  C   UNL     1      33.218 -15.130 -20.784  0.00  0.00    -0.034 C 
ATOM      7  C   UNL     1      34.484 -15.694 -21.471  0.00  0.00    +0.087 C 
ATOM      8  C   UNL     1      33.310 -13.244 -22.422  0.00  0.00    -0.048 C 
ATOM      9  C   UNL     1      33.845 -15.260 -23.850  0.00  0.00    +0.071 A 
ATOM     10  C   UNL     1      33.405 -13.954 -23.746  0.00  0.00    -0.025 C 
ATOM     11  C   UNL     1      33.887 -15.936 -25.067  0.00  0.00    +0.075 A 
ATOM     12  C   UNL     1      32.203 -16.265 -20.571  0.00  0.00    -0.021 C 
ATOM     13  C   UNL     1      34.624 -17.375 -23.452  0.00  0.00    +0.159 A 
ATOM     14  C   UNL     1      33.033 -13.331 -24.949  0.00  0.00    +0.007 C 
ATOM     15  C   UNL     1      33.515 -15.345 -26.252  0.00  0.00    +0.030 C 
ATOM     16  C   UNL     1      33.087 -14.018 -26.183  0.00  0.00    +0.059 C 
ATOM     17  H   UNL     1      31.787 -14.452 -21.997  0.00  0.00    -0.079 HD
ATOM     18  H   UNL     1      34.474 -17.928 -25.522  0.00  0.00    +0.168 HD
ENDROOT
BRANCH   3  19
ATOM     19  C   UNL     1      31.928 -13.100 -20.452  0.00  0.00    -0.050 C 
BRANCH  19  20
ATOM     20  C   UNL     1      31.955 -11.676 -20.922  0.00  0.00    -0.058 C 
ATOM     21  C   UNL     1      31.747 -10.554 -20.206  0.00  0.00    -0.050 C 
ATOM     22  C   UNL     1      31.788  -9.153 -20.743  0.00  0.00    +0.026 C 
ATOM     23  C   UNL     1      31.437 -10.642 -18.733  0.00  0.00    +0.026 C 
ENDBRANCH  19  20
ENDBRANCH   3  19
TORSDOF 2
ENDMDL
MODEL 2
REMARK VINA RESULT:      -8.6      3.282      6.265
REMARK  Name = 3000237
REMARK  2 active torsions:
REMARK  status: ('A' for Active; 'I' for Inactive)
REMARK    1  A    between atoms: N_3  and  C_19
REMARK    2  A    between atoms: C_19  and  C_20
REMARK                            x       y       z     vdW  Elec       q    Type
REMARK                         _______ _______ _______ _____ _____    ______ ____
ROOT
ATOM      1 CL   UNL     1      32.082 -13.071 -19.503  0.00  0.00    -0.082 Cl
ATOM      2  S   UNL     1      33.266 -14.511 -27.113  0.00  0.00    -0.013 S 
ATOM      3  N   UNL     1      34.685 -17.731 -22.721  0.00  0.00    +0.395 N 
ATOM      4  N   UNL     1      34.029 -15.309 -24.552  0.00  0.00    -0.310 N 
ATOM      5  N   UNL     1      32.473 -13.651 -24.655  0.00  0.00    -0.333 N 
ATOM      6  C   UNL     1      34.877 -17.668 -24.189  0.00  0.00    -0.034 C 
ATOM      7  C   UNL     1      35.081 -16.273 -24.828  0.00  0.00    +0.087 C 
ATOM      8  C   UNL     1      35.141 -16.558 -21.964  0.00  0.00    -0.048 C 
ATOM      9  C   UNL     1      33.693 -14.927 -23.241  0.00  0.00    +0.071 A 
ATOM     10  C   UNL     1      34.156 -15.422 -22.037  0.00  0.00    -0.025 C 
ATOM     11  C   UNL     1      32.745 -13.909 -23.312  0.00  0.00    +0.075 A 
ATOM     12  C   UNL     1      33.684 -18.368 -24.859  0.00  0.00    -0.021 C 
ATOM     13  C   UNL     1      33.271 -14.511 -25.452  0.00  0.00    +0.159 A 
ATOM     14  C   UNL     1      33.641 -14.813 -20.881  0.00  0.00    +0.007 C 
ATOM     15  C   UNL     1      32.221 -13.311 -22.189  0.00  0.00    +0.030 C 
ATOM     16  C   UNL     1      32.687 -13.773 -20.957  0.00  0.00    +0.059 C 
ATOM     17  H   UNL     1      33.672 -17.740 -22.601  0.00  0.00    -0.079 HD
ATOM     18  H   UNL     1      31.834 -12.984 -24.994  0.00  0.00    +0.168 HD
ENDROOT
BRANCH   3  19
ATOM     19  C   UNL     1      35.274 -18.957 -22.170  0.00  0.00    -0.050 C 
BRANCH  19  20
ATOM     20  C   UNL     1      34.289 -19.705 -21.321  0.00  0.00    -0.058 C 
ATOM     21  C   UNL     1      34.537 -20.587 -20.334  0.00  0.00    -0.050 C 
ATOM     22  C   UNL     1      33.498 -21.305 -19.521  0.00  0.00    +0.026 C 
ATOM     23  C   UNL     1      35.956 -20.932 -19.963  0.00  0.00    +0.026 C 
ENDBRANCH  19  20
ENDBRANCH   3  19
TORSDOF 2
ENDMDL
MODEL 3
REMARK VINA RESULT:      -8.3      3.995      6.284
REMARK  Name = 3000237
REMARK  2 active torsions:
REMARK  status: ('A' for Active; 'I' for Inactive)
REMARK    1  A    between atoms: N_3  and  C_19
REMARK    2  A    between atoms: C_19  and  C_20
REMARK                            x       y       z     vdW  Elec       q    Type
REMARK                         _______ _______ _______ _____ _____    ______ ____
ROOT
ATOM      1 CL   UNL     1      36.133 -10.402 -26.217  0.00  0.00    -0.082 Cl
ATOM      2  S   UNL     1      31.715  -6.826 -20.824  0.00  0.00    -0.013 S 
ATOM      3  N   UNL     1      32.290 -12.352 -21.714  0.00  0.00    +0.395 N 
ATOM      4  N   UNL     1      32.130  -9.273 -22.093  0.00  0.00    -0.310 N 
ATOM      5  N   UNL     1      33.519  -7.581 -22.717  0.00  0.00    -0.333 N 
ATOM      6  C   UNL     1      31.477 -11.413 -20.906  0.00  0.00    -0.034 C 
ATOM      7  C   UNL     1      31.044 -10.084 -21.569  0.00  0.00    +0.087 C 
ATOM      8  C   UNL     1      32.235 -12.159 -23.169  0.00  0.00    -0.048 C 
ATOM      9  C   UNL     1      33.013  -9.756 -23.076  0.00  0.00    +0.071 A 
ATOM     10  C   UNL     1      33.112 -11.022 -23.621  0.00  0.00    -0.025 C 
ATOM     11  C   UNL     1      33.856  -8.715 -23.456  0.00  0.00    +0.075 A 
ATOM     12  C   UNL     1      32.243 -11.111 -19.608  0.00  0.00    -0.021 C 
ATOM     13  C   UNL     1      32.436  -7.905 -21.860  0.00  0.00    +0.159 A 
ATOM     14  C   UNL     1      34.094 -11.193 -24.611  0.00  0.00    +0.007 C 
ATOM     15  C   UNL     1      34.830  -8.868 -24.415  0.00  0.00    +0.030 C 
ATOM     16  C   UNL     1      34.940 -10.130 -25.002  0.00  0.00    +0.059 C 
ATOM     17  H   UNL     1      33.253 -12.133 -21.459  0.00  0.00    -0.079 HD
ATOM     18  H   UNL     1      33.960  -6.703 -22.778  0.00  0.00    +0.168 HD
ENDROOT
BRANCH   3  19
ATOM     19  C   UNL     1      31.975 -13.744 -21.370  0.00  0.00    -0.050 C 
BRANCH  19  20
ATOM     20  C   UNL     1      32.775 -14.706 -22.197  0.00  0.00    -0.058 C 
ATOM     21  C   UNL     1      33.911 -15.350 -21.864  0.00  0.00    -0.050 C 
ATOM     22  C   UNL     1      34.665 -16.305 -22.744  0.00  0.00    +0.026 C 
ATOM     23  C   UNL     1      34.534 -15.138 -20.509  0.00  0.00    +0.026 C 
ENDBRANCH  19  20
ENDBRANCH   3  19
TORSDOF 2
ENDMDL
MODEL 4
REMARK VINA RESULT:      -8.1      2.648      5.542
REMARK  Name = 3000237
REMARK  2 active torsions:
REMARK  status: ('A' for Active; 'I' for Inactive)
REMARK    1  A    between atoms: N_3  and  C_19
REMARK    2  A    between atoms: C_19  and  C_20
REMARK                            x       y       z     vdW  Elec       q    Type
REMARK                         _______ _______ _______ _____ _____    ______ ____
ROOT
ATOM      1 CL   UNL     1      33.889 -13.399 -27.653  0.00  0.00    -0.082 Cl
ATOM      2  S   UNL     1      31.728 -12.038 -20.246  0.00  0.00    -0.013 S 
ATOM      3  N   UNL     1      34.473 -16.508 -22.282  0.00  0.00    +0.395 N 
ATOM      4  N   UNL     1      32.612 -14.040 -21.974  0.00  0.00    -0.310 N 
ATOM      5  N   UNL     1      32.411 -11.962 -22.880  0.00  0.00    -0.333 N 
ATOM      6  C   UNL     1      33.840 -16.043 -21.027  0.00  0.00    -0.034 C 
ATOM      7  C   UNL     1      32.530 -15.228 -21.141  0.00  0.00    +0.087 C 
ATOM      8  C   UNL     1      33.600 -16.551 -23.463  0.00  0.00    -0.048 C 
ATOM      9  C   UNL     1      32.975 -14.105 -23.331  0.00  0.00    +0.071 A 
ATOM     10  C   UNL     1      33.409 -15.187 -24.073  0.00  0.00    -0.025 C 
ATOM     11  C   UNL     1      32.845 -12.831 -23.880  0.00  0.00    +0.075 A 
ATOM     12  C   UNL     1      34.880 -15.230 -20.238  0.00  0.00    -0.021 C 
ATOM     13  C   UNL     1      32.252 -12.697 -21.678  0.00  0.00    +0.159 A 
ATOM     14  C   UNL     1      33.678 -14.938 -25.429  0.00  0.00    +0.007 C 
ATOM     15  C   UNL     1      33.116 -12.568 -25.202  0.00  0.00    +0.030 C 
ATOM     16  C   UNL     1      33.534 -13.647 -25.984  0.00  0.00    +0.059 C 
ATOM     17  H   UNL     1      35.164 -15.789 -22.497  0.00  0.00    -0.079 HD
ATOM     18  H   UNL     1      32.244 -10.998 -22.990  0.00  0.00    +0.168 HD
ENDROOT
BRANCH   3  19
ATOM     19  C   UNL     1      35.131 -17.805 -22.086  0.00  0.00    -0.050 C 
BRANCH  19  20
ATOM     20  C   UNL     1      34.201 -18.802 -21.460  0.00  0.00    -0.058 C 
ATOM     21  C   UNL     1      34.511 -19.874 -20.705  0.00  0.00    -0.050 C 
ATOM     22  C   UNL     1      33.525 -20.837 -20.107  0.00  0.00    +0.026 C 
ATOM     23  C   UNL     1      35.950 -20.196 -20.399  0.00  0.00    +0.026 C 
ENDBRANCH  19  20
ENDBRANCH   3  19
TORSDOF 2
ENDMDL
MODEL 5
REMARK VINA RESULT:      -7.7     10.409     12.879
REMARK  Name = 3000237
REMARK  2 active torsions:
REMARK  status: ('A' for Active; 'I' for Inactive)
REMARK    1  A    between atoms: N_3  and  C_19
REMARK    2  A    between atoms: C_19  and  C_20
REMARK                            x       y       z     vdW  Elec       q    Type
REMARK                         _______ _______ _______ _____ _____    ______ ____
ROOT
ATOM      1 CL   UNL     1      35.665 -21.769 -19.261  0.00  0.00    -0.082 Cl
ATOM      2  S   UNL     1      28.916 -23.576 -15.715  0.00  0.00    -0.013 S 
ATOM      3  N   UNL     1      34.115 -23.784 -13.570  0.00  0.00    +0.395 N 
ATOM      4  N   UNL     1      31.683 -23.846 -15.503  0.00  0.00    -0.310 N 
ATOM      5  N   UNL     1      30.935 -22.670 -17.302  0.00  0.00    -0.333 N 
ATOM      6  C   UNL     1      32.727 -24.165 -13.217  0.00  0.00    -0.034 C 
ATOM      7  C   UNL     1      31.823 -24.715 -14.346  0.00  0.00    +0.087 C 
ATOM      8  C   UNL     1      34.642 -24.365 -14.813  0.00  0.00    -0.048 C 
ATOM      9  C   UNL     1      32.793 -23.433 -16.263  0.00  0.00    +0.071 A 
ATOM     10  C   UNL     1      34.140 -23.638 -16.032  0.00  0.00    -0.025 C 
ATOM     11  C   UNL     1      32.327 -22.718 -17.364  0.00  0.00    +0.075 A 
ATOM     12  C   UNL     1      32.049 -22.950 -12.565  0.00  0.00    -0.021 C 
ATOM     13  C   UNL     1      30.508 -23.376 -16.148  0.00  0.00    +0.159 A 
ATOM     14  C   UNL     1      35.017 -23.113 -16.995  0.00  0.00    +0.007 C 
ATOM     15  C   UNL     1      33.173 -22.188 -18.309  0.00  0.00    +0.030 C 
ATOM     16  C   UNL     1      34.540 -22.398 -18.117  0.00  0.00    +0.059 C 
ATOM     17  H   UNL     1      34.061 -22.782 -13.754  0.00  0.00    -0.079 HD
ATOM     18  H   UNL     1      30.346 -22.220 -17.950  0.00  0.00    +0.168 HD
ENDROOT
BRANCH   3  19
ATOM     19  C   UNL     1      35.030 -24.050 -12.454  0.00  0.00    -0.050 C 
BRANCH  19  20
ATOM     20  C   UNL     1      36.211 -24.862 -12.895  0.00  0.00    -0.058 C 
ATOM     21  C   UNL     1      37.517 -24.643 -12.646  0.00  0.00    -0.050 C 
ATOM     22  C   UNL     1      38.654 -25.500 -13.121  0.00  0.00    +0.026 C 
ATOM     23  C   UNL     1      37.943 -23.450 -11.829  0.00  0.00    +0.026 C 
ENDBRANCH  19  20
ENDBRANCH   3  19
TORSDOF 2
ENDMDL
MODEL 6
REMARK VINA RESULT:      -7.6      9.947     12.308
REMARK  Name = 3000237
REMARK  2 active torsions:
REMARK  status: ('A' for Active; 'I' for Inactive)
REMARK    1  A    between atoms: N_3  and  C_19
REMARK    2  A    between atoms: C_19  and  C_20
REMARK                            x       y       z     vdW  Elec       q    Type
REMARK                         _______ _______ _______ _____ _____    ______ ____
ROOT
ATOM      1 CL   UNL     1      40.271 -25.224 -14.349  0.00  0.00    -0.082 Cl
ATOM      2  S   UNL     1      32.468 -24.725 -13.835  0.00  0.00    -0.013 S 
ATOM      3  N   UNL     1      35.827 -22.487 -17.757  0.00  0.00    +0.395 N 
ATOM      4  N   UNL     1      34.692 -23.604 -15.089  0.00  0.00    -0.310 N 
ATOM      5  N   UNL     1      35.116 -25.336 -13.675  0.00  0.00    -0.333 N 
ATOM      6  C   UNL     1      34.407 -22.464 -17.333  0.00  0.00    -0.034 C 
ATOM      7  C   UNL     1      34.109 -22.488 -15.815  0.00  0.00    +0.087 C 
ATOM      8  C   UNL     1      36.806 -22.084 -16.738  0.00  0.00    -0.048 C 
ATOM      9  C   UNL     1      36.079 -23.835 -15.066  0.00  0.00    +0.071 A 
ATOM     10  C   UNL     1      37.087 -23.191 -15.757  0.00  0.00    -0.025 C 
ATOM     11  C   UNL     1      36.332 -24.892 -14.195  0.00  0.00    +0.075 A 
ATOM     12  C   UNL     1      33.685 -23.638 -18.014  0.00  0.00    -0.021 C 
ATOM     13  C   UNL     1      34.075 -24.539 -14.215  0.00  0.00    +0.159 A 
ATOM     14  C   UNL     1      38.394 -23.642 -15.505  0.00  0.00    +0.007 C 
ATOM     15  C   UNL     1      37.603 -25.353 -13.946  0.00  0.00    +0.030 C 
ATOM     16  C   UNL     1      38.647 -24.708 -14.612  0.00  0.00    +0.059 C 
ATOM     17  H   UNL     1      36.022 -23.474 -17.928  0.00  0.00    -0.079 HD
ATOM     18  H   UNL     1      35.000 -26.079 -13.039  0.00  0.00    +0.168 HD
ENDROOT
BRANCH   3  19
ATOM     19  C   UNL     1      36.018 -21.708 -18.986  0.00  0.00    -0.050 C 
BRANCH  19  20
ATOM     20  C   UNL     1      34.708 -21.250 -19.554  0.00  0.00    -0.058 C 
ATOM     21  C   UNL     1      34.481 -20.266 -20.446  0.00  0.00    -0.050 C 
ATOM     22  C   UNL     1      33.136 -19.857 -20.974  0.00  0.00    +0.026 C 
ATOM     23  C   UNL     1      35.631 -19.465 -20.999  0.00  0.00    +0.026 C 
ENDBRANCH  19  20
ENDBRANCH   3  19
TORSDOF 2
ENDMDL
MODEL 7
REMARK VINA RESULT:      -7.5      2.871      5.849
REMARK  Name = 3000237
REMARK  2 active torsions:
REMARK  status: ('A' for Active; 'I' for Inactive)
REMARK    1  A    between atoms: N_3  and  C_19
REMARK    2  A    between atoms: C_19  and  C_20
REMARK                            x       y       z     vdW  Elec       q    Type
REMARK                         _______ _______ _______ _____ _____    ______ ____
ROOT
ATOM      1 CL   UNL     1      35.482 -10.187 -26.543  0.00  0.00    -0.082 Cl
ATOM      2  S   UNL     1      30.755 -11.187 -20.375  0.00  0.00    -0.013 S 
ATOM      3  N   UNL     1      34.310 -14.910 -22.648  0.00  0.00    +0.395 N 
ATOM      4  N   UNL     1      32.315 -12.566 -22.229  0.00  0.00    -0.310 N 
ATOM      5  N   UNL     1      32.323 -10.297 -22.415  0.00  0.00    -0.333 N 
ATOM      6  C   UNL     1      33.245 -14.841 -21.620  0.00  0.00    -0.034 C 
ATOM      7  C   UNL     1      32.014 -13.953 -21.918  0.00  0.00    +0.087 C 
ATOM      8  C   UNL     1      33.917 -14.510 -24.006  0.00  0.00    -0.048 C 
ATOM      9  C   UNL     1      33.139 -12.207 -23.311  0.00  0.00    +0.071 A 
ATOM     10  C   UNL     1      33.872 -13.013 -24.161  0.00  0.00    -0.025 C 
ATOM     11  C   UNL     1      33.135 -10.818 -23.422  0.00  0.00    +0.075 A 
ATOM     12  C   UNL     1      33.887 -14.398 -20.295  0.00  0.00    -0.021 C 
ATOM     13  C   UNL     1      31.792 -11.374 -21.659  0.00  0.00    +0.159 A 
ATOM     14  C   UNL     1      34.590 -12.352 -25.172  0.00  0.00    +0.007 C 
ATOM     15  C   UNL     1      33.841 -10.155 -24.398  0.00  0.00    +0.030 C 
ATOM     16  C   UNL     1      34.574 -10.943 -25.288  0.00  0.00    +0.059 C 
ATOM     17  H   UNL     1      34.987 -14.205 -22.355  0.00  0.00    -0.079 HD
ATOM     18  H   UNL     1      32.147  -9.342 -22.255  0.00  0.00    +0.168 HD
ENDROOT
BRANCH   3  19
ATOM     19  C   UNL     1      34.933 -16.239 -22.667  0.00  0.00    -0.050 C 
BRANCH  19  20
ATOM     20  C   UNL     1      34.549 -17.006 -23.897  0.00  0.00    -0.058 C 
ATOM     21  C   UNL     1      34.549 -18.340 -24.084  0.00  0.00    -0.050 C 
ATOM     22  C   UNL     1      34.151 -19.046 -25.349  0.00  0.00    +0.026 C 
ATOM     23  C   UNL     1      34.977 -19.262 -22.972  0.00  0.00    +0.026 C 
ENDBRANCH  19  20
ENDBRANCH   3  19
TORSDOF 2
ENDMDL
MODEL 8
REMARK VINA RESULT:      -7.3      4.140      6.259
REMARK  Name = 3000237
REMARK  2 active torsions:
REMARK  status: ('A' for Active; 'I' for Inactive)
REMARK    1  A    between atoms: N_3  and  C_19
REMARK    2  A    between atoms: C_19  and  C_20
REMARK                            x       y       z     vdW  Elec       q    Type
REMARK                         _______ _______ _______ _____ _____    ______ ____
ROOT
ATOM      1 CL   UNL     1      31.020 -10.829 -18.271  0.00  0.00    -0.082 Cl
ATOM      2  S   UNL     1      33.415 -14.350 -24.848  0.00  0.00    -0.013 S 
ATOM      3  N   UNL     1      33.714  -8.884 -23.544  0.00  0.00    +0.395 N 
ATOM      4  N   UNL     1      32.834 -11.857 -23.744  0.00  0.00    -0.310 N 
ATOM      5  N   UNL     1      32.605 -13.640 -22.348  0.00  0.00    -0.333 N 
ATOM      6  C   UNL     1      33.946  -9.789 -24.694  0.00  0.00    -0.034 C 
ATOM      7  C   UNL     1      32.968 -10.971 -24.888  0.00  0.00    +0.087 C 
ATOM      8  C   UNL     1      32.361  -8.911 -22.971  0.00  0.00    -0.048 C 
ATOM      9  C   UNL     1      32.404 -11.391 -22.488  0.00  0.00    +0.071 A 
ATOM     10  C   UNL     1      32.155 -10.098 -22.069  0.00  0.00    -0.025 C 
ATOM     11  C   UNL     1      32.262 -12.488 -21.641  0.00  0.00    +0.075 A 
ATOM     12  C   UNL     1      35.384 -10.326 -24.597  0.00  0.00    -0.021 C 
ATOM     13  C   UNL     1      32.961 -13.270 -23.670  0.00  0.00    +0.159 A 
ATOM     14  C   UNL     1      31.712  -9.953 -20.744  0.00  0.00    +0.007 C 
ATOM     15  C   UNL     1      31.841 -12.362 -20.338  0.00  0.00    +0.030 C 
ATOM     16  C   UNL     1      31.558 -11.070 -19.891  0.00  0.00    +0.059 C 
ATOM     17  H   UNL     1      34.316  -9.254 -22.808  0.00  0.00    -0.079 HD
ATOM     18  H   UNL     1      32.602 -14.557 -21.989  0.00  0.00    +0.168 HD
ENDROOT
BRANCH   3  19
ATOM     19  C   UNL     1      34.101  -7.508 -23.876  0.00  0.00    -0.050 C 
BRANCH  19  20
ATOM     20  C   UNL     1      32.909  -6.599 -23.923  0.00  0.00    -0.058 C 
ATOM     21  C   UNL     1      32.604  -5.667 -24.846  0.00  0.00    -0.050 C 
ATOM     22  C   UNL     1      31.387  -4.786 -24.832  0.00  0.00    +0.026 C 
ATOM     23  C   UNL     1      33.520  -5.433 -26.019  0.00  0.00    +0.026 C 
ENDBRANCH  19  20
ENDBRANCH   3  19
TORSDOF 2
ENDMDL
MODEL 9
REMARK VINA RESULT:      -7.1      5.129      7.154
REMARK  Name = 3000237
REMARK  2 active torsions:
REMARK  status: ('A' for Active; 'I' for Inactive)
REMARK    1  A    between atoms: N_3  and  C_19
REMARK    2  A    between atoms: C_19  and  C_20
REMARK                            x       y       z     vdW  Elec       q    Type
REMARK                         _______ _______ _______ _____ _____    ______ ____
ROOT
ATOM      1 CL   UNL     1      35.949 -11.164 -26.988  0.00  0.00    -0.082 Cl
ATOM      2  S   UNL     1      30.964 -11.190 -20.943  0.00  0.00    -0.013 S 
ATOM      3  N   UNL     1      32.814  -6.762 -23.883  0.00  0.00    +0.395 N 
ATOM      4  N   UNL     1      32.589  -9.525 -22.481  0.00  0.00    -0.310 N 
ATOM      5  N   UNL     1      32.561 -11.720 -23.083  0.00  0.00    -0.333 N 
ATOM      6  C   UNL     1      32.017  -7.065 -22.671  0.00  0.00    -0.034 C 
ATOM      7  C   UNL     1      32.471  -8.252 -21.789  0.00  0.00    +0.087 C 
ATOM      8  C   UNL     1      34.180  -7.301 -23.902  0.00  0.00    -0.048 C 
ATOM      9  C   UNL     1      33.447  -9.700 -23.581  0.00  0.00    +0.071 A 
ATOM     10  C   UNL     1      34.204  -8.764 -24.260  0.00  0.00    -0.025 C 
ATOM     11  C   UNL     1      33.429 -11.045 -23.941  0.00  0.00    +0.075 A 
ATOM     12  C   UNL     1      30.556  -7.277 -23.100  0.00  0.00    -0.021 C 
ATOM     13  C   UNL     1      32.027 -10.790 -22.155  0.00  0.00    +0.159 A 
ATOM     14  C   UNL     1      34.987  -9.254 -25.318  0.00  0.00    +0.007 C 
ATOM     15  C   UNL     1      34.180 -11.539 -24.982  0.00  0.00    +0.030 C 
ATOM     16  C   UNL     1      34.974 -10.622 -25.673  0.00  0.00    +0.059 C 
ATOM     17  H   UNL     1      32.329  -7.256 -24.632  0.00  0.00    -0.079 HD
ATOM     18  H   UNL     1      32.353 -12.681 -23.117  0.00  0.00    +0.168 HD
ENDROOT
BRANCH   3  19
ATOM     19  C   UNL     1      32.830  -5.319 -24.150  0.00  0.00    -0.050 C 
BRANCH  19  20
ATOM     20  C   UNL     1      32.433  -5.020 -25.565  0.00  0.00    -0.058 C 
ATOM     21  C   UNL     1      33.218  -4.956 -26.658  0.00  0.00    -0.050 C 
ATOM     22  C   UNL     1      32.754  -4.648 -28.052  0.00  0.00    +0.026 C 
ATOM     23  C   UNL     1      34.701  -5.199 -26.542  0.00  0.00    +0.026 C 
ENDBRANCH  19  20
ENDBRANCH   3  19
TORSDOF 2
ENDMDL
