MODEL 1
REMARK VINA RESULT:     -10.1      0.000      0.000
REMARK  Name = 5327159
REMARK  3 active torsions:
REMARK  status: ('A' for Active; 'I' for Inactive)
REMARK    1  A    between atoms: C_1  and  C_9
REMARK    2  A    between atoms: C_4  and  C_16
REMARK    3  A    between atoms: C_16  and  O_17
REMARK                            x       y       z     vdW  Elec       q    Type
REMARK                         _______ _______ _______ _____ _____    ______ ____
ROOT
ATOM      1  C   UNL     1      34.724 -19.337 -21.322  0.00  0.00    +0.004 C 
ATOM      2  C   UNL     1      35.906 -19.887 -20.827  0.00  0.00    +0.000 C 
ATOM      3  C   UNL     1      33.492 -19.839 -20.903  0.00  0.00    +0.000 C 
ATOM      4  C   UNL     1      34.625 -21.443 -19.495  0.00  0.00    +0.075 C 
ATOM      5  C   UNL     1      35.857 -20.940 -19.914  0.00  0.00    +0.006 C 
ATOM      6  C   UNL     1      33.442 -20.892 -19.990  0.00  0.00    +0.006 C 
ENDROOT
BRANCH   1   9
ATOM      7  F   UNL     1      34.785 -19.771 -24.092  0.00  0.00    -0.204 F 
ATOM      8  F   UNL     1      34.767 -16.653 -20.502  0.00  0.00    -0.204 F 
ATOM      9  C   UNL     1      34.774 -18.244 -22.270  0.00  0.00    +0.055 C 
ATOM     10  C   UNL     1      34.803 -18.510 -23.639  0.00  0.00    +0.142 C 
ATOM     11  C   UNL     1      34.797 -16.926 -21.814  0.00  0.00    +0.142 C 
ATOM     12  C   UNL     1      34.853 -17.457 -24.552  0.00  0.00    +0.030 C 
ATOM     13  C   UNL     1      34.845 -15.873 -22.728  0.00  0.00    +0.030 C 
ATOM     14  C   UNL     1      34.874 -16.139 -24.098  0.00  0.00    +0.005 C 
ENDBRANCH   1   9
BRANCH   4  16
ATOM     15  O   UNL     1      35.249 -22.603 -17.518  0.00  0.00    -0.245 OA
ATOM     16  C   UNL     1      34.572 -22.540 -18.543  0.00  0.00    +0.338 C 
BRANCH  16  17
ATOM     17  O   UNL     1      33.693 -23.530 -18.875  0.00  0.00    -0.477 OA
ATOM     18  H   UNL     1      33.919 -24.427 -18.730  0.00  0.00    +0.295 HD
ENDBRANCH  16  17
ENDBRANCH   4  16
TORSDOF 3
ENDMDL
MODEL 2
REMARK VINA RESULT:     -10.1      0.003      2.008
REMARK  Name = 5327159
REMARK  3 active torsions:
REMARK  status: ('A' for Active; 'I' for Inactive)
REMARK    1  A    between atoms: C_1  and  C_9
REMARK    2  A    between atoms: C_4  and  C_16
REMARK    3  A    between atoms: C_16  and  O_17
REMARK                            x       y       z     vdW  Elec       q    Type
REMARK                         _______ _______ _______ _____ _____    ______ ____
ROOT
ATOM      1  C   UNL     1      34.728 -19.337 -21.322  0.00  0.00    +0.004 C 
ATOM      2  C   UNL     1      35.910 -19.888 -20.826  0.00  0.00    +0.000 C 
ATOM      3  C   UNL     1      33.496 -19.840 -20.904  0.00  0.00    +0.000 C 
ATOM      4  C   UNL     1      34.627 -21.443 -19.494  0.00  0.00    +0.075 C 
ATOM      5  C   UNL     1      35.860 -20.941 -19.912  0.00  0.00    +0.006 C 
ATOM      6  C   UNL     1      33.445 -20.893 -19.990  0.00  0.00    +0.006 C 
ENDROOT
BRANCH   1   9
ATOM      7  F   UNL     1      34.771 -16.656 -20.502  0.00  0.00    -0.204 F 
ATOM      8  F   UNL     1      34.789 -19.772 -24.094  0.00  0.00    -0.204 F 
ATOM      9  C   UNL     1      34.779 -18.245 -22.270  0.00  0.00    +0.055 C 
ATOM     10  C   UNL     1      34.799 -16.927 -21.814  0.00  0.00    +0.142 C 
ATOM     11  C   UNL     1      34.805 -18.510 -23.639  0.00  0.00    +0.142 C 
ATOM     12  C   UNL     1      34.846 -15.874 -22.728  0.00  0.00    +0.030 C 
ATOM     13  C   UNL     1      34.854 -17.457 -24.553  0.00  0.00    +0.030 C 
ATOM     14  C   UNL     1      34.874 -16.139 -24.097  0.00  0.00    +0.005 C 
ENDBRANCH   1   9
BRANCH   4  16
ATOM     15  O   UNL     1      35.251 -22.603 -17.517  0.00  0.00    -0.245 OA
ATOM     16  C   UNL     1      34.575 -22.541 -18.542  0.00  0.00    +0.338 C 
BRANCH  16  17
ATOM     17  O   UNL     1      33.694 -23.529 -18.874  0.00  0.00    -0.477 OA
ATOM     18  H   UNL     1      33.053 -23.382 -19.541  0.00  0.00    +0.295 HD
ENDBRANCH  16  17
ENDBRANCH   4  16
TORSDOF 3
ENDMDL
MODEL 3
REMARK VINA RESULT:      -9.7      3.837      6.022
REMARK  Name = 5327159
REMARK  3 active torsions:
REMARK  status: ('A' for Active; 'I' for Inactive)
REMARK    1  A    between atoms: C_1  and  C_9
REMARK    2  A    between atoms: C_4  and  C_16
REMARK    3  A    between atoms: C_16  and  O_17
REMARK                            x       y       z     vdW  Elec       q    Type
REMARK                         _______ _______ _______ _____ _____    ______ ____
ROOT
ATOM      1  C   UNL     1      34.800 -19.074 -21.684  0.00  0.00    +0.004 C 
ATOM      2  C   UNL     1      34.668 -17.734 -21.321  0.00  0.00    +0.000 C 
ATOM      3  C   UNL     1      34.791 -19.436 -23.031  0.00  0.00    +0.000 C 
ATOM      4  C   UNL     1      34.519 -17.117 -23.653  0.00  0.00    +0.075 C 
ATOM      5  C   UNL     1      34.527 -16.755 -22.305  0.00  0.00    +0.006 C 
ATOM      6  C   UNL     1      34.651 -18.458 -24.015  0.00  0.00    +0.006 C 
ENDROOT
BRANCH   1   9
ATOM      7  F   UNL     1      32.603 -20.500 -20.679  0.00  0.00    -0.204 F 
ATOM      8  F   UNL     1      37.296 -19.738 -20.588  0.00  0.00    -0.204 F 
ATOM      9  C   UNL     1      34.945 -20.090 -20.663  0.00  0.00    +0.055 C 
ATOM     10  C   UNL     1      33.823 -20.773 -20.195  0.00  0.00    +0.142 C 
ATOM     11  C   UNL     1      36.207 -20.384 -20.147  0.00  0.00    +0.142 C 
ATOM     12  C   UNL     1      33.963 -21.751 -19.210  0.00  0.00    +0.030 C 
ATOM     13  C   UNL     1      36.347 -21.364 -19.163  0.00  0.00    +0.030 C 
ATOM     14  C   UNL     1      35.224 -22.047 -18.694  0.00  0.00    +0.005 C 
ENDBRANCH   1   9
BRANCH   4  16
ATOM     15  O   UNL     1      33.903 -14.979 -24.484  0.00  0.00    -0.245 OA
ATOM     16  C   UNL     1      34.373 -16.098 -24.679  0.00  0.00    +0.338 C 
BRANCH  16  17
ATOM     17  O   UNL     1      34.806 -16.481 -25.915  0.00  0.00    -0.477 OA
ATOM     18  H   UNL     1      35.577 -17.007 -26.000  0.00  0.00    +0.295 HD
ENDBRANCH  16  17
ENDBRANCH   4  16
TORSDOF 3
ENDMDL
MODEL 4
REMARK VINA RESULT:      -9.7      3.837      6.058
REMARK  Name = 5327159
REMARK  3 active torsions:
REMARK  status: ('A' for Active; 'I' for Inactive)
REMARK    1  A    between atoms: C_1  and  C_9
REMARK    2  A    between atoms: C_4  and  C_16
REMARK    3  A    between atoms: C_16  and  O_17
REMARK                            x       y       z     vdW  Elec       q    Type
REMARK                         _______ _______ _______ _____ _____    ______ ____
ROOT
ATOM      1  C   UNL     1      34.790 -19.062 -21.664  0.00  0.00    +0.004 C 
ATOM      2  C   UNL     1      34.661 -17.724 -21.293  0.00  0.00    +0.000 C 
ATOM      3  C   UNL     1      34.790 -19.414 -23.014  0.00  0.00    +0.000 C 
ATOM      4  C   UNL     1      34.532 -17.090 -23.621  0.00  0.00    +0.075 C 
ATOM      5  C   UNL     1      34.532 -16.738 -22.271  0.00  0.00    +0.006 C 
ATOM      6  C   UNL     1      34.661 -18.428 -23.993  0.00  0.00    +0.006 C 
ENDROOT
BRANCH   1   9
ATOM      7  F   UNL     1      37.281 -19.781 -20.596  0.00  0.00    -0.204 F 
ATOM      8  F   UNL     1      32.574 -20.451 -20.647  0.00  0.00    -0.204 F 
ATOM      9  C   UNL     1      34.924 -20.086 -20.651  0.00  0.00    +0.055 C 
ATOM     10  C   UNL     1      36.185 -20.409 -20.149  0.00  0.00    +0.142 C 
ATOM     11  C   UNL     1      33.793 -20.751 -20.177  0.00  0.00    +0.142 C 
ATOM     12  C   UNL     1      36.314 -21.397 -19.172  0.00  0.00    +0.030 C 
ATOM     13  C   UNL     1      33.922 -21.738 -19.199  0.00  0.00    +0.030 C 
ATOM     14  C   UNL     1      35.184 -22.062 -18.698  0.00  0.00    +0.005 C 
ENDBRANCH   1   9
BRANCH   4  16
ATOM     15  O   UNL     1      33.976 -14.927 -24.431  0.00  0.00    -0.245 OA
ATOM     16  C   UNL     1      34.397 -16.063 -24.641  0.00  0.00    +0.338 C 
BRANCH  16  17
ATOM     17  O   UNL     1      34.782 -16.458 -25.889  0.00  0.00    -0.477 OA
ATOM     18  H   UNL     1      35.640 -16.251 -26.204  0.00  0.00    +0.295 HD
ENDBRANCH  16  17
ENDBRANCH   4  16
TORSDOF 3
ENDMDL
MODEL 5
REMARK VINA RESULT:      -9.7      3.840      6.081
REMARK  Name = 5327159
REMARK  3 active torsions:
REMARK  status: ('A' for Active; 'I' for Inactive)
REMARK    1  A    between atoms: C_1  and  C_9
REMARK    2  A    between atoms: C_4  and  C_16
REMARK    3  A    between atoms: C_16  and  O_17
REMARK                            x       y       z     vdW  Elec       q    Type
REMARK                         _______ _______ _______ _____ _____    ______ ____
ROOT
ATOM      1  C   UNL     1      34.824 -19.050 -21.712  0.00  0.00    +0.004 C 
ATOM      2  C   UNL     1      34.832 -19.413 -23.059  0.00  0.00    +0.000 C 
ATOM      3  C   UNL     1      34.666 -17.712 -21.351  0.00  0.00    +0.000 C 
ATOM      4  C   UNL     1      34.525 -17.099 -23.683  0.00  0.00    +0.075 C 
ATOM      5  C   UNL     1      34.683 -18.437 -24.044  0.00  0.00    +0.006 C 
ATOM      6  C   UNL     1      34.517 -16.736 -22.336  0.00  0.00    +0.006 C 
ENDROOT
BRANCH   1   9
ATOM      7  F   UNL     1      37.328 -19.698 -20.627  0.00  0.00    -0.204 F 
ATOM      8  F   UNL     1      32.638 -20.484 -20.691  0.00  0.00    -0.204 F 
ATOM      9  C   UNL     1      34.979 -20.061 -20.689  0.00  0.00    +0.055 C 
ATOM     10  C   UNL     1      36.245 -20.349 -20.179  0.00  0.00    +0.142 C 
ATOM     11  C   UNL     1      33.863 -20.750 -20.213  0.00  0.00    +0.142 C 
ATOM     12  C   UNL     1      36.394 -21.325 -19.193  0.00  0.00    +0.030 C 
ATOM     13  C   UNL     1      34.012 -21.725 -19.227  0.00  0.00    +0.030 C 
ATOM     14  C   UNL     1      35.279 -22.013 -18.717  0.00  0.00    +0.005 C 
ENDBRANCH   1   9
BRANCH   4  16
ATOM     15  O   UNL     1      34.522 -16.281 -25.913  0.00  0.00    -0.245 OA
ATOM     16  C   UNL     1      34.369 -16.081 -24.710  0.00  0.00    +0.338 C 
BRANCH  16  17
ATOM     17  O   UNL     1      34.032 -14.848 -24.231  0.00  0.00    -0.477 OA
ATOM     18  H   UNL     1      34.425 -14.080 -24.595  0.00  0.00    +0.295 HD
ENDBRANCH  16  17
ENDBRANCH   4  16
TORSDOF 3
ENDMDL
MODEL 6
REMARK VINA RESULT:      -8.4      5.184      7.228
REMARK  Name = 5327159
REMARK  3 active torsions:
REMARK  status: ('A' for Active; 'I' for Inactive)
REMARK    1  A    between atoms: C_1  and  C_9
REMARK    2  A    between atoms: C_4  and  C_16
REMARK    3  A    between atoms: C_16  and  O_17
REMARK                            x       y       z     vdW  Elec       q    Type
REMARK                         _______ _______ _______ _____ _____    ______ ____
ROOT
ATOM      1  C   UNL     1      33.527 -13.505 -23.706  0.00  0.00    +0.004 C 
ATOM      2  C   UNL     1      34.352 -14.208 -22.828  0.00  0.00    +0.000 C 
ATOM      3  C   UNL     1      33.117 -14.097 -24.901  0.00  0.00    +0.000 C 
ATOM      4  C   UNL     1      34.355 -16.094 -24.339  0.00  0.00    +0.075 C 
ATOM      5  C   UNL     1      34.766 -15.502 -23.144  0.00  0.00    +0.006 C 
ATOM      6  C   UNL     1      33.531 -15.391 -25.218  0.00  0.00    +0.006 C 
ENDROOT
BRANCH   1   9
ATOM      7  F   UNL     1      31.558 -13.003 -21.774  0.00  0.00    -0.204 F 
ATOM      8  F   UNL     1      34.612 -11.245 -24.967  0.00  0.00    -0.204 F 
ATOM      9  C   UNL     1      33.097 -12.163 -23.380  0.00  0.00    +0.055 C 
ATOM     10  C   UNL     1      32.114 -11.963 -22.411  0.00  0.00    +0.142 C 
ATOM     11  C   UNL     1      33.664 -11.069 -24.035  0.00  0.00    +0.142 C 
ATOM     12  C   UNL     1      31.698 -10.669 -22.096  0.00  0.00    +0.030 C 
ATOM     13  C   UNL     1      33.249  -9.775 -23.720  0.00  0.00    +0.030 C 
ATOM     14  C   UNL     1      32.265  -9.575 -22.750  0.00  0.00    +0.005 C 
ENDBRANCH   1   9
BRANCH   4  16
ATOM     15  O   UNL     1      34.378 -18.085 -25.635  0.00  0.00    -0.245 OA
ATOM     16  C   UNL     1      34.787 -17.442 -24.669  0.00  0.00    +0.338 C 
BRANCH  16  17
ATOM     17  O   UNL     1      35.705 -17.964 -23.805  0.00  0.00    -0.477 OA
ATOM     18  H   UNL     1      35.610 -18.843 -23.494  0.00  0.00    +0.295 HD
ENDBRANCH  16  17
ENDBRANCH   4  16
TORSDOF 3
ENDMDL
MODEL 7
REMARK VINA RESULT:      -8.4      5.189      7.166
REMARK  Name = 5327159
REMARK  3 active torsions:
REMARK  status: ('A' for Active; 'I' for Inactive)
REMARK    1  A    between atoms: C_1  and  C_9
REMARK    2  A    between atoms: C_4  and  C_16
REMARK    3  A    between atoms: C_16  and  O_17
REMARK                            x       y       z     vdW  Elec       q    Type
REMARK                         _______ _______ _______ _____ _____    ______ ____
ROOT
ATOM      1  C   UNL     1      33.522 -13.488 -23.711  0.00  0.00    +0.004 C 
ATOM      2  C   UNL     1      34.333 -14.192 -22.821  0.00  0.00    +0.000 C 
ATOM      3  C   UNL     1      33.125 -14.079 -24.911  0.00  0.00    +0.000 C 
ATOM      4  C   UNL     1      34.350 -16.079 -24.331  0.00  0.00    +0.075 C 
ATOM      5  C   UNL     1      34.747 -15.488 -23.131  0.00  0.00    +0.006 C 
ATOM      6  C   UNL     1      33.539 -15.374 -25.221  0.00  0.00    +0.006 C 
ENDROOT
BRANCH   1   9
ATOM      7  F   UNL     1      34.619 -11.235 -24.970  0.00  0.00    -0.204 F 
ATOM      8  F   UNL     1      31.539 -12.975 -21.792  0.00  0.00    -0.204 F 
ATOM      9  C   UNL     1      33.092 -12.144 -23.391  0.00  0.00    +0.055 C 
ATOM     10  C   UNL     1      33.667 -11.054 -24.044  0.00  0.00    +0.142 C 
ATOM     11  C   UNL     1      32.104 -11.938 -22.428  0.00  0.00    +0.142 C 
ATOM     12  C   UNL     1      33.253  -9.758 -23.734  0.00  0.00    +0.030 C 
ATOM     13  C   UNL     1      31.689 -10.642 -22.119  0.00  0.00    +0.030 C 
ATOM     14  C   UNL     1      32.265  -9.552 -22.772  0.00  0.00    +0.005 C 
ENDBRANCH   1   9
BRANCH   4  16
ATOM     15  O   UNL     1      34.358 -18.084 -25.604  0.00  0.00    -0.245 OA
ATOM     16  C   UNL     1      34.781 -17.429 -24.654  0.00  0.00    +0.338 C 
BRANCH  16  17
ATOM     17  O   UNL     1      35.718 -17.938 -23.802  0.00  0.00    -0.477 OA
ATOM     18  H   UNL     1      35.450 -18.427 -23.049  0.00  0.00    +0.295 HD
ENDBRANCH  16  17
ENDBRANCH   4  16
TORSDOF 3
ENDMDL
MODEL 8
REMARK VINA RESULT:      -8.3      7.179      9.117
REMARK  Name = 5327159
REMARK  3 active torsions:
REMARK  status: ('A' for Active; 'I' for Inactive)
REMARK    1  A    between atoms: C_1  and  C_9
REMARK    2  A    between atoms: C_4  and  C_16
REMARK    3  A    between atoms: C_16  and  O_17
REMARK                            x       y       z     vdW  Elec       q    Type
REMARK                         _______ _______ _______ _____ _____    ______ ____
ROOT
ATOM      1  C   UNL     1      33.656 -11.658 -24.500  0.00  0.00    +0.004 C 
ATOM      2  C   UNL     1      33.520 -11.865 -25.872  0.00  0.00    +0.000 C 
ATOM      3  C   UNL     1      33.706 -12.750 -23.632  0.00  0.00    +0.000 C 
ATOM      4  C   UNL     1      33.485 -14.253 -25.510  0.00  0.00    +0.075 C 
ATOM      5  C   UNL     1      33.435 -13.162 -26.378  0.00  0.00    +0.006 C 
ATOM      6  C   UNL     1      33.620 -14.047 -24.137  0.00  0.00    +0.006 C 
ENDROOT
BRANCH   1   9
ATOM      7  F   UNL     1      31.693 -10.590 -22.806  0.00  0.00    -0.204 F 
ATOM      8  F   UNL     1      35.802  -9.958 -25.113  0.00  0.00    -0.204 F 
ATOM      9  C   UNL     1      33.744 -10.313 -23.974  0.00  0.00    +0.055 C 
ATOM     10  C   UNL     1      32.743  -9.825 -23.135  0.00  0.00    +0.142 C 
ATOM     11  C   UNL     1      34.830  -9.503 -24.309  0.00  0.00    +0.142 C 
ATOM     12  C   UNL     1      32.828  -8.527 -22.630  0.00  0.00    +0.030 C 
ATOM     13  C   UNL     1      34.915  -8.206 -23.803  0.00  0.00    +0.030 C 
ATOM     14  C   UNL     1      33.913  -7.718 -22.963  0.00  0.00    +0.005 C 
ENDBRANCH   1   9
BRANCH   4  16
ATOM     15  O   UNL     1      34.254 -16.471 -25.874  0.00  0.00    -0.245 OA
ATOM     16  C   UNL     1      33.396 -15.606 -26.036  0.00  0.00    +0.338 C 
BRANCH  16  17
ATOM     17  O   UNL     1      32.258 -15.858 -26.746  0.00  0.00    -0.477 OA
ATOM     18  H   UNL     1      32.278 -16.456 -27.467  0.00  0.00    +0.295 HD
ENDBRANCH  16  17
ENDBRANCH   4  16
TORSDOF 3
ENDMDL
MODEL 9
REMARK VINA RESULT:      -8.3      7.167      9.032
REMARK  Name = 5327159
REMARK  3 active torsions:
REMARK  status: ('A' for Active; 'I' for Inactive)
REMARK    1  A    between atoms: C_1  and  C_9
REMARK    2  A    between atoms: C_4  and  C_16
REMARK    3  A    between atoms: C_16  and  O_17
REMARK                            x       y       z     vdW  Elec       q    Type
REMARK                         _______ _______ _______ _____ _____    ______ ____
ROOT
ATOM      1  C   UNL     1      33.658 -11.678 -24.512  0.00  0.00    +0.004 C 
ATOM      2  C   UNL     1      33.736 -12.768 -23.646  0.00  0.00    +0.000 C 
ATOM      3  C   UNL     1      33.495 -11.886 -25.882  0.00  0.00    +0.000 C 
ATOM      4  C   UNL     1      33.487 -14.274 -25.519  0.00  0.00    +0.075 C 
ATOM      5  C   UNL     1      33.650 -14.066 -24.149  0.00  0.00    +0.006 C 
ATOM      6  C   UNL     1      33.410 -13.184 -26.385  0.00  0.00    +0.006 C 
ENDROOT
BRANCH   1   9
ATOM      7  F   UNL     1      35.802  -9.980 -25.133  0.00  0.00    -0.204 F 
ATOM      8  F   UNL     1      31.695 -10.603 -22.819  0.00  0.00    -0.204 F 
ATOM      9  C   UNL     1      33.746 -10.330 -23.992  0.00  0.00    +0.055 C 
ATOM     10  C   UNL     1      34.832  -9.523 -24.329  0.00  0.00    +0.142 C 
ATOM     11  C   UNL     1      32.747  -9.840 -23.151  0.00  0.00    +0.142 C 
ATOM     12  C   UNL     1      34.918  -8.224 -23.826  0.00  0.00    +0.030 C 
ATOM     13  C   UNL     1      32.832  -8.542 -22.648  0.00  0.00    +0.030 C 
ATOM     14  C   UNL     1      33.919  -7.734 -22.986  0.00  0.00    +0.005 C 
ENDBRANCH   1   9
BRANCH   4  16
ATOM     15  O   UNL     1      34.257 -16.492 -25.882  0.00  0.00    -0.245 OA
ATOM     16  C   UNL     1      33.398 -15.627 -26.044  0.00  0.00    +0.338 C 
BRANCH  16  17
ATOM     17  O   UNL     1      32.260 -15.880 -26.753  0.00  0.00    -0.477 OA
ATOM     18  H   UNL     1      32.186 -16.666 -27.257  0.00  0.00    +0.295 HD
ENDBRANCH  16  17
ENDBRANCH   4  16
TORSDOF 3
ENDMDL
