MODEL 1
REMARK VINA RESULT:      -9.9      0.000      0.000
REMARK  Name = 440483
REMARK  5 active torsions:
REMARK  status: ('A' for Active; 'I' for Inactive)
REMARK    1  A    between atoms: C_1  and  C_6
REMARK    2  A    between atoms: C_1  and  C_14
REMARK    3  A    between atoms: C_14  and  C_15
REMARK    4  A    between atoms: C_17  and  O_22
REMARK    5  A    between atoms: C_19  and  O_24
REMARK                            x       y       z     vdW  Elec       q    Type
REMARK                         _______ _______ _______ _____ _____    ______ ____
ROOT
ATOM      1  C   UNL     1      34.711 -16.847 -20.891  0.00  0.00    +0.012 C 
ENDROOT
BRANCH   1   6
ATOM      2  O   UNL     1      32.658 -14.472 -26.013  0.00  0.00    -0.296 OA
ATOM      3  O   UNL     1      32.682 -15.320 -19.734  0.00  0.00    -0.296 OA
ATOM      4  C   UNL     1      33.882 -15.771 -23.024  0.00  0.00    +0.014 C 
ATOM      5  C   UNL     1      33.443 -14.460 -23.711  0.00  0.00    +0.052 C 
ATOM      6  C   UNL     1      34.263 -15.551 -21.562  0.00  0.00    +0.058 C 
ATOM      7  C   UNL     1      34.908 -16.370 -23.980  0.00  0.00    +0.009 C 
ATOM      8  C   UNL     1      32.131 -14.021 -23.065  0.00  0.00    +0.015 C 
ATOM      9  C   UNL     1      33.350 -14.973 -25.137  0.00  0.00    +0.150 C 
ATOM     10  C   UNL     1      34.248 -16.178 -25.353  0.00  0.00    +0.065 C 
ATOM     11  C   UNL     1      32.299 -13.815 -21.557  0.00  0.00    +0.065 C 
ATOM     12  C   UNL     1      33.028 -14.962 -20.862  0.00  0.00    +0.150 C 
ATOM     13  C   UNL     1      34.479 -13.322 -23.714  0.00  0.00    +0.007 C 
ENDBRANCH   1   6
BRANCH   1  14
ATOM     14  C   UNL     1      34.175 -18.068 -21.636  0.00  0.00    +0.030 C 
BRANCH  14  15
ATOM     15  C   UNL     1      34.504 -19.347 -20.909  0.00  0.00    +0.011 C 
ATOM     16  C   UNL     1      35.827 -19.759 -20.805  0.00  0.00    -0.023 C 
ATOM     17  C   UNL     1      33.478 -20.098 -20.353  0.00  0.00    +0.163 C 
ATOM     18  C   UNL     1      36.127 -20.943 -20.130  0.00  0.00    -0.001 C 
ATOM     19  C   UNL     1      33.778 -21.282 -19.679  0.00  0.00    +0.167 C 
ATOM     20  C   UNL     1      36.942 -18.962 -21.398  0.00  0.00    +0.031 C 
ATOM     21  C   UNL     1      35.103 -21.705 -19.568  0.00  0.00    +0.039 C 
BRANCH  17  22
ATOM     22  O   UNL     1      32.181 -19.691 -20.459  0.00  0.00    -0.503 OA
ATOM     23  H   UNL     1      31.928 -19.105 -21.145  0.00  0.00    +0.292 HD
ENDBRANCH  17  22
BRANCH  19  24
ATOM     24  O   UNL     1      32.788 -22.036 -19.126  0.00  0.00    -0.503 OA
ATOM     25  H   UNL     1      31.976 -22.150 -19.581  0.00  0.00    +0.292 HD
ENDBRANCH  19  24
ENDBRANCH  14  15
ENDBRANCH   1  14
TORSDOF 5
ENDMDL
MODEL 2
REMARK VINA RESULT:      -9.6      3.798      6.445
REMARK  Name = 440483
REMARK  5 active torsions:
REMARK  status: ('A' for Active; 'I' for Inactive)
REMARK    1  A    between atoms: C_1  and  C_6
REMARK    2  A    between atoms: C_1  and  C_14
REMARK    3  A    between atoms: C_14  and  C_15
REMARK    4  A    between atoms: C_17  and  O_22
REMARK    5  A    between atoms: C_19  and  O_24
REMARK                            x       y       z     vdW  Elec       q    Type
REMARK                         _______ _______ _______ _____ _____    ______ ____
ROOT
ATOM      1  C   UNL     1      33.911 -12.186 -24.421  0.00  0.00    +0.012 C 
ENDROOT
BRANCH   1   6
ATOM      2  O   UNL     1      31.726  -8.531 -20.183  0.00  0.00    -0.296 OA
ATOM      3  O   UNL     1      35.539 -10.002 -25.025  0.00  0.00    -0.296 OA
ATOM      4  C   UNL     1      32.951 -10.602 -22.700  0.00  0.00    +0.014 C 
ATOM      5  C   UNL     1      32.430  -9.175 -22.421  0.00  0.00    +0.052 C 
ATOM      6  C   UNL     1      33.411 -10.770 -24.146  0.00  0.00    +0.058 C 
ATOM      7  C   UNL     1      31.858 -11.514 -22.153  0.00  0.00    +0.009 C 
ATOM      8  C   UNL     1      33.619  -8.224 -22.527  0.00  0.00    +0.015 C 
ATOM      9  C   UNL     1      31.880  -9.406 -21.025  0.00  0.00    +0.150 C 
ATOM     10  C   UNL     1      31.512 -10.863 -20.806  0.00  0.00    +0.065 C 
ATOM     11  C   UNL     1      34.270  -8.305 -23.912  0.00  0.00    +0.065 C 
ATOM     12  C   UNL     1      34.521  -9.734 -24.385  0.00  0.00    +0.150 C 
ATOM     13  C   UNL     1      31.252  -8.706 -23.292  0.00  0.00    +0.007 C 
ENDBRANCH   1   6
BRANCH   1  14
ATOM     14  C   UNL     1      32.982 -13.230 -23.803  0.00  0.00    +0.030 C 
BRANCH  14  15
ATOM     15  C   UNL     1      33.647 -14.580 -23.719  0.00  0.00    +0.011 C 
ATOM     16  C   UNL     1      34.114 -15.042 -22.495  0.00  0.00    -0.023 C 
ATOM     17  C   UNL     1      33.785 -15.344 -24.869  0.00  0.00    +0.163 C 
ATOM     18  C   UNL     1      34.728 -16.293 -22.421  0.00  0.00    -0.001 C 
ATOM     19  C   UNL     1      34.400 -16.594 -24.796  0.00  0.00    +0.167 C 
ATOM     20  C   UNL     1      33.973 -14.231 -21.249  0.00  0.00    +0.031 C 
ATOM     21  C   UNL     1      34.872 -17.069 -23.571  0.00  0.00    +0.039 C 
BRANCH  17  22
ATOM     22  O   UNL     1      33.327 -14.886 -26.069  0.00  0.00    -0.503 OA
ATOM     23  H   UNL     1      33.892 -14.882 -26.816  0.00  0.00    +0.292 HD
ENDBRANCH  17  22
BRANCH  19  24
ATOM     24  O   UNL     1      34.547 -17.362 -25.911  0.00  0.00    -0.503 OA
ATOM     25  H   UNL     1      35.250 -17.193 -26.507  0.00  0.00    +0.292 HD
ENDBRANCH  19  24
ENDBRANCH  14  15
ENDBRANCH   1  14
TORSDOF 5
ENDMDL
MODEL 3
REMARK VINA RESULT:      -9.5      8.269     10.923
REMARK  Name = 440483
REMARK  5 active torsions:
REMARK  status: ('A' for Active; 'I' for Inactive)
REMARK    1  A    between atoms: C_1  and  C_6
REMARK    2  A    between atoms: C_1  and  C_14
REMARK    3  A    between atoms: C_14  and  C_15
REMARK    4  A    between atoms: C_17  and  O_22
REMARK    5  A    between atoms: C_19  and  O_24
REMARK                            x       y       z     vdW  Elec       q    Type
REMARK                         _______ _______ _______ _____ _____    ______ ____
ROOT
ATOM      1  C   UNL     1      33.634 -23.676 -15.877  0.00  0.00    +0.012 C 
ENDROOT
BRANCH   1   6
ATOM      2  O   UNL     1      38.921 -25.225 -13.482  0.00  0.00    -0.296 OA
ATOM      3  O   UNL     1      35.224 -22.393 -17.778  0.00  0.00    -0.296 OA
ATOM      4  C   UNL     1      35.870 -24.245 -14.843  0.00  0.00    +0.014 C 
ATOM      5  C   UNL     1      37.262 -23.720 -14.428  0.00  0.00    +0.052 C 
ATOM      6  C   UNL     1      35.014 -23.155 -15.483  0.00  0.00    +0.058 C 
ATOM      7  C   UNL     1      35.356 -24.965 -13.600  0.00  0.00    +0.009 C 
ATOM      8  C   UNL     1      38.022 -23.378 -15.707  0.00  0.00    +0.015 C 
ATOM      9  C   UNL     1      37.746 -24.941 -13.667  0.00  0.00    +0.150 C 
ATOM     10  C   UNL     1      36.583 -25.759 -13.132  0.00  0.00    +0.065 C 
ATOM     11  C   UNL     1      37.269 -22.332 -16.535  0.00  0.00    +0.065 C 
ATOM     12  C   UNL     1      35.785 -22.645 -16.710  0.00  0.00    +0.150 C 
ATOM     13  C   UNL     1      37.269 -22.544 -13.436  0.00  0.00    +0.007 C 
ENDBRANCH   1   6
BRANCH   1  14
ATOM     14  C   UNL     1      32.528 -22.922 -15.141  0.00  0.00    +0.030 C 
BRANCH  14  15
ATOM     15  C   UNL     1      31.182 -23.560 -15.363  0.00  0.00    +0.011 C 
ATOM     16  C   UNL     1      30.755 -24.580 -14.522  0.00  0.00    -0.023 C 
ATOM     17  C   UNL     1      30.384 -23.121 -16.411  0.00  0.00    +0.163 C 
ATOM     18  C   UNL     1      29.507 -25.169 -14.731  0.00  0.00    -0.001 C 
ATOM     19  C   UNL     1      29.136 -23.710 -16.621  0.00  0.00    +0.167 C 
ATOM     20  C   UNL     1      31.602 -25.064 -13.391  0.00  0.00    +0.031 C 
ATOM     21  C   UNL     1      28.698 -24.734 -15.781  0.00  0.00    +0.039 C 
BRANCH  17  22
ATOM     22  O   UNL     1      30.806 -22.121 -17.236  0.00  0.00    -0.503 OA
ATOM     23  H   UNL     1      30.458 -21.256 -17.141  0.00  0.00    +0.292 HD
ENDBRANCH  17  22
BRANCH  19  24
ATOM     24  O   UNL     1      28.336 -23.295 -17.643  0.00  0.00    -0.503 OA
ATOM     25  H   UNL     1      28.714 -22.892 -18.399  0.00  0.00    +0.292 HD
ENDBRANCH  19  24
ENDBRANCH  14  15
ENDBRANCH   1  14
TORSDOF 5
ENDMDL
MODEL 4
REMARK VINA RESULT:      -9.5      3.574      6.466
REMARK  Name = 440483
REMARK  5 active torsions:
REMARK  status: ('A' for Active; 'I' for Inactive)
REMARK    1  A    between atoms: C_1  and  C_6
REMARK    2  A    between atoms: C_1  and  C_14
REMARK    3  A    between atoms: C_14  and  C_15
REMARK    4  A    between atoms: C_17  and  O_22
REMARK    5  A    between atoms: C_19  and  O_24
REMARK                            x       y       z     vdW  Elec       q    Type
REMARK                         _______ _______ _______ _____ _____    ______ ____
ROOT
ATOM      1  C   UNL     1      33.992 -12.107 -24.451  0.00  0.00    +0.012 C 
ENDROOT
BRANCH   1   6
ATOM      2  O   UNL     1      31.714  -8.535 -20.192  0.00  0.00    -0.296 OA
ATOM      3  O   UNL     1      35.584  -9.888 -25.023  0.00  0.00    -0.296 OA
ATOM      4  C   UNL     1      32.992 -10.558 -22.721  0.00  0.00    +0.014 C 
ATOM      5  C   UNL     1      32.443  -9.144 -22.431  0.00  0.00    +0.052 C 
ATOM      6  C   UNL     1      33.464 -10.703 -24.166  0.00  0.00    +0.058 C 
ATOM      7  C   UNL     1      31.912 -11.494 -22.190  0.00  0.00    +0.009 C 
ATOM      8  C   UNL     1      33.616  -8.170 -22.520  0.00  0.00    +0.015 C 
ATOM      9  C   UNL     1      31.889  -9.398 -21.041  0.00  0.00    +0.150 C 
ATOM     10  C   UNL     1      31.545 -10.864 -20.840  0.00  0.00    +0.065 C 
ATOM     11  C   UNL     1      34.277  -8.225 -23.901  0.00  0.00    +0.065 C 
ATOM     12  C   UNL     1      34.557  -9.645 -24.387  0.00  0.00    +0.150 C 
ATOM     13  C   UNL     1      31.263  -8.687 -23.306  0.00  0.00    +0.007 C 
ENDBRANCH   1   6
BRANCH   1  14
ATOM     14  C   UNL     1      32.974 -13.172 -24.046  0.00  0.00    +0.030 C 
BRANCH  14  15
ATOM     15  C   UNL     1      33.580 -14.552 -24.072  0.00  0.00    +0.011 C 
ATOM     16  C   UNL     1      33.524 -15.307 -25.238  0.00  0.00    -0.023 C 
ATOM     17  C   UNL     1      34.186 -15.053 -22.928  0.00  0.00    +0.163 C 
ATOM     18  C   UNL     1      34.086 -16.583 -25.258  0.00  0.00    -0.001 C 
ATOM     19  C   UNL     1      34.747 -16.330 -22.948  0.00  0.00    +0.167 C 
ATOM     20  C   UNL     1      32.875 -14.782 -26.476  0.00  0.00    +0.031 C 
ATOM     21  C   UNL     1      34.697 -17.095 -24.114  0.00  0.00    +0.039 C 
BRANCH  17  22
ATOM     22  O   UNL     1      34.237 -14.310 -21.786  0.00  0.00    -0.503 OA
ATOM     23  H   UNL     1      33.630 -13.608 -21.655  0.00  0.00    +0.292 HD
ENDBRANCH  17  22
BRANCH  19  24
ATOM     24  O   UNL     1      35.347 -16.842 -21.837  0.00  0.00    -0.503 OA
ATOM     25  H   UNL     1      36.233 -17.142 -21.881  0.00  0.00    +0.292 HD
ENDBRANCH  19  24
ENDBRANCH  14  15
ENDBRANCH   1  14
TORSDOF 5
ENDMDL
MODEL 5
REMARK VINA RESULT:      -9.3      2.259      7.257
REMARK  Name = 440483
REMARK  5 active torsions:
REMARK  status: ('A' for Active; 'I' for Inactive)
REMARK    1  A    between atoms: C_1  and  C_6
REMARK    2  A    between atoms: C_1  and  C_14
REMARK    3  A    between atoms: C_14  and  C_15
REMARK    4  A    between atoms: C_17  and  O_22
REMARK    5  A    between atoms: C_19  and  O_24
REMARK                            x       y       z     vdW  Elec       q    Type
REMARK                         _______ _______ _______ _____ _____    ______ ____
ROOT
ATOM      1  C   UNL     1      33.359 -14.554 -23.929  0.00  0.00    +0.012 C 
ENDROOT
BRANCH   1   6
ATOM      2  O   UNL     1      34.371 -19.914 -21.411  0.00  0.00    -0.296 OA
ATOM      3  O   UNL     1      33.633 -15.973 -26.317  0.00  0.00    -0.296 OA
ATOM      4  C   UNL     1      33.869 -16.804 -22.894  0.00  0.00    +0.014 C 
ATOM      5  C   UNL     1      34.775 -18.055 -22.926  0.00  0.00    +0.052 C 
ATOM      6  C   UNL     1      34.248 -15.795 -23.975  0.00  0.00    +0.058 C 
ATOM      7  C   UNL     1      33.881 -16.371 -21.431  0.00  0.00    +0.009 C 
ATOM      8  C   UNL     1      34.480 -18.800 -24.225  0.00  0.00    +0.015 C 
ATOM      9  C   UNL     1      34.290 -18.717 -21.649  0.00  0.00    +0.150 C 
ATOM     10  C   UNL     1      33.713 -17.699 -20.680  0.00  0.00    +0.065 C 
ATOM     11  C   UNL     1      34.738 -17.910 -25.445  0.00  0.00    +0.065 C 
ATOM     12  C   UNL     1      34.121 -16.518 -25.325  0.00  0.00    +0.150 C 
ATOM     13  C   UNL     1      36.282 -17.799 -22.751  0.00  0.00    +0.007 C 
ENDBRANCH   1   6
BRANCH   1  14
ATOM     14  C   UNL     1      34.094 -13.372 -23.300  0.00  0.00    +0.030 C 
BRANCH  14  15
ATOM     15  C   UNL     1      33.166 -12.210 -23.060  0.00  0.00    +0.011 C 
ATOM     16  C   UNL     1      33.348 -11.025 -23.763  0.00  0.00    -0.023 C 
ATOM     17  C   UNL     1      32.137 -12.338 -22.136  0.00  0.00    +0.163 C 
ATOM     18  C   UNL     1      32.486  -9.952 -23.538  0.00  0.00    -0.001 C 
ATOM     19  C   UNL     1      31.275 -11.264 -21.910  0.00  0.00    +0.167 C 
ATOM     20  C   UNL     1      34.449 -10.872 -24.760  0.00  0.00    +0.031 C 
ATOM     21  C   UNL     1      31.450 -10.071 -22.612  0.00  0.00    +0.039 C 
BRANCH  17  22
ATOM     22  O   UNL     1      31.962 -13.502 -21.446  0.00  0.00    -0.503 OA
ATOM     23  H   UNL     1      31.171 -13.647 -20.967  0.00  0.00    +0.292 HD
ENDBRANCH  17  22
BRANCH  19  24
ATOM     24  O   UNL     1      30.260 -11.367 -21.009  0.00  0.00    -0.503 OA
ATOM     25  H   UNL     1      29.375 -11.219 -21.281  0.00  0.00    +0.292 HD
ENDBRANCH  19  24
ENDBRANCH  14  15
ENDBRANCH   1  14
TORSDOF 5
ENDMDL
MODEL 6
REMARK VINA RESULT:      -9.2      8.186     11.363
REMARK  Name = 440483
REMARK  5 active torsions:
REMARK  status: ('A' for Active; 'I' for Inactive)
REMARK    1  A    between atoms: C_1  and  C_6
REMARK    2  A    between atoms: C_1  and  C_14
REMARK    3  A    between atoms: C_14  and  C_15
REMARK    4  A    between atoms: C_17  and  O_22
REMARK    5  A    between atoms: C_19  and  O_24
REMARK                            x       y       z     vdW  Elec       q    Type
REMARK                         _______ _______ _______ _____ _____    ______ ____
ROOT
ATOM      1  C   UNL     1      33.748 -24.237 -14.991  0.00  0.00    +0.012 C 
ENDROOT
BRANCH   1   6
ATOM      2  O   UNL     1      39.408 -25.292 -13.275  0.00  0.00    -0.296 OA
ATOM      3  O   UNL     1      34.970 -22.844 -17.077  0.00  0.00    -0.296 OA
ATOM      4  C   UNL     1      36.137 -24.597 -14.244  0.00  0.00    +0.014 C 
ATOM      5  C   UNL     1      37.518 -23.948 -14.007  0.00  0.00    +0.052 C 
ATOM      6  C   UNL     1      35.115 -23.593 -14.773  0.00  0.00    +0.058 C 
ATOM      7  C   UNL     1      35.847 -25.344 -12.946  0.00  0.00    +0.009 C 
ATOM      8  C   UNL     1      38.080 -23.556 -15.372  0.00  0.00    +0.015 C 
ATOM      9  C   UNL     1      38.198 -25.113 -13.312  0.00  0.00    +0.150 C 
ATOM     10  C   UNL     1      37.188 -26.022 -12.635  0.00  0.00    +0.065 C 
ATOM     11  C   UNL     1      37.141 -22.590 -16.100  0.00  0.00    +0.065 C 
ATOM     12  C   UNL     1      35.680 -23.033 -16.088  0.00  0.00    +0.150 C 
ATOM     13  C   UNL     1      37.546 -22.764 -13.025  0.00  0.00    +0.007 C 
ENDBRANCH   1   6
BRANCH   1  14
ATOM     14  C   UNL     1      32.630 -23.364 -14.423  0.00  0.00    +0.030 C 
BRANCH  14  15
ATOM     15  C   UNL     1      31.287 -23.754 -14.983  0.00  0.00    +0.011 C 
ATOM     16  C   UNL     1      30.908 -23.305 -16.242  0.00  0.00    -0.023 C 
ATOM     17  C   UNL     1      30.443 -24.560 -14.230  0.00  0.00    +0.163 C 
ATOM     18  C   UNL     1      29.663 -23.669 -16.757  0.00  0.00    -0.001 C 
ATOM     19  C   UNL     1      29.198 -24.923 -14.744  0.00  0.00    +0.167 C 
ATOM     20  C   UNL     1      31.805 -22.438 -17.063  0.00  0.00    +0.031 C 
ATOM     21  C   UNL     1      28.808 -24.478 -16.008  0.00  0.00    +0.039 C 
BRANCH  17  22
ATOM     22  O   UNL     1      30.817 -24.998 -12.994  0.00  0.00    -0.503 OA
ATOM     23  H   UNL     1      31.046 -24.380 -12.328  0.00  0.00    +0.292 HD
ENDBRANCH  17  22
BRANCH  19  24
ATOM     24  O   UNL     1      28.353 -25.712 -14.024  0.00  0.00    -0.503 OA
ATOM     25  H   UNL     1      28.699 -26.371 -13.454  0.00  0.00    +0.292 HD
ENDBRANCH  19  24
ENDBRANCH  14  15
ENDBRANCH   1  14
TORSDOF 5
ENDMDL
MODEL 7
REMARK VINA RESULT:      -9.0      2.276      7.379
REMARK  Name = 440483
REMARK  5 active torsions:
REMARK  status: ('A' for Active; 'I' for Inactive)
REMARK    1  A    between atoms: C_1  and  C_6
REMARK    2  A    between atoms: C_1  and  C_14
REMARK    3  A    between atoms: C_14  and  C_15
REMARK    4  A    between atoms: C_17  and  O_22
REMARK    5  A    between atoms: C_19  and  O_24
REMARK                            x       y       z     vdW  Elec       q    Type
REMARK                         _______ _______ _______ _____ _____    ______ ____
ROOT
ATOM      1  C   UNL     1      33.527 -14.807 -23.801  0.00  0.00    +0.012 C 
ENDROOT
BRANCH   1   6
ATOM      2  O   UNL     1      34.384 -20.282 -21.483  0.00  0.00    -0.296 OA
ATOM      3  O   UNL     1      33.817 -16.135 -26.239  0.00  0.00    -0.296 OA
ATOM      4  C   UNL     1      33.971 -17.106 -22.848  0.00  0.00    +0.014 C 
ATOM      5  C   UNL     1      34.853 -18.373 -22.914  0.00  0.00    +0.052 C 
ATOM      6  C   UNL     1      34.391 -16.063 -23.881  0.00  0.00    +0.058 C 
ATOM      7  C   UNL     1      33.964 -16.732 -21.369  0.00  0.00    +0.009 C 
ATOM      8  C   UNL     1      34.568 -19.060 -24.248  0.00  0.00    +0.015 C 
ATOM      9  C   UNL     1      34.331 -19.075 -21.673  0.00  0.00    +0.150 C 
ATOM     10  C   UNL     1      33.756 -18.085 -20.675  0.00  0.00    +0.065 C 
ATOM     11  C   UNL     1      34.865 -18.127 -25.425  0.00  0.00    +0.065 C 
ATOM     12  C   UNL     1      34.274 -16.729 -25.261  0.00  0.00    +0.150 C 
ATOM     13  C   UNL     1      36.361 -18.156 -22.702  0.00  0.00    +0.007 C 
ENDBRANCH   1   6
BRANCH   1  14
ATOM     14  C   UNL     1      34.133 -13.780 -22.847  0.00  0.00    +0.030 C 
BRANCH  14  15
ATOM     15  C   UNL     1      33.183 -12.637 -22.590  0.00  0.00    +0.011 C 
ATOM     16  C   UNL     1      32.242 -12.739 -21.574  0.00  0.00    -0.023 C 
ATOM     17  C   UNL     1      33.262 -11.496 -23.377  0.00  0.00    +0.163 C 
ATOM     18  C   UNL     1      31.366 -11.679 -21.339  0.00  0.00    -0.001 C 
ATOM     19  C   UNL     1      32.385 -10.436 -23.144  0.00  0.00    +0.167 C 
ATOM     20  C   UNL     1      32.145 -13.960 -20.719  0.00  0.00    +0.031 C 
ATOM     21  C   UNL     1      31.437 -10.528 -22.124  0.00  0.00    +0.039 C 
BRANCH  17  22
ATOM     22  O   UNL     1      34.186 -11.401 -24.375  0.00  0.00    -0.503 OA
ATOM     23  H   UNL     1      34.890 -12.017 -24.422  0.00  0.00    +0.292 HD
ENDBRANCH  17  22
BRANCH  19  24
ATOM     24  O   UNL     1      32.443  -9.307 -23.902  0.00  0.00    -0.503 OA
ATOM     25  H   UNL     1      31.653  -8.875 -24.160  0.00  0.00    +0.292 HD
ENDBRANCH  19  24
ENDBRANCH  14  15
ENDBRANCH   1  14
TORSDOF 5
ENDMDL
MODEL 8
REMARK VINA RESULT:      -9.0      8.277     10.705
REMARK  Name = 440483
REMARK  5 active torsions:
REMARK  status: ('A' for Active; 'I' for Inactive)
REMARK    1  A    between atoms: C_1  and  C_6
REMARK    2  A    between atoms: C_1  and  C_14
REMARK    3  A    between atoms: C_14  and  C_15
REMARK    4  A    between atoms: C_17  and  O_22
REMARK    5  A    between atoms: C_19  and  O_24
REMARK                            x       y       z     vdW  Elec       q    Type
REMARK                         _______ _______ _______ _____ _____    ______ ____
ROOT
ATOM      1  C   UNL     1      34.541 -23.633 -14.019  0.00  0.00    +0.012 C 
ENDROOT
BRANCH   1   6
ATOM      2  O   UNL     1      29.012 -22.147 -15.842  0.00  0.00    -0.296 OA
ATOM      3  O   UNL     1      35.215 -23.132 -16.680  0.00  0.00    -0.296 OA
ATOM      4  C   UNL     1      32.209 -23.083 -14.829  0.00  0.00    +0.014 C 
ATOM      5  C   UNL     1      31.148 -23.308 -15.929  0.00  0.00    +0.052 C 
ATOM      6  C   UNL     1      33.501 -23.845 -15.117  0.00  0.00    +0.058 C 
ATOM      7  C   UNL     1      31.460 -23.347 -13.527  0.00  0.00    +0.009 C 
ATOM      8  C   UNL     1      31.668 -22.654 -17.207  0.00  0.00    +0.015 C 
ATOM      9  C   UNL     1      29.976 -22.619 -15.254  0.00  0.00    +0.150 C 
ATOM     10  C   UNL     1      30.129 -22.613 -13.743  0.00  0.00    +0.065 C 
ATOM     11  C   UNL     1      33.017 -23.248 -17.623  0.00  0.00    +0.065 C 
ATOM     12  C   UNL     1      34.019 -23.349 -16.476  0.00  0.00    +0.150 C 
ATOM     13  C   UNL     1      30.728 -24.767 -16.172  0.00  0.00    +0.007 C 
ENDBRANCH   1   6
BRANCH   1  14
ATOM     14  C   UNL     1      35.065 -24.966 -13.490  0.00  0.00    +0.030 C 
BRANCH  14  15
ATOM     15  C   UNL     1      36.572 -25.003 -13.483  0.00  0.00    +0.011 C 
ATOM     16  C   UNL     1      37.267 -24.554 -12.368  0.00  0.00    -0.023 C 
ATOM     17  C   UNL     1      37.246 -25.486 -14.597  0.00  0.00    +0.163 C 
ATOM     18  C   UNL     1      38.662 -24.591 -12.366  0.00  0.00    -0.001 C 
ATOM     19  C   UNL     1      38.641 -25.522 -14.595  0.00  0.00    +0.167 C 
ATOM     20  C   UNL     1      36.556 -24.032 -11.163  0.00  0.00    +0.031 C 
ATOM     21  C   UNL     1      39.349 -25.074 -13.479  0.00  0.00    +0.039 C 
BRANCH  17  22
ATOM     22  O   UNL     1      36.560 -25.925 -15.691  0.00  0.00    -0.503 OA
ATOM     23  H   UNL     1      36.774 -26.750 -16.078  0.00  0.00    +0.292 HD
ENDBRANCH  17  22
BRANCH  19  24
ATOM     24  O   UNL     1      39.324 -25.992 -15.676  0.00  0.00    -0.503 OA
ATOM     25  H   UNL     1      39.755 -26.823 -15.633  0.00  0.00    +0.292 HD
ENDBRANCH  19  24
ENDBRANCH  14  15
ENDBRANCH   1  14
TORSDOF 5
ENDMDL
MODEL 9
REMARK VINA RESULT:      -8.8      8.663     11.752
REMARK  Name = 440483
REMARK  5 active torsions:
REMARK  status: ('A' for Active; 'I' for Inactive)
REMARK    1  A    between atoms: C_1  and  C_6
REMARK    2  A    between atoms: C_1  and  C_14
REMARK    3  A    between atoms: C_14  and  C_15
REMARK    4  A    between atoms: C_17  and  O_22
REMARK    5  A    between atoms: C_19  and  O_24
REMARK                            x       y       z     vdW  Elec       q    Type
REMARK                         _______ _______ _______ _____ _____    ______ ____
ROOT
ATOM      1  C   UNL     1      34.736 -23.336 -14.509  0.00  0.00    +0.012 C 
ENDROOT
BRANCH   1   6
ATOM      2  O   UNL     1      40.506 -24.836 -13.769  0.00  0.00    -0.296 OA
ATOM      3  O   UNL     1      34.616 -23.676 -11.742  0.00  0.00    -0.296 OA
ATOM      4  C   UNL     1      37.140 -24.049 -14.183  0.00  0.00    +0.014 C 
ATOM      5  C   UNL     1      38.098 -25.055 -13.507  0.00  0.00    +0.052 C 
ATOM      6  C   UNL     1      35.681 -24.322 -13.826  0.00  0.00    +0.058 C 
ATOM      7  C   UNL     1      37.564 -24.056 -15.648  0.00  0.00    +0.009 C 
ATOM      8  C   UNL     1      38.047 -24.795 -12.003  0.00  0.00    +0.015 C 
ATOM      9  C   UNL     1      39.381 -24.652 -14.212  0.00  0.00    +0.150 C 
ATOM     10  C   UNL     1      39.096 -24.013 -15.560  0.00  0.00    +0.065 C 
ATOM     11  C   UNL     1      36.622 -24.954 -11.463  0.00  0.00    +0.065 C 
ATOM     12  C   UNL     1      35.569 -24.227 -12.296  0.00  0.00    +0.150 C 
ATOM     13  C   UNL     1      37.857 -26.538 -13.832  0.00  0.00    +0.007 C 
ENDBRANCH   1   6
BRANCH   1  14
ATOM     14  C   UNL     1      33.941 -24.014 -15.623  0.00  0.00    +0.030 C 
BRANCH  14  15
ATOM     15  C   UNL     1      32.457 -23.846 -15.422  0.00  0.00    +0.011 C 
ATOM     16  C   UNL     1      31.714 -23.122 -16.346  0.00  0.00    -0.023 C 
ATOM     17  C   UNL     1      31.850 -24.419 -14.312  0.00  0.00    +0.163 C 
ATOM     18  C   UNL     1      30.340 -22.969 -16.157  0.00  0.00    -0.001 C 
ATOM     19  C   UNL     1      30.476 -24.266 -14.122  0.00  0.00    +0.167 C 
ATOM     20  C   UNL     1      32.352 -22.501 -17.545  0.00  0.00    +0.031 C 
ATOM     21  C   UNL     1      29.721 -23.541 -15.045  0.00  0.00    +0.039 C 
BRANCH  17  22
ATOM     22  O   UNL     1      32.583 -25.128 -13.407  0.00  0.00    -0.503 OA
ATOM     23  H   UNL     1      33.517 -25.148 -13.473  0.00  0.00    +0.292 HD
ENDBRANCH  17  22
BRANCH  19  24
ATOM     24  O   UNL     1      29.859 -24.818 -13.041  0.00  0.00    -0.503 OA
ATOM     25  H   UNL     1      30.185 -25.616 -12.672  0.00  0.00    +0.292 HD
ENDBRANCH  19  24
ENDBRANCH  14  15
ENDBRANCH   1  14
TORSDOF 5
ENDMDL
