MODEL 1
REMARK VINA RESULT:      -9.5      0.000      0.000
REMARK  Name = 4369
REMARK  7 active torsions:
REMARK  status: ('A' for Active; 'I' for Inactive)
REMARK    1  A    between atoms: S_1  and  C_5
REMARK    2  A    between atoms: S_1  and  C_17
REMARK    3  A    between atoms: C_5  and  C_10
REMARK    4  A    between atoms: C_10  and  C_13
REMARK    5  A    between atoms: N_12  and  O_15
REMARK    6  A    between atoms: C_22  and  O_23
REMARK    7  A    between atoms: O_23  and  C_24
REMARK                            x       y       z     vdW  Elec       q    Type
REMARK                         _______ _______ _______ _____ _____    ______ ____
ROOT
ATOM      1  S   UNL     1      36.001 -24.567 -15.368  0.00  0.00    +0.006 S 
ATOM      2  O   UNL     1      36.077 -25.943 -15.792  0.00  0.00    -0.169 OA
ATOM      3  O   UNL     1      36.510 -23.494 -16.189  0.00  0.00    -0.169 OA
ENDROOT
BRANCH   1   5
ATOM      4  O   UNL     1      39.069 -26.301 -13.693  0.00  0.00    -0.354 OA
ATOM      5  C   UNL     1      36.837 -24.440 -13.783  0.00  0.00    +0.128 C 
ATOM      6  C   UNL     1      38.301 -24.015 -13.996  0.00  0.00    +0.055 C 
ATOM      7  C   UNL     1      36.780 -25.793 -13.052  0.00  0.00    +0.055 C 
ATOM      8  C   UNL     1      39.167 -25.151 -14.530  0.00  0.00    +0.144 C 
ATOM      9  C   UNL     1      37.741 -26.819 -13.645  0.00  0.00    +0.144 C 
BRANCH   5  10
ATOM     10  C   UNL     1      36.098 -23.372 -12.963  0.00  0.00    +0.110 C 
BRANCH  10  13
ATOM     11  O   UNL     1      37.269 -23.056 -10.870  0.00  0.00    -0.273 OA
ATOM     12  N   UNL     1      35.326 -24.307 -10.916  0.00  0.00    -0.197 N 
ATOM     13  C   UNL     1      36.321 -23.544 -11.479  0.00  0.00    +0.246 C 
ATOM     14  H   UNL     1      34.585 -24.676 -11.450  0.00  0.00    +0.182 HD
BRANCH  12  15
ATOM     15  O   UNL     1      35.433 -24.525  -9.536  0.00  0.00    -0.295 OA
ATOM     16  H   UNL     1      36.065 -25.242  -9.371  0.00  0.00    +0.241 HD
ENDBRANCH  12  15
ENDBRANCH  10  13
ENDBRANCH   5  10
ENDBRANCH   1   5
BRANCH   1  17
ATOM     17  C   UNL     1      34.323 -24.221 -14.961  0.00  0.00    +0.106 C 
ATOM     18  C   UNL     1      33.694 -23.124 -15.533  0.00  0.00    +0.021 C 
ATOM     19  C   UNL     1      33.651 -25.049 -14.073  0.00  0.00    +0.021 C 
ATOM     20  C   UNL     1      32.365 -22.851 -15.210  0.00  0.00    +0.039 C 
ATOM     21  C   UNL     1      32.323 -24.774 -13.751  0.00  0.00    +0.039 C 
ATOM     22  C   UNL     1      31.680 -23.675 -14.319  0.00  0.00    +0.145 C 
BRANCH  22  23
ATOM     23  O   UNL     1      30.382 -23.408 -14.005  0.00  0.00    -0.453 OA
BRANCH  23  24
ATOM     24  C   UNL     1      29.468 -23.350 -15.044  0.00  0.00    +0.145 C 
ATOM     25  C   UNL     1      29.305 -24.455 -15.860  0.00  0.00    +0.037 C 
ATOM     26  C   UNL     1      28.745 -22.189 -15.241  0.00  0.00    +0.037 C 
ATOM     27  C   UNL     1      28.386 -24.397 -16.907  0.00  0.00    +0.003 C 
ATOM     28  C   UNL     1      27.825 -22.130 -16.288  0.00  0.00    +0.003 C 
ATOM     29  C   UNL     1      27.645 -23.234 -17.121  0.00  0.00    +0.000 C 
ENDBRANCH  23  24
ENDBRANCH  22  23
ENDBRANCH   1  17
TORSDOF 7
ENDMDL
MODEL 2
REMARK VINA RESULT:      -9.2      3.413      4.645
REMARK  Name = 4369
REMARK  7 active torsions:
REMARK  status: ('A' for Active; 'I' for Inactive)
REMARK    1  A    between atoms: S_1  and  C_5
REMARK    2  A    between atoms: S_1  and  C_17
REMARK    3  A    between atoms: C_5  and  C_10
REMARK    4  A    between atoms: C_10  and  C_13
REMARK    5  A    between atoms: N_12  and  O_15
REMARK    6  A    between atoms: C_22  and  O_23
REMARK    7  A    between atoms: O_23  and  C_24
REMARK                            x       y       z     vdW  Elec       q    Type
REMARK                         _______ _______ _______ _____ _____    ______ ____
ROOT
ATOM      1  S   UNL     1      37.362 -23.337 -14.534  0.00  0.00    +0.006 S 
ATOM      2  O   UNL     1      38.610 -23.766 -15.115  0.00  0.00    -0.169 OA
ATOM      3  O   UNL     1      37.303 -22.244 -13.593  0.00  0.00    -0.169 OA
ENDROOT
BRANCH   1   5
ATOM      4  O   UNL     1      38.087 -27.169 -14.428  0.00  0.00    -0.354 OA
ATOM      5  C   UNL     1      36.628 -24.758 -13.716  0.00  0.00    +0.128 C 
ATOM      6  C   UNL     1      37.664 -25.422 -12.792  0.00  0.00    +0.055 C 
ATOM      7  C   UNL     1      36.130 -25.767 -14.766  0.00  0.00    +0.055 C 
ATOM      8  C   UNL     1      38.709 -26.221 -13.565  0.00  0.00    +0.144 C 
ATOM      9  C   UNL     1      37.271 -26.543 -15.416  0.00  0.00    +0.144 C 
BRANCH   5  10
ATOM     10  C   UNL     1      35.443 -24.242 -12.885  0.00  0.00    +0.110 C 
BRANCH  10  13
ATOM     11  O   UNL     1      35.237 -25.277 -10.708  0.00  0.00    -0.273 OA
ATOM     12  N   UNL     1      36.498 -23.356 -10.946  0.00  0.00    -0.197 N 
ATOM     13  C   UNL     1      35.694 -24.373 -11.402  0.00  0.00    +0.246 C 
ATOM     14  H   UNL     1      36.841 -22.652 -11.545  0.00  0.00    +0.182 HD
BRANCH  12  15
ATOM     15  O   UNL     1      36.801 -23.383  -9.578  0.00  0.00    -0.295 OA
ATOM     16  H   UNL     1      37.224 -22.548  -9.325  0.00  0.00    +0.241 HD
ENDBRANCH  12  15
ENDBRANCH  10  13
ENDBRANCH   5  10
ENDBRANCH   1   5
BRANCH   1  17
ATOM     17  C   UNL     1      36.239 -23.013 -15.851  0.00  0.00    +0.106 C 
ATOM     18  C   UNL     1      34.930 -23.464 -15.758  0.00  0.00    +0.021 C 
ATOM     19  C   UNL     1      36.677 -22.311 -16.964  0.00  0.00    +0.021 C 
ATOM     20  C   UNL     1      34.041 -23.207 -16.802  0.00  0.00    +0.039 C 
ATOM     21  C   UNL     1      35.787 -22.055 -18.008  0.00  0.00    +0.039 C 
ATOM     22  C   UNL     1      34.469 -22.504 -17.926  0.00  0.00    +0.145 C 
BRANCH  22  23
ATOM     23  O   UNL     1      33.601 -22.252 -18.944  0.00  0.00    -0.453 OA
BRANCH  23  24
ATOM     24  C   UNL     1      33.857 -21.158 -19.753  0.00  0.00    +0.145 C 
ATOM     25  C   UNL     1      32.809 -20.340 -20.132  0.00  0.00    +0.037 C 
ATOM     26  C   UNL     1      35.155 -20.912 -20.163  0.00  0.00    +0.037 C 
ATOM     27  C   UNL     1      33.066 -19.238 -20.948  0.00  0.00    +0.003 C 
ATOM     28  C   UNL     1      35.413 -19.810 -20.979  0.00  0.00    +0.003 C 
ATOM     29  C   UNL     1      34.369 -18.974 -21.371  0.00  0.00    +0.000 C 
ENDBRANCH  23  24
ENDBRANCH  22  23
ENDBRANCH   1  17
TORSDOF 7
ENDMDL
MODEL 3
REMARK VINA RESULT:      -8.6      1.991      3.360
REMARK  Name = 4369
REMARK  7 active torsions:
REMARK  status: ('A' for Active; 'I' for Inactive)
REMARK    1  A    between atoms: S_1  and  C_5
REMARK    2  A    between atoms: S_1  and  C_17
REMARK    3  A    between atoms: C_5  and  C_10
REMARK    4  A    between atoms: C_10  and  C_13
REMARK    5  A    between atoms: N_12  and  O_15
REMARK    6  A    between atoms: C_22  and  O_23
REMARK    7  A    between atoms: O_23  and  C_24
REMARK                            x       y       z     vdW  Elec       q    Type
REMARK                         _______ _______ _______ _____ _____    ______ ____
ROOT
ATOM      1  S   UNL     1      36.675 -25.771 -14.212  0.00  0.00    +0.006 S 
ATOM      2  O   UNL     1      36.581 -26.515 -12.981  0.00  0.00    -0.169 OA
ATOM      3  O   UNL     1      36.933 -26.425 -15.473  0.00  0.00    -0.169 OA
ENDROOT
BRANCH   1   5
ATOM      4  O   UNL     1      37.552 -23.099 -11.508  0.00  0.00    -0.354 OA
ATOM      5  C   UNL     1      37.962 -24.535 -14.002  0.00  0.00    +0.128 C 
ATOM      6  C   UNL     1      38.761 -24.825 -12.719  0.00  0.00    +0.055 C 
ATOM      7  C   UNL     1      37.333 -23.132 -13.929  0.00  0.00    +0.055 C 
ATOM      8  C   UNL     1      37.991 -24.453 -11.456  0.00  0.00    +0.144 C 
ATOM      9  C   UNL     1      36.652 -22.867 -12.590  0.00  0.00    +0.144 C 
BRANCH   5  10
ATOM     10  C   UNL     1      38.887 -24.629 -15.225  0.00  0.00    +0.110 C 
BRANCH  10  13
ATOM     11  O   UNL     1      41.269 -24.467 -14.837  0.00  0.00    -0.273 OA
ATOM     12  N   UNL     1      40.200 -26.496 -14.557  0.00  0.00    -0.197 N 
ATOM     13  C   UNL     1      40.253 -25.157 -14.860  0.00  0.00    +0.246 C 
ATOM     14  H   UNL     1      39.358 -27.007 -14.591  0.00  0.00    +0.182 HD
BRANCH  12  15
ATOM     15  O   UNL     1      41.417 -27.089 -14.198  0.00  0.00    -0.295 OA
ATOM     16  H   UNL     1      42.066 -26.397 -13.994  0.00  0.00    +0.241 HD
ENDBRANCH  12  15
ENDBRANCH  10  13
ENDBRANCH   5  10
ENDBRANCH   1   5
BRANCH   1  17
ATOM     17  C   UNL     1      35.213 -24.800 -14.366  0.00  0.00    +0.106 C 
ATOM     18  C   UNL     1      34.927 -24.186 -15.578  0.00  0.00    +0.021 C 
ATOM     19  C   UNL     1      34.368 -24.661 -13.276  0.00  0.00    +0.021 C 
ATOM     20  C   UNL     1      33.769 -23.417 -15.700  0.00  0.00    +0.039 C 
ATOM     21  C   UNL     1      33.211 -23.892 -13.398  0.00  0.00    +0.039 C 
ATOM     22  C   UNL     1      32.912 -23.270 -14.610  0.00  0.00    +0.145 C 
BRANCH  22  23
ATOM     23  O   UNL     1      31.782 -22.520 -14.730  0.00  0.00    -0.453 OA
BRANCH  23  24
ATOM     24  C   UNL     1      30.644 -23.145 -15.213  0.00  0.00    +0.145 C 
ATOM     25  C   UNL     1      30.028 -22.641 -16.344  0.00  0.00    +0.037 C 
ATOM     26  C   UNL     1      30.151 -24.254 -14.551  0.00  0.00    +0.037 C 
ATOM     27  C   UNL     1      28.881 -23.268 -16.831  0.00  0.00    +0.003 C 
ATOM     28  C   UNL     1      29.005 -24.883 -15.037  0.00  0.00    +0.003 C 
ATOM     29  C   UNL     1      28.370 -24.390 -16.177  0.00  0.00    +0.000 C 
ENDBRANCH  23  24
ENDBRANCH  22  23
ENDBRANCH   1  17
TORSDOF 7
ENDMDL
MODEL 4
REMARK VINA RESULT:      -8.5      4.014      5.380
REMARK  Name = 4369
REMARK  7 active torsions:
REMARK  status: ('A' for Active; 'I' for Inactive)
REMARK    1  A    between atoms: S_1  and  C_5
REMARK    2  A    between atoms: S_1  and  C_17
REMARK    3  A    between atoms: C_5  and  C_10
REMARK    4  A    between atoms: C_10  and  C_13
REMARK    5  A    between atoms: N_12  and  O_15
REMARK    6  A    between atoms: C_22  and  O_23
REMARK    7  A    between atoms: O_23  and  C_24
REMARK                            x       y       z     vdW  Elec       q    Type
REMARK                         _______ _______ _______ _____ _____    ______ ____
ROOT
ATOM      1  S   UNL     1      37.456 -23.186 -14.987  0.00  0.00    +0.006 S 
ATOM      2  O   UNL     1      38.613 -23.923 -15.430  0.00  0.00    -0.169 OA
ATOM      3  O   UNL     1      37.577 -22.038 -14.121  0.00  0.00    -0.169 OA
ENDROOT
BRANCH   1   5
ATOM      4  O   UNL     1      37.670 -26.927 -13.899  0.00  0.00    -0.354 OA
ATOM      5  C   UNL     1      36.362 -24.343 -14.154  0.00  0.00    +0.128 C 
ATOM      6  C   UNL     1      37.016 -24.834 -12.850  0.00  0.00    +0.055 C 
ATOM      7  C   UNL     1      36.062 -25.536 -15.079  0.00  0.00    +0.055 C 
ATOM      8  C   UNL     1      38.133 -25.841 -13.101  0.00  0.00    +0.144 C 
ATOM      9  C   UNL     1      37.240 -26.500 -15.190  0.00  0.00    +0.144 C 
BRANCH   5  10
ATOM     10  C   UNL     1      35.062 -23.591 -13.835  0.00  0.00    +0.110 C 
BRANCH  10  13
ATOM     11  O   UNL     1      34.335 -24.892 -11.929  0.00  0.00    -0.273 OA
ATOM     12  N   UNL     1      32.926 -24.634 -13.742  0.00  0.00    -0.197 N 
ATOM     13  C   UNL     1      34.095 -24.442 -13.046  0.00  0.00    +0.246 C 
ATOM     14  H   UNL     1      32.782 -24.251 -14.638  0.00  0.00    +0.182 HD
BRANCH  12  15
ATOM     15  O   UNL     1      31.953 -25.408 -13.097  0.00  0.00    -0.295 OA
ATOM     16  H   UNL     1      31.878 -26.267 -13.541  0.00  0.00    +0.241 HD
ENDBRANCH  12  15
ENDBRANCH  10  13
ENDBRANCH   5  10
ENDBRANCH   1   5
BRANCH   1  17
ATOM     17  C   UNL     1      36.533 -22.725 -16.414  0.00  0.00    +0.106 C 
ATOM     18  C   UNL     1      37.150 -21.990 -17.417  0.00  0.00    +0.021 C 
ATOM     19  C   UNL     1      35.202 -23.101 -16.518  0.00  0.00    +0.021 C 
ATOM     20  C   UNL     1      36.419 -21.624 -18.548  0.00  0.00    +0.039 C 
ATOM     21  C   UNL     1      34.472 -22.735 -17.648  0.00  0.00    +0.039 C 
ATOM     22  C   UNL     1      35.080 -21.996 -18.663  0.00  0.00    +0.145 C 
BRANCH  22  23
ATOM     23  O   UNL     1      34.367 -21.640 -19.767  0.00  0.00    -0.453 OA
BRANCH  23  24
ATOM     24  C   UNL     1      34.659 -20.421 -20.355  0.00  0.00    +0.145 C 
ATOM     25  C   UNL     1      35.981 -20.085 -20.589  0.00  0.00    +0.037 C 
ATOM     26  C   UNL     1      33.623 -19.569 -20.691  0.00  0.00    +0.037 C 
ATOM     27  C   UNL     1      36.276 -18.857 -21.180  0.00  0.00    +0.003 C 
ATOM     28  C   UNL     1      33.918 -18.340 -21.283  0.00  0.00    +0.003 C 
ATOM     29  C   UNL     1      35.244 -17.985 -21.527  0.00  0.00    +0.000 C 
ENDBRANCH  23  24
ENDBRANCH  22  23
ENDBRANCH   1  17
TORSDOF 7
ENDMDL
MODEL 5
REMARK VINA RESULT:      -8.4      4.036      5.878
REMARK  Name = 4369
REMARK  7 active torsions:
REMARK  status: ('A' for Active; 'I' for Inactive)
REMARK    1  A    between atoms: S_1  and  C_5
REMARK    2  A    between atoms: S_1  and  C_17
REMARK    3  A    between atoms: C_5  and  C_10
REMARK    4  A    between atoms: C_10  and  C_13
REMARK    5  A    between atoms: N_12  and  O_15
REMARK    6  A    between atoms: C_22  and  O_23
REMARK    7  A    between atoms: O_23  and  C_24
REMARK                            x       y       z     vdW  Elec       q    Type
REMARK                         _______ _______ _______ _____ _____    ______ ____
ROOT
ATOM      1  S   UNL     1      36.558 -23.002 -14.642  0.00  0.00    +0.006 S 
ATOM      2  O   UNL     1      37.999 -23.038 -14.584  0.00  0.00    -0.169 OA
ATOM      3  O   UNL     1      35.787 -22.164 -13.755  0.00  0.00    -0.169 OA
ENDROOT
BRANCH   1   5
ATOM      4  O   UNL     1      34.091 -24.763 -12.186  0.00  0.00    -0.354 OA
ATOM      5  C   UNL     1      35.964 -24.681 -14.407  0.00  0.00    +0.128 C 
ATOM      6  C   UNL     1      34.436 -24.725 -14.591  0.00  0.00    +0.055 C 
ATOM      7  C   UNL     1      36.343 -25.178 -13.001  0.00  0.00    +0.055 C 
ATOM      8  C   UNL     1      33.687 -24.136 -13.400  0.00  0.00    +0.144 C 
ATOM      9  C   UNL     1      35.475 -24.559 -11.909  0.00  0.00    +0.144 C 
BRANCH   5  10
ATOM     10  C   UNL     1      36.643 -25.557 -15.471  0.00  0.00    +0.110 C 
BRANCH  10  13
ATOM     11  O   UNL     1      37.587 -27.434 -14.273  0.00  0.00    -0.273 OA
ATOM     12  N   UNL     1      38.985 -25.815 -15.146  0.00  0.00    -0.197 N 
ATOM     13  C   UNL     1      37.762 -26.387 -14.888  0.00  0.00    +0.246 C 
ATOM     14  H   UNL     1      39.073 -24.971 -15.646  0.00  0.00    +0.182 HD
BRANCH  12  15
ATOM     15  O   UNL     1      40.098 -26.509 -14.654  0.00  0.00    -0.295 OA
ATOM     16  H   UNL     1      40.909 -26.107 -15.003  0.00  0.00    +0.241 HD
ENDBRANCH  12  15
ENDBRANCH  10  13
ENDBRANCH   5  10
ENDBRANCH   1   5
BRANCH   1  17
ATOM     17  C   UNL     1      36.095 -22.645 -16.303  0.00  0.00    +0.106 C 
ATOM     18  C   UNL     1      34.804 -22.929 -16.728  0.00  0.00    +0.021 C 
ATOM     19  C   UNL     1      37.026 -22.086 -17.166  0.00  0.00    +0.021 C 
ATOM     20  C   UNL     1      34.438 -22.647 -18.044  0.00  0.00    +0.039 C 
ATOM     21  C   UNL     1      36.659 -21.804 -18.482  0.00  0.00    +0.039 C 
ATOM     22  C   UNL     1      35.365 -22.085 -18.921  0.00  0.00    +0.145 C 
BRANCH  22  23
ATOM     23  O   UNL     1      35.007 -21.808 -20.205  0.00  0.00    -0.453 OA
BRANCH  23  24
ATOM     24  C   UNL     1      34.716 -20.492 -20.522  0.00  0.00    +0.145 C 
ATOM     25  C   UNL     1      33.400 -20.069 -20.496  0.00  0.00    +0.037 C 
ATOM     26  C   UNL     1      35.748 -19.636 -20.858  0.00  0.00    +0.037 C 
ATOM     27  C   UNL     1      33.105 -18.743 -20.817  0.00  0.00    +0.003 C 
ATOM     28  C   UNL     1      35.455 -18.310 -21.179  0.00  0.00    +0.003 C 
ATOM     29  C   UNL     1      34.134 -17.864 -21.158  0.00  0.00    +0.000 C 
ENDBRANCH  23  24
ENDBRANCH  22  23
ENDBRANCH   1  17
TORSDOF 7
ENDMDL
MODEL 6
REMARK VINA RESULT:      -8.1      2.061      2.990
REMARK  Name = 4369
REMARK  7 active torsions:
REMARK  status: ('A' for Active; 'I' for Inactive)
REMARK    1  A    between atoms: S_1  and  C_5
REMARK    2  A    between atoms: S_1  and  C_17
REMARK    3  A    between atoms: C_5  and  C_10
REMARK    4  A    between atoms: C_10  and  C_13
REMARK    5  A    between atoms: N_12  and  O_15
REMARK    6  A    between atoms: C_22  and  O_23
REMARK    7  A    between atoms: O_23  and  C_24
REMARK                            x       y       z     vdW  Elec       q    Type
REMARK                         _______ _______ _______ _____ _____    ______ ____
ROOT
ATOM      1  S   UNL     1      35.911 -25.143 -14.524  0.00  0.00    +0.006 S 
ATOM      2  O   UNL     1      36.053 -25.873 -13.288  0.00  0.00    -0.169 OA
ATOM      3  O   UNL     1      36.112 -25.778 -15.804  0.00  0.00    -0.169 OA
ENDROOT
BRANCH   1   5
ATOM      4  O   UNL     1      39.586 -24.582 -13.342  0.00  0.00    -0.354 OA
ATOM      5  C   UNL     1      37.038 -23.745 -14.461  0.00  0.00    +0.128 C 
ATOM      6  C   UNL     1      38.282 -24.038 -15.319  0.00  0.00    +0.055 C 
ATOM      7  C   UNL     1      37.451 -23.471 -13.004  0.00  0.00    +0.055 C 
ATOM      8  C   UNL     1      39.233 -25.025 -14.649  0.00  0.00    +0.144 C 
ATOM      9  C   UNL     1      38.453 -24.494 -12.479  0.00  0.00    +0.144 C 
BRANCH   5  10
ATOM     10  C   UNL     1      36.288 -22.531 -15.029  0.00  0.00    +0.110 C 
BRANCH  10  13
ATOM     11  O   UNL     1      38.031 -21.316 -16.185  0.00  0.00    -0.273 OA
ATOM     12  N   UNL     1      36.288 -22.239 -17.389  0.00  0.00    -0.197 N 
ATOM     13  C   UNL     1      36.982 -21.952 -16.238  0.00  0.00    +0.246 C 
ATOM     14  H   UNL     1      35.449 -22.754 -17.379  0.00  0.00    +0.182 HD
BRANCH  12  15
ATOM     15  O   UNL     1      36.849 -21.752 -18.577  0.00  0.00    -0.295 OA
ATOM     16  H   UNL     1      36.145 -21.415 -19.153  0.00  0.00    +0.241 HD
ENDBRANCH  12  15
ENDBRANCH  10  13
ENDBRANCH   5  10
ENDBRANCH   1   5
BRANCH   1  17
ATOM     17  C   UNL     1      34.325 -24.376 -14.515  0.00  0.00    +0.106 C 
ATOM     18  C   UNL     1      33.777 -23.929 -15.709  0.00  0.00    +0.021 C 
ATOM     19  C   UNL     1      33.645 -24.227 -13.315  0.00  0.00    +0.021 C 
ATOM     20  C   UNL     1      32.521 -23.321 -15.702  0.00  0.00    +0.039 C 
ATOM     21  C   UNL     1      32.390 -23.619 -13.308  0.00  0.00    +0.039 C 
ATOM     22  C   UNL     1      31.828 -23.165 -14.502  0.00  0.00    +0.145 C 
BRANCH  22  23
ATOM     23  O   UNL     1      30.603 -22.573 -14.495  0.00  0.00    -0.453 OA
BRANCH  23  24
ATOM     24  C   UNL     1      29.662 -23.032 -15.402  0.00  0.00    +0.145 C 
ATOM     25  C   UNL     1      29.533 -24.393 -15.608  0.00  0.00    +0.037 C 
ATOM     26  C   UNL     1      28.879 -22.117 -16.082  0.00  0.00    +0.037 C 
ATOM     27  C   UNL     1      28.587 -24.856 -16.523  0.00  0.00    +0.003 C 
ATOM     28  C   UNL     1      27.932 -22.579 -16.997  0.00  0.00    +0.003 C 
ATOM     29  C   UNL     1      27.787 -23.948 -17.217  0.00  0.00    +0.000 C 
ENDBRANCH  23  24
ENDBRANCH  22  23
ENDBRANCH   1  17
TORSDOF 7
ENDMDL
MODEL 7
REMARK VINA RESULT:      -8.0      7.667      9.998
REMARK  Name = 4369
REMARK  7 active torsions:
REMARK  status: ('A' for Active; 'I' for Inactive)
REMARK    1  A    between atoms: S_1  and  C_5
REMARK    2  A    between atoms: S_1  and  C_17
REMARK    3  A    between atoms: C_5  and  C_10
REMARK    4  A    between atoms: C_10  and  C_13
REMARK    5  A    between atoms: N_12  and  O_15
REMARK    6  A    between atoms: C_22  and  O_23
REMARK    7  A    between atoms: O_23  and  C_24
REMARK                            x       y       z     vdW  Elec       q    Type
REMARK                         _______ _______ _______ _____ _____    ______ ____
ROOT
ATOM      1  S   UNL     1      35.555 -18.033 -21.331  0.00  0.00    +0.006 S 
ATOM      2  O   UNL     1      35.680 -17.073 -20.262  0.00  0.00    -0.169 OA
ATOM      3  O   UNL     1      36.640 -18.289 -22.247  0.00  0.00    -0.169 OA
ENDROOT
BRANCH   1   5
ATOM      4  O   UNL     1      34.787 -17.832 -25.150  0.00  0.00    -0.354 OA
ATOM      5  C   UNL     1      34.142 -17.552 -22.330  0.00  0.00    +0.128 C 
ATOM      6  C   UNL     1      33.678 -18.742 -23.188  0.00  0.00    +0.055 C 
ATOM      7  C   UNL     1      34.520 -16.364 -23.232  0.00  0.00    +0.055 C 
ATOM      8  C   UNL     1      34.609 -19.009 -24.367  0.00  0.00    +0.144 C 
ATOM      9  C   UNL     1      35.399 -16.780 -24.408  0.00  0.00    +0.144 C 
BRANCH   5  10
ATOM     10  C   UNL     1      33.022 -17.138 -21.364  0.00  0.00    +0.110 C 
BRANCH  10  13
ATOM     11  O   UNL     1      32.314 -15.078 -22.418  0.00  0.00    -0.273 OA
ATOM     12  N   UNL     1      33.033 -15.051 -20.222  0.00  0.00    -0.197 N 
ATOM     13  C   UNL     1      32.744 -15.655 -21.423  0.00  0.00    +0.246 C 
ATOM     14  H   UNL     1      33.377 -15.559 -19.451  0.00  0.00    +0.182 HD
BRANCH  12  15
ATOM     15  O   UNL     1      32.805 -13.670 -20.164  0.00  0.00    -0.295 OA
ATOM     16  H   UNL     1      32.383 -13.448 -19.319  0.00  0.00    +0.241 HD
ENDBRANCH  12  15
ENDBRANCH  10  13
ENDBRANCH   5  10
ENDBRANCH   1   5
BRANCH   1  17
ATOM     17  C   UNL     1      35.039 -19.562 -20.623  0.00  0.00    +0.106 C 
ATOM     18  C   UNL     1      35.994 -20.498 -20.252  0.00  0.00    +0.021 C 
ATOM     19  C   UNL     1      33.686 -19.810 -20.447  0.00  0.00    +0.021 C 
ATOM     20  C   UNL     1      35.584 -21.708 -19.692  0.00  0.00    +0.039 C 
ATOM     21  C   UNL     1      33.278 -21.021 -19.888  0.00  0.00    +0.039 C 
ATOM     22  C   UNL     1      34.227 -21.970 -19.510  0.00  0.00    +0.145 C 
BRANCH  22  23
ATOM     23  O   UNL     1      33.828 -23.151 -18.963  0.00  0.00    -0.453 OA
BRANCH  23  24
ATOM     24  C   UNL     1      33.506 -23.159 -17.616  0.00  0.00    +0.145 C 
ATOM     25  C   UNL     1      34.524 -23.181 -16.680  0.00  0.00    +0.037 C 
ATOM     26  C   UNL     1      32.175 -23.147 -17.242  0.00  0.00    +0.037 C 
ATOM     27  C   UNL     1      34.200 -23.191 -15.323  0.00  0.00    +0.003 C 
ATOM     28  C   UNL     1      31.850 -23.156 -15.885  0.00  0.00    +0.003 C 
ATOM     29  C   UNL     1      32.862 -23.178 -14.926  0.00  0.00    +0.000 C 
ENDBRANCH  23  24
ENDBRANCH  22  23
ENDBRANCH   1  17
TORSDOF 7
ENDMDL
MODEL 8
REMARK VINA RESULT:      -8.0     12.338     14.185
REMARK  Name = 4369
REMARK  7 active torsions:
REMARK  status: ('A' for Active; 'I' for Inactive)
REMARK    1  A    between atoms: S_1  and  C_5
REMARK    2  A    between atoms: S_1  and  C_17
REMARK    3  A    between atoms: C_5  and  C_10
REMARK    4  A    between atoms: C_10  and  C_13
REMARK    5  A    between atoms: N_12  and  O_15
REMARK    6  A    between atoms: C_22  and  O_23
REMARK    7  A    between atoms: O_23  and  C_24
REMARK                            x       y       z     vdW  Elec       q    Type
REMARK                         _______ _______ _______ _____ _____    ______ ____
ROOT
ATOM      1  S   UNL     1      34.077 -16.150 -21.239  0.00  0.00    +0.006 S 
ATOM      2  O   UNL     1      35.117 -15.832 -20.291  0.00  0.00    -0.169 OA
ATOM      3  O   UNL     1      32.872 -16.835 -20.838  0.00  0.00    -0.169 OA
ENDROOT
BRANCH   1   5
ATOM      4  O   UNL     1      35.235 -19.856 -21.613  0.00  0.00    -0.354 OA
ATOM      5  C   UNL     1      34.817 -17.135 -22.546  0.00  0.00    +0.128 C 
ATOM      6  C   UNL     1      33.886 -18.306 -22.909  0.00  0.00    +0.055 C 
ATOM      7  C   UNL     1      36.185 -17.670 -22.087  0.00  0.00    +0.055 C 
ATOM      8  C   UNL     1      33.904 -19.413 -21.861  0.00  0.00    +0.144 C 
ATOM      9  C   UNL     1      36.059 -18.817 -21.089  0.00  0.00    +0.144 C 
BRANCH   5  10
ATOM     10  C   UNL     1      34.998 -16.215 -23.763  0.00  0.00    +0.110 C 
BRANCH  10  13
ATOM     11  O   UNL     1      34.615 -17.859 -25.496  0.00  0.00    -0.273 OA
ATOM     12  N   UNL     1      33.372 -15.912 -25.472  0.00  0.00    -0.197 N 
ATOM     13  C   UNL     1      34.331 -16.774 -24.997  0.00  0.00    +0.246 C 
ATOM     14  H   UNL     1      33.180 -15.050 -25.035  0.00  0.00    +0.182 HD
BRANCH  12  15
ATOM     15  O   UNL     1      32.684 -16.336 -26.617  0.00  0.00    -0.295 OA
ATOM     16  H   UNL     1      33.086 -15.933 -27.403  0.00  0.00    +0.241 HD
ENDBRANCH  12  15
ENDBRANCH  10  13
ENDBRANCH   5  10
ENDBRANCH   1   5
BRANCH   1  17
ATOM     17  C   UNL     1      33.632 -14.661 -22.068  0.00  0.00    +0.106 C 
ATOM     18  C   UNL     1      34.565 -14.024 -22.875  0.00  0.00    +0.021 C 
ATOM     19  C   UNL     1      32.356 -14.143 -21.903  0.00  0.00    +0.021 C 
ATOM     20  C   UNL     1      34.212 -12.845 -23.531  0.00  0.00    +0.039 C 
ATOM     21  C   UNL     1      32.004 -12.963 -22.559  0.00  0.00    +0.039 C 
ATOM     22  C   UNL     1      32.932 -12.314 -23.373  0.00  0.00    +0.145 C 
BRANCH  22  23
ATOM     23  O   UNL     1      32.588 -11.164 -24.015  0.00  0.00    -0.453 OA
BRANCH  23  24
ATOM     24  C   UNL     1      33.069  -9.972 -23.500  0.00  0.00    +0.145 C 
ATOM     25  C   UNL     1      32.432  -9.402 -22.412  0.00  0.00    +0.037 C 
ATOM     26  C   UNL     1      34.172  -9.380 -24.087  0.00  0.00    +0.037 C 
ATOM     27  C   UNL     1      32.915  -8.201 -21.894  0.00  0.00    +0.003 C 
ATOM     28  C   UNL     1      34.656  -8.179 -23.569  0.00  0.00    +0.003 C 
ATOM     29  C   UNL     1      34.028  -7.589 -22.473  0.00  0.00    +0.000 C 
ENDBRANCH  23  24
ENDBRANCH  22  23
ENDBRANCH   1  17
TORSDOF 7
ENDMDL
MODEL 9
REMARK VINA RESULT:      -7.7     11.638     13.466
REMARK  Name = 4369
REMARK  7 active torsions:
REMARK  status: ('A' for Active; 'I' for Inactive)
REMARK    1  A    between atoms: S_1  and  C_5
REMARK    2  A    between atoms: S_1  and  C_17
REMARK    3  A    between atoms: C_5  and  C_10
REMARK    4  A    between atoms: C_10  and  C_13
REMARK    5  A    between atoms: N_12  and  O_15
REMARK    6  A    between atoms: C_22  and  O_23
REMARK    7  A    between atoms: O_23  and  C_24
REMARK                            x       y       z     vdW  Elec       q    Type
REMARK                         _______ _______ _______ _____ _____    ______ ____
ROOT
ATOM      1  S   UNL     1      34.195 -16.892 -21.144  0.00  0.00    +0.006 S 
ATOM      2  O   UNL     1      35.269 -16.476 -20.277  0.00  0.00    -0.169 OA
ATOM      3  O   UNL     1      32.953 -17.405 -20.616  0.00  0.00    -0.169 OA
ENDROOT
BRANCH   1   5
ATOM      4  O   UNL     1      35.702 -20.463 -20.699  0.00  0.00    -0.354 OA
ATOM      5  C   UNL     1      34.844 -18.155 -22.245  0.00  0.00    +0.128 C 
ATOM      6  C   UNL     1      34.010 -19.442 -22.114  0.00  0.00    +0.055 C 
ATOM      7  C   UNL     1      36.317 -18.441 -21.900  0.00  0.00    +0.055 C 
ATOM      8  C   UNL     1      34.307 -20.202 -20.825  0.00  0.00    +0.144 C 
ATOM      9  C   UNL     1      36.469 -19.263 -20.624  0.00  0.00    +0.144 C 
BRANCH   5  10
ATOM     10  C   UNL     1      34.739 -17.609 -23.676  0.00  0.00    +0.110 C 
BRANCH  10  13
ATOM     11  O   UNL     1      33.462 -18.605 -25.473  0.00  0.00    -0.273 OA
ATOM     12  N   UNL     1      35.236 -19.764 -24.552  0.00  0.00    -0.197 N 
ATOM     13  C   UNL     1      34.387 -18.690 -24.669  0.00  0.00    +0.246 C 
ATOM     14  H   UNL     1      35.965 -19.784 -23.889  0.00  0.00    +0.182 HD
BRANCH  12  15
ATOM     15  O   UNL     1      35.002 -20.827 -25.434  0.00  0.00    -0.295 OA
ATOM     16  H   UNL     1      35.404 -20.628 -26.294  0.00  0.00    +0.241 HD
ENDBRANCH  12  15
ENDBRANCH  10  13
ENDBRANCH   5  10
ENDBRANCH   1   5
BRANCH   1  17
ATOM     17  C   UNL     1      33.838 -15.558 -22.237  0.00  0.00    +0.106 C 
ATOM     18  C   UNL     1      34.737 -15.245 -23.248  0.00  0.00    +0.021 C 
ATOM     19  C   UNL     1      32.664 -14.838 -22.075  0.00  0.00    +0.021 C 
ATOM     20  C   UNL     1      34.453 -14.188 -24.113  0.00  0.00    +0.039 C 
ATOM     21  C   UNL     1      32.382 -13.781 -22.940  0.00  0.00    +0.039 C 
ATOM     22  C   UNL     1      33.277 -13.456 -23.959  0.00  0.00    +0.145 C 
BRANCH  22  23
ATOM     23  O   UNL     1      33.001 -12.426 -24.805  0.00  0.00    -0.453 OA
BRANCH  23  24
ATOM     24  C   UNL     1      33.601 -11.205 -24.548  0.00  0.00    +0.145 C 
ATOM     25  C   UNL     1      34.727 -10.843 -25.266  0.00  0.00    +0.037 C 
ATOM     26  C   UNL     1      33.062 -10.379 -23.579  0.00  0.00    +0.037 C 
ATOM     27  C   UNL     1      35.333  -9.614 -25.007  0.00  0.00    +0.003 C 
ATOM     28  C   UNL     1      33.667  -9.149 -23.319  0.00  0.00    +0.003 C 
ATOM     29  C   UNL     1      34.802  -8.767 -24.033  0.00  0.00    +0.000 C 
ENDBRANCH  23  24
ENDBRANCH  22  23
ENDBRANCH   1  17
TORSDOF 7
ENDMDL
