MODEL 1
REMARK VINA RESULT:      -7.3      0.000      0.000
REMARK  Name = 25249
REMARK  1 active torsions:
REMARK  status: ('A' for Active; 'I' for Inactive)
REMARK    1  A    between atoms: C_8  and  O_25
REMARK                            x       y       z     vdW  Elec       q    Type
REMARK                         _______ _______ _______ _____ _____    ______ ____
ROOT
ATOM      1  N   UNL     1      33.927 -17.434 -21.564  0.00  0.00    -0.240 N 
ATOM      2  N   UNL     1      34.877 -17.886 -22.404  0.00  0.00    -0.180 NA
ATOM      3  C   UNL     1      32.789  -9.555 -22.242  0.00  0.00    +0.002 C 
ATOM      4  C   UNL     1      32.401 -11.039 -22.166  0.00  0.00    +0.000 C 
ATOM      5  C   UNL     1      33.055  -9.069 -23.682  0.00  0.00    +0.023 C 
ATOM      6  C   UNL     1      33.554 -11.894 -22.779  0.00  0.00    +0.000 C 
ATOM      7  C   UNL     1      33.255 -13.437 -22.706  0.00  0.00    +0.004 C 
ATOM      8  C   UNL     1      33.295  -7.547 -23.433  0.00  0.00    +0.088 C 
ATOM      9  C   UNL     1      34.238  -9.878 -24.240  0.00  0.00    +0.002 C 
ATOM     10  C   UNL     1      33.970 -11.394 -24.187  0.00  0.00    +0.000 C 
ATOM     11  C   UNL     1      32.947 -13.803 -21.197  0.00  0.00    +0.006 C 
ATOM     12  C   UNL     1      31.815  -8.520 -21.689  0.00  0.00    +0.002 C 
ATOM     13  C   UNL     1      32.111 -11.463 -20.720  0.00  0.00    +0.000 C 
ATOM     14  C   UNL     1      32.239  -7.195 -22.352  0.00  0.00    +0.027 C 
ATOM     15  C   UNL     1      31.816 -12.955 -20.602  0.00  0.00    +0.000 C 
ATOM     16  C   UNL     1      34.521 -14.245 -23.181  0.00  0.00    +0.029 C 
ATOM     17  C   UNL     1      31.834  -9.260 -24.630  0.00  0.00    +0.002 C 
ATOM     18  C   UNL     1      32.065 -13.819 -23.626  0.00  0.00    +0.000 C 
ATOM     19  C   UNL     1      32.669 -15.311 -20.962  0.00  0.00    +0.042 C 
ATOM     20  C   UNL     1      34.701  -7.180 -22.943  0.00  0.00    +0.029 C 
ATOM     21  C   UNL     1      34.490 -15.657 -22.716  0.00  0.00    +0.009 C 
ATOM     22  C   UNL     1      33.666 -16.107 -21.713  0.00  0.00    +0.040 C 
ATOM     23  C   UNL     1      35.217 -16.797 -23.104  0.00  0.00    +0.114 C 
ATOM     24  H   UNL     1      33.466 -18.006 -20.909  0.00  0.00    +0.174 HD
ENDROOT
BRANCH   8  25
ATOM     25  O   UNL     1      33.092  -6.768 -24.610  0.00  0.00    -0.387 OA
ATOM     26  H   UNL     1      32.192  -6.910 -24.941  0.00  0.00    +0.210 HD
ENDBRANCH   8  25
TORSDOF 1
ENDMDL
MODEL 2
REMARK VINA RESULT:      -7.3      4.249      8.129
REMARK  Name = 25249
REMARK  1 active torsions:
REMARK  status: ('A' for Active; 'I' for Inactive)
REMARK    1  A    between atoms: C_8  and  O_25
REMARK                            x       y       z     vdW  Elec       q    Type
REMARK                         _______ _______ _______ _____ _____    ______ ____
ROOT
ATOM      1  N   UNL     1      33.451 -10.607 -25.593  0.00  0.00    -0.240 N 
ATOM      2  N   UNL     1      33.710  -9.670 -24.661  0.00  0.00    -0.180 NA
ATOM      3  C   UNL     1      34.917 -17.998 -22.937  0.00  0.00    +0.002 C 
ATOM      4  C   UNL     1      34.119 -16.866 -23.600  0.00  0.00    +0.000 C 
ATOM      5  C   UNL     1      34.665 -18.111 -21.419  0.00  0.00    +0.023 C 
ATOM      6  C   UNL     1      34.508 -15.513 -22.925  0.00  0.00    +0.000 C 
ATOM      7  C   UNL     1      33.762 -14.287 -23.572  0.00  0.00    +0.004 C 
ATOM      8  C   UNL     1      35.497 -19.388 -21.083  0.00  0.00    +0.088 C 
ATOM      9  C   UNL     1      35.117 -16.794 -20.768  0.00  0.00    +0.002 C 
ATOM     10  C   UNL     1      34.398 -15.577 -21.378  0.00  0.00    +0.000 C 
ATOM     11  C   UNL     1      34.052 -14.309 -25.128  0.00  0.00    +0.006 C 
ATOM     12  C   UNL     1      34.712 -19.423 -23.441  0.00  0.00    +0.002 C 
ATOM     13  C   UNL     1      34.376 -16.817 -25.112  0.00  0.00    +0.000 C 
ATOM     14  C   UNL     1      35.224 -20.317 -22.296  0.00  0.00    +0.027 C 
ATOM     15  C   UNL     1      33.671 -15.642 -25.783  0.00  0.00    +0.000 C 
ATOM     16  C   UNL     1      34.321 -12.946 -22.965  0.00  0.00    +0.029 C 
ATOM     17  C   UNL     1      33.167 -18.351 -21.062  0.00  0.00    +0.002 C 
ATOM     18  C   UNL     1      32.238 -14.348 -23.288  0.00  0.00    +0.000 C 
ATOM     19  C   UNL     1      33.407 -13.128 -25.902  0.00  0.00    +0.042 C 
ATOM     20  C   UNL     1      37.004 -19.160 -20.916  0.00  0.00    +0.029 C 
ATOM     21  C   UNL     1      34.017 -11.773 -23.827  0.00  0.00    +0.009 C 
ATOM     22  C   UNL     1      33.625 -11.878 -25.139  0.00  0.00    +0.040 C 
ATOM     23  C   UNL     1      34.054 -10.388 -23.586  0.00  0.00    +0.114 C 
ATOM     24  H   UNL     1      33.165 -10.394 -26.511  0.00  0.00    +0.174 HD
ENDROOT
BRANCH   8  25
ATOM     25  O   UNL     1      35.074 -20.006 -19.869  0.00  0.00    -0.387 OA
ATOM     26  H   UNL     1      34.243 -19.603 -19.574  0.00  0.00    +0.210 HD
ENDBRANCH   8  25
TORSDOF 1
ENDMDL
MODEL 3
REMARK VINA RESULT:      -7.1      9.169     13.322
REMARK  Name = 25249
REMARK  1 active torsions:
REMARK  status: ('A' for Active; 'I' for Inactive)
REMARK    1  A    between atoms: C_8  and  O_25
REMARK                            x       y       z     vdW  Elec       q    Type
REMARK                         _______ _______ _______ _____ _____    ______ ____
ROOT
ATOM      1  N   UNL     1      35.801 -19.789 -21.647  0.00  0.00    -0.240 N 
ATOM      2  N   UNL     1      34.820 -19.158 -22.319  0.00  0.00    -0.180 NA
ATOM      3  C   UNL     1      33.093 -23.478 -15.098  0.00  0.00    +0.002 C 
ATOM      4  C   UNL     1      33.856 -23.325 -16.422  0.00  0.00    +0.000 C 
ATOM      5  C   UNL     1      31.641 -23.967 -15.287  0.00  0.00    +0.023 C 
ATOM      6  C   UNL     1      33.097 -22.305 -17.327  0.00  0.00    +0.000 C 
ATOM      7  C   UNL     1      33.834 -22.057 -18.695  0.00  0.00    +0.004 C 
ATOM      8  C   UNL     1      31.197 -24.132 -13.800  0.00  0.00    +0.088 C 
ATOM      9  C   UNL     1      30.896 -22.914 -16.123  0.00  0.00    +0.002 C 
ATOM     10  C   UNL     1      31.593 -22.656 -17.472  0.00  0.00    +0.000 C 
ATOM     11  C   UNL     1      35.320 -21.614 -18.373  0.00  0.00    +0.006 C 
ATOM     12  C   UNL     1      33.654 -24.423 -14.041  0.00  0.00    +0.002 C 
ATOM     13  C   UNL     1      35.303 -22.873 -16.179  0.00  0.00    +0.000 C 
ATOM     14  C   UNL     1      32.458 -24.727 -13.118  0.00  0.00    +0.027 C 
ATOM     15  C   UNL     1      36.057 -22.620 -17.480  0.00  0.00    +0.000 C 
ATOM     16  C   UNL     1      33.114 -20.900 -19.483  0.00  0.00    +0.029 C 
ATOM     17  C   UNL     1      31.546 -25.339 -16.019  0.00  0.00    +0.002 C 
ATOM     18  C   UNL     1      33.812 -23.331 -19.579  0.00  0.00    +0.000 C 
ATOM     19  C   UNL     1      36.165 -21.296 -19.635  0.00  0.00    +0.042 C 
ATOM     20  C   UNL     1      30.775 -22.836 -13.097  0.00  0.00    +0.029 C 
ATOM     21  C   UNL     1      33.990 -20.306 -20.528  0.00  0.00    +0.009 C 
ATOM     22  C   UNL     1      35.351 -20.484 -20.567  0.00  0.00    +0.040 C 
ATOM     23  C   UNL     1      33.717 -19.478 -21.632  0.00  0.00    +0.114 C 
ATOM     24  H   UNL     1      36.750 -19.751 -21.910  0.00  0.00    +0.174 HD
ENDROOT
BRANCH   8  25
ATOM     25  O   UNL     1      30.085 -25.014 -13.662  0.00  0.00    -0.387 OA
ATOM     26  H   UNL     1      30.403 -25.904 -13.445  0.00  0.00    +0.210 HD
ENDBRANCH   8  25
TORSDOF 1
ENDMDL
MODEL 4
REMARK VINA RESULT:      -6.7      1.732      2.727
REMARK  Name = 25249
REMARK  1 active torsions:
REMARK  status: ('A' for Active; 'I' for Inactive)
REMARK    1  A    between atoms: C_8  and  O_25
REMARK                            x       y       z     vdW  Elec       q    Type
REMARK                         _______ _______ _______ _____ _____    ______ ____
ROOT
ATOM      1  N   UNL     1      32.434 -14.995 -19.902  0.00  0.00    -0.240 N 
ATOM      2  N   UNL     1      32.699 -15.852 -20.906  0.00  0.00    -0.180 NA
ATOM      3  C   UNL     1      32.335  -7.395 -22.365  0.00  0.00    +0.002 C 
ATOM      4  C   UNL     1      31.827  -8.659 -21.655  0.00  0.00    +0.000 C 
ATOM      5  C   UNL     1      31.852  -7.283 -23.826  0.00  0.00    +0.023 C 
ATOM      6  C   UNL     1      32.320  -9.912 -22.444  0.00  0.00    +0.000 C 
ATOM      7  C   UNL     1      31.875 -11.259 -21.762  0.00  0.00    +0.004 C 
ATOM      8  C   UNL     1      32.419  -5.880 -24.210  0.00  0.00    +0.088 C 
ATOM      9  C   UNL     1      32.406  -8.492 -24.598  0.00  0.00    +0.002 C 
ATOM     10  C   UNL     1      31.980  -9.825 -23.955  0.00  0.00    +0.000 C 
ATOM     11  C   UNL     1      32.378 -11.233 -20.261  0.00  0.00    +0.006 C 
ATOM     12  C   UNL     1      31.985  -6.036 -21.767  0.00  0.00    +0.002 C 
ATOM     13  C   UNL     1      32.302  -8.706 -20.197  0.00  0.00    +0.000 C 
ATOM     14  C   UNL     1      32.182  -5.040 -22.926  0.00  0.00    +0.027 C 
ATOM     15  C   UNL     1      31.893  -9.996 -19.495  0.00  0.00    +0.000 C 
ATOM     16  C   UNL     1      32.542 -12.476 -22.506  0.00  0.00    +0.029 C 
ATOM     17  C   UNL     1      30.301  -7.277 -23.961  0.00  0.00    +0.002 C 
ATOM     18  C   UNL     1      30.335 -11.437 -21.830  0.00  0.00    +0.000 C 
ATOM     19  C   UNL     1      32.043 -12.523 -19.466  0.00  0.00    +0.042 C 
ATOM     20  C   UNL     1      33.903  -5.858 -24.593  0.00  0.00    +0.029 C 
ATOM     21  C   UNL     1      32.551 -13.705 -21.669  0.00  0.00    +0.009 C 
ATOM     22  C   UNL     1      32.341 -13.701 -20.312  0.00  0.00    +0.040 C 
ATOM     23  C   UNL     1      32.769 -15.059 -21.982  0.00  0.00    +0.114 C 
ATOM     24  H   UNL     1      32.319 -15.276 -18.965  0.00  0.00    +0.174 HD
ENDROOT
BRANCH   8  25
ATOM     25  O   UNL     1      31.735  -5.306 -25.321  0.00  0.00    -0.387 OA
ATOM     26  H   UNL     1      31.875  -4.346 -25.327  0.00  0.00    +0.210 HD
ENDBRANCH   8  25
TORSDOF 1
ENDMDL
MODEL 5
REMARK VINA RESULT:      -6.1      4.535      7.720
REMARK  Name = 25249
REMARK  1 active torsions:
REMARK  status: ('A' for Active; 'I' for Inactive)
REMARK    1  A    between atoms: C_8  and  O_25
REMARK                            x       y       z     vdW  Elec       q    Type
REMARK                         _______ _______ _______ _____ _____    ______ ____
ROOT
ATOM      1  N   UNL     1      31.724  -4.208 -23.233  0.00  0.00    -0.240 N 
ATOM      2  N   UNL     1      30.778  -3.885 -22.332  0.00  0.00    -0.180 NA
ATOM      3  C   UNL     1      33.622 -11.965 -22.973  0.00  0.00    +0.002 C 
ATOM      4  C   UNL     1      33.219 -10.628 -23.613  0.00  0.00    +0.000 C 
ATOM      5  C   UNL     1      32.412 -12.827 -22.555  0.00  0.00    +0.023 C 
ATOM      6  C   UNL     1      32.357  -9.820 -22.592  0.00  0.00    +0.000 C 
ATOM      7  C   UNL     1      31.931  -8.413 -23.154  0.00  0.00    +0.004 C 
ATOM      8  C   UNL     1      33.135 -14.123 -22.071  0.00  0.00    +0.088 C 
ATOM      9  C   UNL     1      31.616 -12.039 -21.501  0.00  0.00    +0.002 C 
ATOM     10  C   UNL     1      31.181 -10.659 -22.026  0.00  0.00    +0.000 C 
ATOM     11  C   UNL     1      33.245  -7.649 -23.596  0.00  0.00    +0.006 C 
ATOM     12  C   UNL     1      34.484 -12.927 -23.784  0.00  0.00    +0.002 C 
ATOM     13  C   UNL     1      34.454  -9.825 -24.044  0.00  0.00    +0.000 C 
ATOM     14  C   UNL     1      34.279 -14.296 -23.106  0.00  0.00    +0.027 C 
ATOM     15  C   UNL     1      34.088  -8.451 -24.595  0.00  0.00    +0.000 C 
ATOM     16  C   UNL     1      31.214  -7.586 -22.021  0.00  0.00    +0.029 C 
ATOM     17  C   UNL     1      31.461 -13.167 -23.741  0.00  0.00    +0.002 C 
ATOM     18  C   UNL     1      30.946  -8.561 -24.342  0.00  0.00    +0.000 C 
ATOM     19  C   UNL     1      32.985  -6.218 -24.140  0.00  0.00    +0.042 C 
ATOM     20  C   UNL     1      33.708 -14.060 -20.651  0.00  0.00    +0.029 C 
ATOM     21  C   UNL     1      31.201  -6.129 -22.317  0.00  0.00    +0.009 C 
ATOM     22  C   UNL     1      32.012  -5.538 -23.256  0.00  0.00    +0.040 C 
ATOM     23  C   UNL     1      30.462  -5.061 -21.776  0.00  0.00    +0.114 C 
ATOM     24  H   UNL     1      32.164  -3.549 -23.817  0.00  0.00    +0.174 HD
ENDROOT
BRANCH   8  25
ATOM     25  O   UNL     1      32.273 -15.258 -22.078  0.00  0.00    -0.387 OA
ATOM     26  H   UNL     1      31.568 -15.134 -21.425  0.00  0.00    +0.210 HD
ENDBRANCH   8  25
TORSDOF 1
ENDMDL
MODEL 6
REMARK VINA RESULT:      -6.1      9.843     13.745
REMARK  Name = 25249
REMARK  1 active torsions:
REMARK  status: ('A' for Active; 'I' for Inactive)
REMARK    1  A    between atoms: C_8  and  O_25
REMARK                            x       y       z     vdW  Elec       q    Type
REMARK                         _______ _______ _______ _____ _____    ______ ____
ROOT
ATOM      1  N   UNL     1      34.000 -19.636 -21.741  0.00  0.00    -0.240 N 
ATOM      2  N   UNL     1      32.659 -19.516 -21.777  0.00  0.00    -0.180 NA
ATOM      3  C   UNL     1      36.531 -23.271 -15.092  0.00  0.00    +0.002 C 
ATOM      4  C   UNL     1      36.420 -22.996 -16.599  0.00  0.00    +0.000 C 
ATOM      5  C   UNL     1      35.499 -24.299 -14.584  0.00  0.00    +0.023 C 
ATOM      6  C   UNL     1      34.987 -22.462 -16.909  0.00  0.00    +0.000 C 
ATOM      7  C   UNL     1      34.797 -22.115 -18.433  0.00  0.00    +0.004 C 
ATOM      8  C   UNL     1      35.944 -24.443 -13.095  0.00  0.00    +0.088 C 
ATOM      9  C   UNL     1      34.097 -23.722 -14.839  0.00  0.00    +0.002 C 
ATOM     10  C   UNL     1      33.880 -23.379 -16.325  0.00  0.00    +0.000 C 
ATOM     11  C   UNL     1      35.939 -21.100 -18.846  0.00  0.00    +0.006 C 
ATOM     12  C   UNL     1      37.856 -23.794 -14.545  0.00  0.00    +0.002 C 
ATOM     13  C   UNL     1      37.490 -21.997 -17.061  0.00  0.00    +0.000 C 
ATOM     14  C   UNL     1      37.493 -24.422 -13.185  0.00  0.00    +0.027 C 
ATOM     15  C   UNL     1      37.343 -21.631 -18.534  0.00  0.00    +0.000 C 
ATOM     16  C   UNL     1      33.396 -21.427 -18.649  0.00  0.00    +0.029 C 
ATOM     17  C   UNL     1      35.604 -25.679 -15.299  0.00  0.00    +0.002 C 
ATOM     18  C   UNL     1      34.846 -23.396 -19.306  0.00  0.00    +0.000 C 
ATOM     19  C   UNL     1      35.857 -20.634 -20.325  0.00  0.00    +0.042 C 
ATOM     20  C   UNL     1      35.451 -23.336 -12.156  0.00  0.00    +0.029 C 
ATOM     21  C   UNL     1      33.337 -20.672 -19.928  0.00  0.00    +0.009 C 
ATOM     22  C   UNL     1      34.449 -20.316 -20.651  0.00  0.00    +0.040 C 
ATOM     23  C   UNL     1      32.260 -20.151 -20.669  0.00  0.00    +0.114 C 
ATOM     24  H   UNL     1      34.596 -19.268 -22.433  0.00  0.00    +0.174 HD
ENDROOT
BRANCH   8  25
ATOM     25  O   UNL     1      35.489 -25.661 -12.510  0.00  0.00    -0.387 OA
ATOM     26  H   UNL     1      35.632 -26.392 -13.131  0.00  0.00    +0.210 HD
ENDBRANCH   8  25
TORSDOF 1
ENDMDL
MODEL 7
REMARK VINA RESULT:      -6.1      3.972      7.639
REMARK  Name = 25249
REMARK  1 active torsions:
REMARK  status: ('A' for Active; 'I' for Inactive)
REMARK    1  A    between atoms: C_8  and  O_25
REMARK                            x       y       z     vdW  Elec       q    Type
REMARK                         _______ _______ _______ _____ _____    ______ ____
ROOT
ATOM      1  N   UNL     1      31.554  -9.980 -21.549  0.00  0.00    -0.240 N 
ATOM      2  N   UNL     1      31.823  -9.278 -22.667  0.00  0.00    -0.180 NA
ATOM      3  C   UNL     1      33.747 -17.636 -22.185  0.00  0.00    +0.002 C 
ATOM      4  C   UNL     1      33.643 -16.243 -21.547  0.00  0.00    +0.000 C 
ATOM      5  C   UNL     1      34.979 -17.795 -23.100  0.00  0.00    +0.023 C 
ATOM      6  C   UNL     1      33.566 -15.173 -22.682  0.00  0.00    +0.000 C 
ATOM      7  C   UNL     1      33.418 -13.713 -22.115  0.00  0.00    +0.004 C 
ATOM      8  C   UNL     1      34.865 -19.305 -23.478  0.00  0.00    +0.088 C 
ATOM      9  C   UNL     1      34.847 -16.779 -24.246  0.00  0.00    +0.002 C 
ATOM     10  C   UNL     1      34.707 -15.338 -23.721  0.00  0.00    +0.000 C 
ATOM     11  C   UNL     1      32.159 -13.689 -21.155  0.00  0.00    +0.006 C 
ATOM     12  C   UNL     1      33.826 -18.851 -21.266  0.00  0.00    +0.002 C 
ATOM     13  C   UNL     1      32.425 -16.147 -20.619  0.00  0.00    +0.000 C 
ATOM     14  C   UNL     1      34.413 -19.968 -22.149  0.00  0.00    +0.027 C 
ATOM     15  C   UNL     1      32.242 -14.745 -20.046  0.00  0.00    +0.000 C 
ATOM     16  C   UNL     1      33.176 -12.706 -23.303  0.00  0.00    +0.029 C 
ATOM     17  C   UNL     1      36.328 -17.538 -22.364  0.00  0.00    +0.002 C 
ATOM     18  C   UNL     1      34.701 -13.273 -21.363  0.00  0.00    +0.000 C 
ATOM     19  C   UNL     1      31.862 -12.293 -20.546  0.00  0.00    +0.042 C 
ATOM     20  C   UNL     1      33.867 -19.624 -24.597  0.00  0.00    +0.029 C 
ATOM     21  C   UNL     1      32.579 -11.426 -22.837  0.00  0.00    +0.009 C 
ATOM     22  C   UNL     1      31.984 -11.269 -21.609  0.00  0.00    +0.040 C 
ATOM     23  C   UNL     1      32.449 -10.166 -23.448  0.00  0.00    +0.114 C 
ATOM     24  H   UNL     1      31.092  -9.598 -20.768  0.00  0.00    +0.174 HD
ENDROOT
BRANCH   8  25
ATOM     25  O   UNL     1      36.108 -19.849 -23.916  0.00  0.00    -0.387 OA
ATOM     26  H   UNL     1      35.945 -20.528 -24.588  0.00  0.00    +0.210 HD
ENDBRANCH   8  25
TORSDOF 1
ENDMDL
MODEL 8
REMARK VINA RESULT:      -6.0      8.718     12.780
REMARK  Name = 25249
REMARK  1 active torsions:
REMARK  status: ('A' for Active; 'I' for Inactive)
REMARK    1  A    between atoms: C_8  and  O_25
REMARK                            x       y       z     vdW  Elec       q    Type
REMARK                         _______ _______ _______ _____ _____    ______ ____
ROOT
ATOM      1  N   UNL     1      36.197 -18.583 -22.416  0.00  0.00    -0.240 N 
ATOM      2  N   UNL     1      35.068 -18.340 -23.109  0.00  0.00    -0.180 NA
ATOM      3  C   UNL     1      34.830 -22.882 -15.821  0.00  0.00    +0.002 C 
ATOM      4  C   UNL     1      35.514 -22.495 -17.141  0.00  0.00    +0.000 C 
ATOM      5  C   UNL     1      33.639 -23.845 -16.013  0.00  0.00    +0.023 C 
ATOM      6  C   UNL     1      34.462 -21.813 -18.072  0.00  0.00    +0.000 C 
ATOM      7  C   UNL     1      35.090 -21.347 -19.438  0.00  0.00    +0.004 C 
ATOM      8  C   UNL     1      33.257 -24.131 -14.527  0.00  0.00    +0.088 C 
ATOM      9  C   UNL     1      32.589 -23.126 -16.876  0.00  0.00    +0.002 C 
ATOM     10  C   UNL     1      33.174 -22.664 -18.224  0.00  0.00    +0.000 C 
ATOM     11  C   UNL     1      36.326 -20.414 -19.112  0.00  0.00    +0.006 C 
ATOM     12  C   UNL     1      35.667 -23.560 -14.741  0.00  0.00    +0.002 C 
ATOM     13  C   UNL     1      36.712 -21.568 -16.895  0.00  0.00    +0.000 C 
ATOM     14  C   UNL     1      34.636 -24.244 -13.824  0.00  0.00    +0.027 C 
ATOM     15  C   UNL     1      37.352 -21.090 -18.194  0.00  0.00    +0.000 C 
ATOM     16  C   UNL     1      34.026 -20.521 -20.255  0.00  0.00    +0.029 C 
ATOM     17  C   UNL     1      34.034 -25.176 -16.720  0.00  0.00    +0.002 C 
ATOM     18  C   UNL     1      35.521 -22.564 -20.298  0.00  0.00    +0.000 C 
ATOM     19  C   UNL     1      37.029 -19.842 -20.372  0.00  0.00    +0.042 C 
ATOM     20  C   UNL     1      32.404 -23.050 -13.853  0.00  0.00    +0.029 C 
ATOM     21  C   UNL     1      34.659 -19.677 -21.303  0.00  0.00    +0.009 C 
ATOM     22  C   UNL     1      35.998 -19.375 -21.327  0.00  0.00    +0.040 C 
ATOM     23  C   UNL     1      34.133 -19.011 -22.425  0.00  0.00    +0.114 C 
ATOM     24  H   UNL     1      37.078 -18.224 -22.671  0.00  0.00    +0.174 HD
ENDROOT
BRANCH   8  25
ATOM     25  O   UNL     1      32.516 -25.340 -14.382  0.00  0.00    -0.387 OA
ATOM     26  H   UNL     1      32.378 -25.524 -13.441  0.00  0.00    +0.210 HD
ENDBRANCH   8  25
TORSDOF 1
ENDMDL
MODEL 9
REMARK VINA RESULT:      -5.6      3.491      6.077
REMARK  Name = 25249
REMARK  1 active torsions:
REMARK  status: ('A' for Active; 'I' for Inactive)
REMARK    1  A    between atoms: C_8  and  O_25
REMARK                            x       y       z     vdW  Elec       q    Type
REMARK                         _______ _______ _______ _____ _____    ______ ____
ROOT
ATOM      1  N   UNL     1      34.053 -12.176 -23.365  0.00  0.00    -0.240 N 
ATOM      2  N   UNL     1      33.011 -12.818 -22.805  0.00  0.00    -0.180 NA
ATOM      3  C   UNL     1      32.319  -4.583 -25.150  0.00  0.00    +0.002 C 
ATOM      4  C   UNL     1      33.128  -5.749 -24.560  0.00  0.00    +0.000 C 
ATOM      5  C   UNL     1      31.295  -3.992 -24.159  0.00  0.00    +0.023 C 
ATOM      6  C   UNL     1      32.141  -6.878 -24.126  0.00  0.00    +0.000 C 
ATOM      7  C   UNL     1      32.890  -8.133 -23.543  0.00  0.00    +0.004 C 
ATOM      8  C   UNL     1      30.747  -2.792 -24.993  0.00  0.00    +0.088 C 
ATOM      9  C   UNL     1      30.295  -5.103 -23.799  0.00  0.00    +0.002 C 
ATOM     10  C   UNL     1      31.001  -6.343 -23.219  0.00  0.00    +0.000 C 
ATOM     11  C   UNL     1      33.945  -8.613 -24.622  0.00  0.00    +0.006 C 
ATOM     12  C   UNL     1      33.075  -3.359 -25.657  0.00  0.00    +0.002 C 
ATOM     13  C   UNL     1      34.156  -6.277 -25.569  0.00  0.00    +0.000 C 
ATOM     14  C   UNL     1      32.018  -2.239 -25.693  0.00  0.00    +0.027 C 
ATOM     15  C   UNL     1      34.907  -7.497 -25.046  0.00  0.00    +0.000 C 
ATOM     16  C   UNL     1      31.857  -9.293 -23.284  0.00  0.00    +0.029 C 
ATOM     17  C   UNL     1      31.945  -3.465 -22.845  0.00  0.00    +0.002 C 
ATOM     18  C   UNL     1      33.584  -7.794 -22.198  0.00  0.00    +0.000 C 
ATOM     19  C   UNL     1      34.740  -9.877 -24.200  0.00  0.00    +0.042 C 
ATOM     20  C   UNL     1      29.682  -3.152 -26.035  0.00  0.00    +0.029 C 
ATOM     21  C   UNL     1      32.521 -10.620 -23.183  0.00  0.00    +0.009 C 
ATOM     22  C   UNL     1      33.804 -10.861 -23.612  0.00  0.00    +0.040 C 
ATOM     23  C   UNL     1      32.080 -11.863 -22.695  0.00  0.00    +0.114 C 
ATOM     24  H   UNL     1      34.910 -12.613 -23.576  0.00  0.00    +0.174 HD
ENDROOT
BRANCH   8  25
ATOM     25  O   UNL     1      30.148  -1.792 -24.173  0.00  0.00    -0.387 OA
ATOM     26  H   UNL     1      30.733  -1.020 -24.123  0.00  0.00    +0.210 HD
ENDBRANCH   8  25
TORSDOF 1
ENDMDL
