MODEL 1
REMARK VINA RESULT:      -7.0      0.000      0.000
REMARK  Name = 54670067
REMARK  6 active torsions:
REMARK  status: ('A' for Active; 'I' for Inactive)
REMARK    1  A    between atoms: C_3  and  C_11
REMARK    2  A    between atoms: C_4  and  O_7
REMARK    3  A    between atoms: C_5  and  O_9
REMARK    4  A    between atoms: C_11  and  O_12
REMARK    5  A    between atoms: C_11  and  C_14
REMARK    6  A    between atoms: C_14  and  O_15
REMARK                            x       y       z     vdW  Elec       q    Type
REMARK                         _______ _______ _______ _____ _____    ______ ____
ROOT
ATOM      1  O   UNL     1      38.635 -24.129 -12.358  0.00  0.00    -0.436 OA
ATOM      2  O   UNL     1      37.168 -22.845 -11.126  0.00  0.00    -0.241 OA
ATOM      3  C   UNL     1      38.569 -25.404 -13.031  0.00  0.00    +0.257 C 
ATOM      4  C   UNL     1      37.192 -25.853 -12.748  0.00  0.00    +0.195 C 
ATOM      5  C   UNL     1      36.522 -24.967 -12.017  0.00  0.00    +0.244 C 
ATOM      6  C   UNL     1      37.433 -23.850 -11.762  0.00  0.00    +0.379 C 
ENDROOT
BRANCH   4   7
ATOM      7  O   UNL     1      36.721 -27.057 -13.183  0.00  0.00    -0.504 OA
ATOM      8  H   UNL     1      35.825 -27.144 -13.441  0.00  0.00    +0.292 HD
ENDBRANCH   4   7
BRANCH   5   9
ATOM      9  O   UNL     1      35.246 -25.042 -11.561  0.00  0.00    -0.499 OA
ATOM     10  H   UNL     1      35.020 -24.665 -10.734  0.00  0.00    +0.293 HD
ENDBRANCH   5   9
BRANCH   3  11
ATOM     11  C   UNL     1      38.859 -25.190 -14.507  0.00  0.00    +0.187 C 
BRANCH  11  12
ATOM     12  O   UNL     1      38.524 -23.847 -14.855  0.00  0.00    -0.378 OA
ATOM     13  H   UNL     1      39.281 -23.268 -14.671  0.00  0.00    +0.211 HD
ENDBRANCH  11  12
BRANCH  11  14
ATOM     14  C   UNL     1      40.332 -25.411 -14.824  0.00  0.00    +0.171 C 
BRANCH  14  15
ATOM     15  O   UNL     1      40.449 -25.939 -16.141  0.00  0.00    -0.379 OA
ATOM     16  H   UNL     1      40.781 -25.250 -16.738  0.00  0.00    +0.211 HD
ENDBRANCH  14  15
ENDBRANCH  11  14
ENDBRANCH   3  11
TORSDOF 6
ENDMDL
MODEL 2
REMARK VINA RESULT:      -6.8      1.720      2.466
REMARK  Name = 54670067
REMARK  6 active torsions:
REMARK  status: ('A' for Active; 'I' for Inactive)
REMARK    1  A    between atoms: C_3  and  C_11
REMARK    2  A    between atoms: C_4  and  O_7
REMARK    3  A    between atoms: C_5  and  O_9
REMARK    4  A    between atoms: C_11  and  O_12
REMARK    5  A    between atoms: C_11  and  C_14
REMARK    6  A    between atoms: C_14  and  O_15
REMARK                            x       y       z     vdW  Elec       q    Type
REMARK                         _______ _______ _______ _____ _____    ______ ____
ROOT
ATOM      1  O   UNL     1      38.171 -23.959 -14.733  0.00  0.00    -0.436 OA
ATOM      2  O   UNL     1      36.455 -23.399 -16.168  0.00  0.00    -0.241 OA
ATOM      3  C   UNL     1      38.314 -24.838 -13.597  0.00  0.00    +0.257 C 
ATOM      4  C   UNL     1      36.962 -25.409 -13.451  0.00  0.00    +0.195 C 
ATOM      5  C   UNL     1      36.126 -24.946 -14.376  0.00  0.00    +0.244 C 
ATOM      6  C   UNL     1      36.889 -24.017 -15.212  0.00  0.00    +0.379 C 
ENDROOT
BRANCH   4   7
ATOM      7  O   UNL     1      36.651 -26.282 -12.450  0.00  0.00    -0.504 OA
ATOM      8  H   UNL     1      36.173 -25.984 -11.701  0.00  0.00    +0.292 HD
ENDBRANCH   4   7
BRANCH   5   9
ATOM      9  O   UNL     1      34.812 -25.238 -14.547  0.00  0.00    -0.499 OA
ATOM     10  H   UNL     1      34.394 -25.058 -15.367  0.00  0.00    +0.293 HD
ENDBRANCH   5   9
BRANCH   3  11
ATOM     11  C   UNL     1      39.390 -25.866 -13.911  0.00  0.00    +0.187 C 
BRANCH  11  12
ATOM     12  O   UNL     1      38.784 -26.987 -14.553  0.00  0.00    -0.378 OA
ATOM     13  H   UNL     1      38.033 -26.685 -15.089  0.00  0.00    +0.211 HD
ENDBRANCH  11  12
BRANCH  11  14
ATOM     14  C   UNL     1      40.450 -25.297 -14.845  0.00  0.00    +0.171 C 
BRANCH  14  15
ATOM     15  O   UNL     1      40.280 -25.865 -16.139  0.00  0.00    -0.379 OA
ATOM     16  H   UNL     1      40.106 -26.816 -16.055  0.00  0.00    +0.211 HD
ENDBRANCH  14  15
ENDBRANCH  11  14
ENDBRANCH   3  11
TORSDOF 6
ENDMDL
MODEL 3
REMARK VINA RESULT:      -6.6      1.561      3.816
REMARK  Name = 54670067
REMARK  6 active torsions:
REMARK  status: ('A' for Active; 'I' for Inactive)
REMARK    1  A    between atoms: C_3  and  C_11
REMARK    2  A    between atoms: C_4  and  O_7
REMARK    3  A    between atoms: C_5  and  O_9
REMARK    4  A    between atoms: C_11  and  O_12
REMARK    5  A    between atoms: C_11  and  C_14
REMARK    6  A    between atoms: C_14  and  O_15
REMARK                            x       y       z     vdW  Elec       q    Type
REMARK                         _______ _______ _______ _____ _____    ______ ____
ROOT
ATOM      1  O   UNL     1      36.798 -23.480 -13.972  0.00  0.00    -0.436 OA
ATOM      2  O   UNL     1      38.277 -23.262 -15.728  0.00  0.00    -0.241 OA
ATOM      3  C   UNL     1      36.313 -24.576 -13.168  0.00  0.00    +0.257 C 
ATOM      4  C   UNL     1      37.005 -25.742 -13.750  0.00  0.00    +0.195 C 
ATOM      5  C   UNL     1      37.803 -25.393 -14.754  0.00  0.00    +0.244 C 
ATOM      6  C   UNL     1      37.687 -23.942 -14.906  0.00  0.00    +0.379 C 
ENDROOT
BRANCH   4   7
ATOM      7  O   UNL     1      36.794 -27.009 -13.292  0.00  0.00    -0.504 OA
ATOM      8  H   UNL     1      35.925 -27.360 -13.271  0.00  0.00    +0.292 HD
ENDBRANCH   4   7
BRANCH   5   9
ATOM      9  O   UNL     1      38.585 -26.190 -15.526  0.00  0.00    -0.499 OA
ATOM     10  H   UNL     1      38.835 -25.912 -16.385  0.00  0.00    +0.293 HD
ENDBRANCH   5   9
BRANCH   3  11
ATOM     11  C   UNL     1      36.666 -24.307 -11.714  0.00  0.00    +0.187 C 
BRANCH  11  12
ATOM     12  O   UNL     1      37.799 -25.100 -11.360  0.00  0.00    -0.378 OA
ATOM     13  H   UNL     1      37.616 -25.575 -10.534  0.00  0.00    +0.211 HD
ENDBRANCH  11  12
BRANCH  11  14
ATOM     14  C   UNL     1      37.020 -22.843 -11.487  0.00  0.00    +0.171 C 
BRANCH  14  15
ATOM     15  O   UNL     1      38.427 -22.678 -11.631  0.00  0.00    -0.379 OA
ATOM     16  H   UNL     1      38.606 -22.024 -12.325  0.00  0.00    +0.211 HD
ENDBRANCH  14  15
ENDBRANCH  11  14
ENDBRANCH   3  11
TORSDOF 6
ENDMDL
MODEL 4
REMARK VINA RESULT:      -6.6      1.970      4.030
REMARK  Name = 54670067
REMARK  6 active torsions:
REMARK  status: ('A' for Active; 'I' for Inactive)
REMARK    1  A    between atoms: C_3  and  C_11
REMARK    2  A    between atoms: C_4  and  O_7
REMARK    3  A    between atoms: C_5  and  O_9
REMARK    4  A    between atoms: C_11  and  O_12
REMARK    5  A    between atoms: C_11  and  C_14
REMARK    6  A    between atoms: C_14  and  O_15
REMARK                            x       y       z     vdW  Elec       q    Type
REMARK                         _______ _______ _______ _____ _____    ______ ____
ROOT
ATOM      1  O   UNL     1      38.412 -24.864 -13.856  0.00  0.00    -0.436 OA
ATOM      2  O   UNL     1      39.397 -26.816 -14.591  0.00  0.00    -0.241 OA
ATOM      3  C   UNL     1      37.142 -24.214 -14.063  0.00  0.00    +0.257 C 
ATOM      4  C   UNL     1      36.452 -25.129 -14.993  0.00  0.00    +0.195 C 
ATOM      5  C   UNL     1      37.200 -26.186 -15.293  0.00  0.00    +0.244 C 
ATOM      6  C   UNL     1      38.462 -26.035 -14.566  0.00  0.00    +0.379 C 
ENDROOT
BRANCH   4   7
ATOM      7  O   UNL     1      35.207 -24.859 -15.480  0.00  0.00    -0.504 OA
ATOM      8  H   UNL     1      34.499 -24.693 -14.888  0.00  0.00    +0.292 HD
ENDBRANCH   4   7
BRANCH   5   9
ATOM      9  O   UNL     1      36.903 -27.223 -16.116  0.00  0.00    -0.499 OA
ATOM     10  H   UNL     1      36.011 -27.485 -16.237  0.00  0.00    +0.293 HD
ENDBRANCH   5   9
BRANCH   3  11
ATOM     11  C   UNL     1      36.449 -24.060 -12.718  0.00  0.00    +0.187 C 
BRANCH  11  12
ATOM     12  O   UNL     1      35.569 -25.166 -12.523  0.00  0.00    -0.378 OA
ATOM     13  H   UNL     1      36.026 -25.989 -12.760  0.00  0.00    +0.211 HD
ENDBRANCH  11  12
BRANCH  11  14
ATOM     14  C   UNL     1      37.452 -24.041 -11.572  0.00  0.00    +0.171 C 
BRANCH  14  15
ATOM     15  O   UNL     1      38.220 -22.844 -11.649  0.00  0.00    -0.379 OA
ATOM     16  H   UNL     1      37.863 -22.191 -11.025  0.00  0.00    +0.211 HD
ENDBRANCH  14  15
ENDBRANCH  11  14
ENDBRANCH   3  11
TORSDOF 6
ENDMDL
MODEL 5
REMARK VINA RESULT:      -6.4      2.357      2.897
REMARK  Name = 54670067
REMARK  6 active torsions:
REMARK  status: ('A' for Active; 'I' for Inactive)
REMARK    1  A    between atoms: C_3  and  C_11
REMARK    2  A    between atoms: C_4  and  O_7
REMARK    3  A    between atoms: C_5  and  O_9
REMARK    4  A    between atoms: C_11  and  O_12
REMARK    5  A    between atoms: C_11  and  C_14
REMARK    6  A    between atoms: C_14  and  O_15
REMARK                            x       y       z     vdW  Elec       q    Type
REMARK                         _______ _______ _______ _____ _____    ______ ____
ROOT
ATOM      1  O   UNL     1      37.622 -24.049 -13.369  0.00  0.00    -0.436 OA
ATOM      2  O   UNL     1      38.806 -23.152 -11.604  0.00  0.00    -0.241 OA
ATOM      3  C   UNL     1      36.311 -24.626 -13.538  0.00  0.00    +0.257 C 
ATOM      4  C   UNL     1      35.748 -24.567 -12.175  0.00  0.00    +0.195 C 
ATOM      5  C   UNL     1      36.598 -24.021 -11.311  0.00  0.00    +0.244 C 
ATOM      6  C   UNL     1      37.806 -23.677 -12.063  0.00  0.00    +0.379 C 
ENDROOT
BRANCH   4   7
ATOM      7  O   UNL     1      34.508 -25.055 -11.884  0.00  0.00    -0.504 OA
ATOM      8  H   UNL     1      34.111 -25.690 -12.448  0.00  0.00    +0.292 HD
ENDBRANCH   4   7
BRANCH   5   9
ATOM      9  O   UNL     1      36.431 -23.811  -9.981  0.00  0.00    -0.499 OA
ATOM     10  H   UNL     1      35.581 -23.894  -9.597  0.00  0.00    +0.293 HD
ENDBRANCH   5   9
BRANCH   3  11
ATOM     11  C   UNL     1      35.545 -23.801 -14.560  0.00  0.00    +0.187 C 
BRANCH  11  12
ATOM     12  O   UNL     1      34.524 -23.065 -13.889  0.00  0.00    -0.378 OA
ATOM     13  H   UNL     1      34.454 -22.179 -14.279  0.00  0.00    +0.211 HD
ENDBRANCH  11  12
BRANCH  11  14
ATOM     14  C   UNL     1      36.456 -22.811 -15.274  0.00  0.00    +0.171 C 
BRANCH  14  15
ATOM     15  O   UNL     1      37.335 -23.527 -16.136  0.00  0.00    -0.379 OA
ATOM     16  H   UNL     1      38.197 -23.631 -15.704  0.00  0.00    +0.211 HD
ENDBRANCH  14  15
ENDBRANCH  11  14
ENDBRANCH   3  11
TORSDOF 6
ENDMDL
MODEL 6
REMARK VINA RESULT:      -6.3      1.767      2.681
REMARK  Name = 54670067
REMARK  6 active torsions:
REMARK  status: ('A' for Active; 'I' for Inactive)
REMARK    1  A    between atoms: C_3  and  C_11
REMARK    2  A    between atoms: C_4  and  O_7
REMARK    3  A    between atoms: C_5  and  O_9
REMARK    4  A    between atoms: C_11  and  O_12
REMARK    5  A    between atoms: C_11  and  C_14
REMARK    6  A    between atoms: C_14  and  O_15
REMARK                            x       y       z     vdW  Elec       q    Type
REMARK                         _______ _______ _______ _____ _____    ______ ____
ROOT
ATOM      1  O   UNL     1      36.049 -24.174 -13.622  0.00  0.00    -0.436 OA
ATOM      2  O   UNL     1      34.417 -24.688 -12.075  0.00  0.00    -0.241 OA
ATOM      3  C   UNL     1      37.415 -23.714 -13.559  0.00  0.00    +0.257 C 
ATOM      4  C   UNL     1      37.649 -23.576 -12.109  0.00  0.00    +0.195 C 
ATOM      5  C   UNL     1      36.577 -23.917 -11.400  0.00  0.00    +0.244 C 
ATOM      6  C   UNL     1      35.541 -24.309 -12.357  0.00  0.00    +0.379 C 
ENDROOT
BRANCH   4   7
ATOM      7  O   UNL     1      38.833 -23.122 -11.609  0.00  0.00    -0.504 OA
ATOM      8  H   UNL     1      38.985 -22.200 -11.529  0.00  0.00    +0.292 HD
ENDBRANCH   4   7
BRANCH   5   9
ATOM      9  O   UNL     1      36.420 -23.909 -10.052  0.00  0.00    -0.499 OA
ATOM     10  H   UNL     1      35.568 -23.792  -9.680  0.00  0.00    +0.293 HD
ENDBRANCH   5   9
BRANCH   3  11
ATOM     11  C   UNL     1      38.307 -24.743 -14.235  0.00  0.00    +0.187 C 
BRANCH  11  12
ATOM     12  O   UNL     1      39.506 -24.885 -13.476  0.00  0.00    -0.378 OA
ATOM     13  H   UNL     1      39.534 -24.204 -12.785  0.00  0.00    +0.211 HD
ENDBRANCH  11  12
BRANCH  11  14
ATOM     14  C   UNL     1      37.627 -26.104 -14.313  0.00  0.00    +0.171 C 
BRANCH  14  15
ATOM     15  O   UNL     1      37.311 -26.387 -15.673  0.00  0.00    -0.379 OA
ATOM     16  H   UNL     1      38.055 -26.850 -16.088  0.00  0.00    +0.211 HD
ENDBRANCH  14  15
ENDBRANCH  11  14
ENDBRANCH   3  11
TORSDOF 6
ENDMDL
MODEL 7
REMARK VINA RESULT:      -6.3      2.326      4.175
REMARK  Name = 54670067
REMARK  6 active torsions:
REMARK  status: ('A' for Active; 'I' for Inactive)
REMARK    1  A    between atoms: C_3  and  C_11
REMARK    2  A    between atoms: C_4  and  O_7
REMARK    3  A    between atoms: C_5  and  O_9
REMARK    4  A    between atoms: C_11  and  O_12
REMARK    5  A    between atoms: C_11  and  C_14
REMARK    6  A    between atoms: C_14  and  O_15
REMARK                            x       y       z     vdW  Elec       q    Type
REMARK                         _______ _______ _______ _____ _____    ______ ____
ROOT
ATOM      1  O   UNL     1      36.003 -25.492 -14.739  0.00  0.00    -0.436 OA
ATOM      2  O   UNL     1      36.739 -27.243 -16.048  0.00  0.00    -0.241 OA
ATOM      3  C   UNL     1      36.609 -24.600 -13.781  0.00  0.00    +0.257 C 
ATOM      4  C   UNL     1      38.008 -25.068 -13.737  0.00  0.00    +0.195 C 
ATOM      5  C   UNL     1      38.215 -26.090 -14.562  0.00  0.00    +0.244 C 
ATOM      6  C   UNL     1      36.937 -26.371 -15.219  0.00  0.00    +0.379 C 
ENDROOT
BRANCH   4   7
ATOM      7  O   UNL     1      38.932 -24.502 -12.909  0.00  0.00    -0.504 OA
ATOM      8  H   UNL     1      39.628 -25.024 -12.559  0.00  0.00    +0.292 HD
ENDBRANCH   4   7
BRANCH   5   9
ATOM      9  O   UNL     1      39.364 -26.778 -14.781  0.00  0.00    -0.499 OA
ATOM     10  H   UNL     1      39.801 -26.710 -15.606  0.00  0.00    +0.293 HD
ENDBRANCH   5   9
BRANCH   3  11
ATOM     11  C   UNL     1      36.449 -23.172 -14.275  0.00  0.00    +0.187 C 
BRANCH  11  12
ATOM     12  O   UNL     1      37.645 -22.779 -14.947  0.00  0.00    -0.378 OA
ATOM     13  H   UNL     1      38.047 -22.029 -14.479  0.00  0.00    +0.211 HD
ENDBRANCH  11  12
BRANCH  11  14
ATOM     14  C   UNL     1      35.289 -23.048 -15.256  0.00  0.00    +0.171 C 
BRANCH  14  15
ATOM     15  O   UNL     1      35.791 -23.164 -16.583  0.00  0.00    -0.379 OA
ATOM     16  H   UNL     1      36.759 -23.209 -16.560  0.00  0.00    +0.211 HD
ENDBRANCH  14  15
ENDBRANCH  11  14
ENDBRANCH   3  11
TORSDOF 6
ENDMDL
MODEL 8
REMARK VINA RESULT:      -6.0      1.677      4.329
REMARK  Name = 54670067
REMARK  6 active torsions:
REMARK  status: ('A' for Active; 'I' for Inactive)
REMARK    1  A    between atoms: C_3  and  C_11
REMARK    2  A    between atoms: C_4  and  O_7
REMARK    3  A    between atoms: C_5  and  O_9
REMARK    4  A    between atoms: C_11  and  O_12
REMARK    5  A    between atoms: C_11  and  C_14
REMARK    6  A    between atoms: C_14  and  O_15
REMARK                            x       y       z     vdW  Elec       q    Type
REMARK                         _______ _______ _______ _____ _____    ______ ____
ROOT
ATOM      1  O   UNL     1      36.775 -25.879 -13.230  0.00  0.00    -0.436 OA
ATOM      2  O   UNL     1      38.210 -26.991 -14.651  0.00  0.00    -0.241 OA
ATOM      3  C   UNL     1      36.886 -24.758 -12.329  0.00  0.00    +0.257 C 
ATOM      4  C   UNL     1      38.305 -24.374 -12.456  0.00  0.00    +0.195 C 
ATOM      5  C   UNL     1      38.952 -25.148 -13.322  0.00  0.00    +0.244 C 
ATOM      6  C   UNL     1      37.981 -26.118 -13.832  0.00  0.00    +0.379 C 
ENDROOT
BRANCH   4   7
ATOM      7  O   UNL     1      38.845 -23.354 -11.728  0.00  0.00    -0.504 OA
ATOM      8  H   UNL     1      39.001 -23.466 -10.811  0.00  0.00    +0.292 HD
ENDBRANCH   4   7
BRANCH   5   9
ATOM      9  O   UNL     1      40.258 -25.098 -13.686  0.00  0.00    -0.499 OA
ATOM     10  H   UNL     1      40.790 -25.868 -13.634  0.00  0.00    +0.293 HD
ENDBRANCH   5   9
BRANCH   3  11
ATOM     11  C   UNL     1      35.910 -23.680 -12.771  0.00  0.00    +0.187 C 
BRANCH  11  12
ATOM     12  O   UNL     1      36.587 -22.771 -13.638  0.00  0.00    -0.378 OA
ATOM     13  H   UNL     1      37.534 -22.767 -13.426  0.00  0.00    +0.211 HD
ENDBRANCH  11  12
BRANCH  11  14
ATOM     14  C   UNL     1      34.729 -24.273 -13.529  0.00  0.00    +0.171 C 
BRANCH  14  15
ATOM     15  O   UNL     1      33.833 -24.870 -12.597  0.00  0.00    -0.379 OA
ATOM     16  H   UNL     1      34.265 -24.937 -11.731  0.00  0.00    +0.211 HD
ENDBRANCH  14  15
ENDBRANCH  11  14
ENDBRANCH   3  11
TORSDOF 6
ENDMDL
MODEL 9
REMARK VINA RESULT:      -6.0      2.255      3.368
REMARK  Name = 54670067
REMARK  6 active torsions:
REMARK  status: ('A' for Active; 'I' for Inactive)
REMARK    1  A    between atoms: C_3  and  C_11
REMARK    2  A    between atoms: C_4  and  O_7
REMARK    3  A    between atoms: C_5  and  O_9
REMARK    4  A    between atoms: C_11  and  O_12
REMARK    5  A    between atoms: C_11  and  C_14
REMARK    6  A    between atoms: C_14  and  O_15
REMARK                            x       y       z     vdW  Elec       q    Type
REMARK                         _______ _______ _______ _____ _____    ______ ____
ROOT
ATOM      1  O   UNL     1      37.906 -23.653 -14.209  0.00  0.00    -0.436 OA
ATOM      2  O   UNL     1      37.818 -22.605 -16.261  0.00  0.00    -0.241 OA
ATOM      3  C   UNL     1      36.988 -24.429 -13.412  0.00  0.00    +0.257 C 
ATOM      4  C   UNL     1      35.764 -24.436 -14.236  0.00  0.00    +0.195 C 
ATOM      5  C   UNL     1      35.928 -23.768 -15.373  0.00  0.00    +0.244 C 
ATOM      6  C   UNL     1      37.302 -23.263 -15.375  0.00  0.00    +0.379 C 
ENDROOT
BRANCH   4   7
ATOM      7  O   UNL     1      34.617 -25.047 -13.819  0.00  0.00    -0.504 OA
ATOM      8  H   UNL     1      34.498 -25.965 -13.961  0.00  0.00    +0.292 HD
ENDBRANCH   4   7
BRANCH   5   9
ATOM      9  O   UNL     1      35.026 -23.557 -16.366  0.00  0.00    -0.499 OA
ATOM     10  H   UNL     1      35.321 -23.411 -17.243  0.00  0.00    +0.293 HD
ENDBRANCH   5   9
BRANCH   3  11
ATOM     11  C   UNL     1      37.587 -25.806 -13.181  0.00  0.00    +0.187 C 
BRANCH  11  12
ATOM     12  O   UNL     1      36.846 -26.466 -12.155  0.00  0.00    -0.378 OA
ATOM     13  H   UNL     1      36.477 -25.806 -11.547  0.00  0.00    +0.211 HD
ENDBRANCH  11  12
BRANCH  11  14
ATOM     14  C   UNL     1      37.523 -26.661 -14.440  0.00  0.00    +0.171 C 
BRANCH  14  15
ATOM     15  O   UNL     1      38.636 -26.347 -15.270  0.00  0.00    -0.379 OA
ATOM     16  H   UNL     1      38.778 -27.066 -15.907  0.00  0.00    +0.211 HD
ENDBRANCH  14  15
ENDBRANCH  11  14
ENDBRANCH   3  11
TORSDOF 6
ENDMDL
