MODEL 1
REMARK VINA RESULT:     -10.0      0.000      0.000
REMARK  Name = 24836812
REMARK  6 active torsions:
REMARK  status: ('A' for Active; 'I' for Inactive)
REMARK    1  A    between atoms: N_1  and  C_20
REMARK    2  A    between atoms: N_2  and  C_12
REMARK    3  A    between atoms: C_15  and  O_18
REMARK    4  A    between atoms: C_21  and  O_26
REMARK    5  A    between atoms: C_22  and  O_28
REMARK    6  A    between atoms: C_23  and  O_30
REMARK                            x       y       z     vdW  Elec       q    Type
REMARK                         _______ _______ _______ _____ _____    ______ ____
ROOT
ATOM      1  N   UNL     1      31.958 -22.493 -17.769  0.00  0.00    -0.247 N 
ATOM      2  N   UNL     1      33.361 -24.617 -13.834  0.00  0.00    -0.247 N 
ATOM      3  N   UNL     1      32.690 -23.550 -15.808  0.00  0.00    -0.269 NA
ATOM      4  N   UNL     1      30.350 -23.375 -16.306  0.00  0.00    -0.169 NA
ATOM      5  N   UNL     1      31.069 -24.462 -14.292  0.00  0.00    -0.169 NA
ATOM      6  C   UNL     1      31.650 -23.172 -16.570  0.00  0.00    +0.157 C 
ATOM      7  C   UNL     1      32.323 -24.189 -14.685  0.00  0.00    +0.157 C 
ATOM      8  C   UNL     1      30.134 -24.025 -15.152  0.00  0.00    +0.275 C 
ATOM      9  H   UNL     1      31.164 -22.237 -18.292  0.00  0.00    +0.165 HD
ATOM     10  H   UNL     1      33.044 -25.081 -13.026  0.00  0.00    +0.165 HD
ENDROOT
BRANCH   2  12
ATOM     11 CL   UNL     1      37.701 -22.790 -11.822  0.00  0.00    -0.079 Cl
ATOM     12  C   UNL     1      34.766 -24.513 -13.914  0.00  0.00    +0.059 C 
ATOM     13  C   UNL     1      35.468 -23.791 -12.950  0.00  0.00    +0.030 C 
ATOM     14  C   UNL     1      35.452 -25.133 -14.958  0.00  0.00    +0.018 C 
ATOM     15  C   UNL     1      37.543 -24.309 -14.072  0.00  0.00    +0.149 C 
ATOM     16  C   UNL     1      36.857 -23.689 -13.028  0.00  0.00    +0.093 C 
ATOM     17  C   UNL     1      36.841 -25.031 -15.038  0.00  0.00    +0.039 C 
BRANCH  15  18
ATOM     18  O   UNL     1      38.900 -24.227 -14.175  0.00  0.00    -0.471 OA
ATOM     19  C   UNL     1      39.636 -25.435 -14.000  0.00  0.00    +0.253 C 
ENDBRANCH  15  18
ENDBRANCH   2  12
BRANCH   1  20
ATOM     20  C   UNL     1      33.175 -22.112 -18.363  0.00  0.00    +0.064 C 
ATOM     21  C   UNL     1      35.589 -21.357 -19.539  0.00  0.00    +0.206 C 
ATOM     22  C   UNL     1      35.591 -22.089 -18.353  0.00  0.00    +0.177 C 
ATOM     23  C   UNL     1      34.380 -21.002 -20.138  0.00  0.00    +0.177 C 
ATOM     24  C   UNL     1      34.384 -22.466 -17.763  0.00  0.00    +0.055 C 
ATOM     25  C   UNL     1      33.173 -21.380 -19.549  0.00  0.00    +0.055 C 
BRANCH  21  26
ATOM     26  O   UNL     1      36.769 -20.988 -20.115  0.00  0.00    -0.465 OA
ATOM     27  C   UNL     1      37.051 -19.592 -20.175  0.00  0.00    +0.253 C 
ENDBRANCH  21  26
BRANCH  22  28
ATOM     28  O   UNL     1      36.765 -22.441 -17.757  0.00  0.00    -0.468 OA
ATOM     29  C   UNL     1      37.179 -21.669 -16.632  0.00  0.00    +0.253 C 
ENDBRANCH  22  28
BRANCH  23  30
ATOM     30  O   UNL     1      34.364 -20.287 -21.298  0.00  0.00    -0.468 OA
ATOM     31  C   UNL     1      33.702 -19.024 -21.272  0.00  0.00    +0.253 C 
ENDBRANCH  23  30
ENDBRANCH   1  20
TORSDOF 6
ENDMDL
MODEL 2
REMARK VINA RESULT:     -10.0      0.114      2.285
REMARK  Name = 24836812
REMARK  6 active torsions:
REMARK  status: ('A' for Active; 'I' for Inactive)
REMARK    1  A    between atoms: N_1  and  C_20
REMARK    2  A    between atoms: N_2  and  C_12
REMARK    3  A    between atoms: C_15  and  O_18
REMARK    4  A    between atoms: C_21  and  O_26
REMARK    5  A    between atoms: C_22  and  O_28
REMARK    6  A    between atoms: C_23  and  O_30
REMARK                            x       y       z     vdW  Elec       q    Type
REMARK                         _______ _______ _______ _____ _____    ______ ____
ROOT
ATOM      1  N   UNL     1      31.979 -22.472 -17.794  0.00  0.00    -0.247 N 
ATOM      2  N   UNL     1      33.368 -24.606 -13.859  0.00  0.00    -0.247 N 
ATOM      3  N   UNL     1      32.704 -23.534 -15.833  0.00  0.00    -0.269 NA
ATOM      4  N   UNL     1      30.366 -23.356 -16.339  0.00  0.00    -0.169 NA
ATOM      5  N   UNL     1      31.078 -24.449 -14.324  0.00  0.00    -0.169 NA
ATOM      6  C   UNL     1      31.667 -23.154 -16.597  0.00  0.00    +0.157 C 
ATOM      7  C   UNL     1      32.333 -24.175 -14.712  0.00  0.00    +0.157 C 
ATOM      8  C   UNL     1      30.146 -24.009 -15.187  0.00  0.00    +0.275 C 
ATOM      9  H   UNL     1      31.188 -22.214 -18.319  0.00  0.00    +0.165 HD
ATOM     10  H   UNL     1      33.047 -25.072 -13.053  0.00  0.00    +0.165 HD
ENDROOT
BRANCH   2  12
ATOM     11 CL   UNL     1      37.699 -22.768 -11.838  0.00  0.00    -0.079 Cl
ATOM     12  C   UNL     1      34.773 -24.502 -13.933  0.00  0.00    +0.059 C 
ATOM     13  C   UNL     1      35.471 -23.775 -12.970  0.00  0.00    +0.030 C 
ATOM     14  C   UNL     1      35.463 -25.128 -14.971  0.00  0.00    +0.018 C 
ATOM     15  C   UNL     1      37.550 -24.299 -14.081  0.00  0.00    +0.149 C 
ATOM     16  C   UNL     1      36.860 -23.674 -13.043  0.00  0.00    +0.093 C 
ATOM     17  C   UNL     1      36.852 -25.026 -15.046  0.00  0.00    +0.039 C 
BRANCH  15  18
ATOM     18  O   UNL     1      38.908 -24.217 -14.179  0.00  0.00    -0.471 OA
ATOM     19  C   UNL     1      39.600 -25.398 -14.578  0.00  0.00    +0.253 C 
ENDBRANCH  15  18
ENDBRANCH   2  12
BRANCH   1  20
ATOM     20  C   UNL     1      33.199 -22.090 -18.382  0.00  0.00    +0.064 C 
ATOM     21  C   UNL     1      35.616 -21.330 -19.548  0.00  0.00    +0.206 C 
ATOM     22  C   UNL     1      34.410 -20.963 -20.143  0.00  0.00    +0.177 C 
ATOM     23  C   UNL     1      35.614 -22.078 -18.371  0.00  0.00    +0.177 C 
ATOM     24  C   UNL     1      33.201 -21.343 -19.560  0.00  0.00    +0.055 C 
ATOM     25  C   UNL     1      34.406 -22.457 -17.788  0.00  0.00    +0.055 C 
BRANCH  21  26
ATOM     26  O   UNL     1      36.799 -20.959 -20.118  0.00  0.00    -0.465 OA
ATOM     27  C   UNL     1      37.042 -19.560 -20.250  0.00  0.00    +0.253 C 
ENDBRANCH  21  26
BRANCH  22  28
ATOM     28  O   UNL     1      34.397 -20.233 -21.293  0.00  0.00    -0.468 OA
ATOM     29  C   UNL     1      33.673 -19.005 -21.275  0.00  0.00    +0.253 C 
ENDBRANCH  22  28
BRANCH  23  30
ATOM     30  O   UNL     1      36.787 -22.443 -17.780  0.00  0.00    -0.468 OA
ATOM     31  C   UNL     1      37.189 -21.705 -16.628  0.00  0.00    +0.253 C 
ENDBRANCH  23  30
ENDBRANCH   1  20
TORSDOF 6
ENDMDL
MODEL 3
REMARK VINA RESULT:      -9.2      1.512      6.046
REMARK  Name = 24836812
REMARK  6 active torsions:
REMARK  status: ('A' for Active; 'I' for Inactive)
REMARK    1  A    between atoms: N_1  and  C_20
REMARK    2  A    between atoms: N_2  and  C_12
REMARK    3  A    between atoms: C_15  and  O_18
REMARK    4  A    between atoms: C_21  and  O_26
REMARK    5  A    between atoms: C_22  and  O_28
REMARK    6  A    between atoms: C_23  and  O_30
REMARK                            x       y       z     vdW  Elec       q    Type
REMARK                         _______ _______ _______ _____ _____    ______ ____
ROOT
ATOM      1  N   UNL     1      32.851 -24.501 -13.846  0.00  0.00    -0.247 N 
ATOM      2  N   UNL     1      31.862 -22.418 -17.925  0.00  0.00    -0.247 N 
ATOM      3  N   UNL     1      32.386 -23.454 -15.891  0.00  0.00    -0.269 NA
ATOM      4  N   UNL     1      30.614 -24.333 -14.535  0.00  0.00    -0.169 NA
ATOM      5  N   UNL     1      30.109 -23.266 -16.624  0.00  0.00    -0.169 NA
ATOM      6  C   UNL     1      31.904 -24.076 -14.803  0.00  0.00    +0.157 C 
ATOM      7  C   UNL     1      31.431 -23.078 -16.758  0.00  0.00    +0.157 C 
ATOM      8  C   UNL     1      29.774 -23.901 -15.488  0.00  0.00    +0.275 C 
ATOM      9  H   UNL     1      32.450 -24.951 -13.067  0.00  0.00    +0.165 HD
ATOM     10  H   UNL     1      31.126 -22.160 -18.528  0.00  0.00    +0.165 HD
ENDROOT
BRANCH   2  12
ATOM     11 CL   UNL     1      36.929 -22.400 -17.187  0.00  0.00    -0.079 Cl
ATOM     12  C   UNL     1      33.139 -22.051 -18.400  0.00  0.00    +0.059 C 
ATOM     13  C   UNL     1      34.276 -22.363 -17.656  0.00  0.00    +0.030 C 
ATOM     14  C   UNL     1      33.263 -21.375 -19.614  0.00  0.00    +0.018 C 
ATOM     15  C   UNL     1      35.662 -21.326 -19.341  0.00  0.00    +0.149 C 
ATOM     16  C   UNL     1      35.538 -22.001 -18.127  0.00  0.00    +0.093 C 
ATOM     17  C   UNL     1      34.524 -21.012 -20.084  0.00  0.00    +0.039 C 
BRANCH  15  18
ATOM     18  O   UNL     1      36.882 -20.959 -19.825  0.00  0.00    -0.471 OA
ATOM     19  C   UNL     1      36.950 -19.731 -20.547  0.00  0.00    +0.253 C 
ENDBRANCH  15  18
ENDBRANCH   2  12
BRANCH   1  20
ATOM     20  C   UNL     1      34.253 -24.408 -13.786  0.00  0.00    +0.064 C 
ATOM     21  C   UNL     1      37.034 -24.223 -13.665  0.00  0.00    +0.206 C 
ATOM     22  C   UNL     1      36.249 -23.541 -12.737  0.00  0.00    +0.177 C 
ATOM     23  C   UNL     1      36.428 -24.998 -14.655  0.00  0.00    +0.177 C 
ATOM     24  C   UNL     1      34.859 -23.632 -12.797  0.00  0.00    +0.055 C 
ATOM     25  C   UNL     1      35.038 -25.090 -14.715  0.00  0.00    +0.055 C 
BRANCH  21  26
ATOM     26  O   UNL     1      38.394 -24.133 -13.607  0.00  0.00    -0.465 OA
ATOM     27  C   UNL     1      39.089 -25.227 -13.013  0.00  0.00    +0.253 C 
ENDBRANCH  21  26
BRANCH  22  28
ATOM     28  O   UNL     1      36.828 -22.780 -11.766  0.00  0.00    -0.468 OA
ATOM     29  C   UNL     1      36.693 -23.232 -10.420  0.00  0.00    +0.253 C 
ENDBRANCH  22  28
BRANCH  23  30
ATOM     30  O   UNL     1      37.184 -25.670 -15.568  0.00  0.00    -0.468 OA
ATOM     31  C   UNL     1      37.096 -27.094 -15.560  0.00  0.00    +0.253 C 
ENDBRANCH  23  30
ENDBRANCH   1  20
TORSDOF 6
ENDMDL
MODEL 4
REMARK VINA RESULT:      -9.1      1.493      6.164
REMARK  Name = 24836812
REMARK  6 active torsions:
REMARK  status: ('A' for Active; 'I' for Inactive)
REMARK    1  A    between atoms: N_1  and  C_20
REMARK    2  A    between atoms: N_2  and  C_12
REMARK    3  A    between atoms: C_15  and  O_18
REMARK    4  A    between atoms: C_21  and  O_26
REMARK    5  A    between atoms: C_22  and  O_28
REMARK    6  A    between atoms: C_23  and  O_30
REMARK                            x       y       z     vdW  Elec       q    Type
REMARK                         _______ _______ _______ _____ _____    ______ ____
ROOT
ATOM      1  N   UNL     1      32.934 -24.562 -13.805  0.00  0.00    -0.247 N 
ATOM      2  N   UNL     1      31.827 -22.477 -17.853  0.00  0.00    -0.247 N 
ATOM      3  N   UNL     1      32.411 -23.513 -15.835  0.00  0.00    -0.269 NA
ATOM      4  N   UNL     1      30.681 -24.420 -14.442  0.00  0.00    -0.169 NA
ATOM      5  N   UNL     1      30.116 -23.352 -16.515  0.00  0.00    -0.169 NA
ATOM      6  C   UNL     1      31.961 -24.145 -14.739  0.00  0.00    +0.157 C 
ATOM      7  C   UNL     1      31.432 -23.147 -16.678  0.00  0.00    +0.157 C 
ATOM      8  C   UNL     1      29.814 -23.994 -15.374  0.00  0.00    +0.275 C 
ATOM      9  H   UNL     1      32.557 -25.020 -13.019  0.00  0.00    +0.165 HD
ATOM     10  H   UNL     1      31.075 -22.226 -18.438  0.00  0.00    +0.165 HD
ENDROOT
BRANCH   2  12
ATOM     11 CL   UNL     1      36.910 -22.415 -17.239  0.00  0.00    -0.079 Cl
ATOM     12  C   UNL     1      33.088 -22.092 -18.355  0.00  0.00    +0.059 C 
ATOM     13  C   UNL     1      34.247 -22.400 -17.642  0.00  0.00    +0.030 C 
ATOM     14  C   UNL     1      33.176 -21.404 -19.565  0.00  0.00    +0.018 C 
ATOM     15  C   UNL     1      35.581 -21.333 -19.350  0.00  0.00    +0.149 C 
ATOM     16  C   UNL     1      35.493 -22.021 -18.140  0.00  0.00    +0.093 C 
ATOM     17  C   UNL     1      34.422 -21.023 -20.062  0.00  0.00    +0.039 C 
BRANCH  15  18
ATOM     18  O   UNL     1      36.785 -20.949 -19.860  0.00  0.00    -0.471 OA
ATOM     19  C   UNL     1      36.833 -19.692 -20.531  0.00  0.00    +0.253 C 
ENDBRANCH  15  18
ENDBRANCH   2  12
BRANCH   1  20
ATOM     20  C   UNL     1      34.337 -24.452 -13.776  0.00  0.00    +0.064 C 
ATOM     21  C   UNL     1      37.117 -24.233 -13.721  0.00  0.00    +0.206 C 
ATOM     22  C   UNL     1      36.500 -25.037 -14.679  0.00  0.00    +0.177 C 
ATOM     23  C   UNL     1      36.344 -23.539 -12.791  0.00  0.00    +0.177 C 
ATOM     24  C   UNL     1      35.110 -25.147 -14.707  0.00  0.00    +0.055 C 
ATOM     25  C   UNL     1      34.954 -23.648 -12.819  0.00  0.00    +0.055 C 
BRANCH  21  26
ATOM     26  O   UNL     1      38.477 -24.125 -13.694  0.00  0.00    -0.465 OA
ATOM     27  C   UNL     1      39.197 -25.188 -13.075  0.00  0.00    +0.253 C 
ENDBRANCH  21  26
BRANCH  22  28
ATOM     28  O   UNL     1      37.243 -25.721 -15.593  0.00  0.00    -0.468 OA
ATOM     29  C   UNL     1      37.169 -27.144 -15.555  0.00  0.00    +0.253 C 
ENDBRANCH  22  28
BRANCH  23  30
ATOM     30  O   UNL     1      36.934 -22.749 -11.850  0.00  0.00    -0.468 OA
ATOM     31  C   UNL     1      36.763 -23.129 -10.485  0.00  0.00    +0.253 C 
ENDBRANCH  23  30
ENDBRANCH   1  20
TORSDOF 6
ENDMDL
MODEL 5
REMARK VINA RESULT:      -8.9      2.226      6.249
REMARK  Name = 24836812
REMARK  6 active torsions:
REMARK  status: ('A' for Active; 'I' for Inactive)
REMARK    1  A    between atoms: N_1  and  C_20
REMARK    2  A    between atoms: N_2  and  C_12
REMARK    3  A    between atoms: C_15  and  O_18
REMARK    4  A    between atoms: C_21  and  O_26
REMARK    5  A    between atoms: C_22  and  O_28
REMARK    6  A    between atoms: C_23  and  O_30
REMARK                            x       y       z     vdW  Elec       q    Type
REMARK                         _______ _______ _______ _____ _____    ______ ____
ROOT
ATOM      1  N   UNL     1      33.354 -24.257 -14.048  0.00  0.00    -0.247 N 
ATOM      2  N   UNL     1      31.577 -22.296 -17.915  0.00  0.00    -0.247 N 
ATOM      3  N   UNL     1      32.494 -23.271 -15.993  0.00  0.00    -0.269 NA
ATOM      4  N   UNL     1      31.026 -24.111 -14.292  0.00  0.00    -0.169 NA
ATOM      5  N   UNL     1      30.117 -23.106 -16.272  0.00  0.00    -0.169 NA
ATOM      6  C   UNL     1      32.237 -23.861 -14.814  0.00  0.00    +0.157 C 
ATOM      7  C   UNL     1      31.386 -22.922 -16.667  0.00  0.00    +0.157 C 
ATOM      8  C   UNL     1      30.013 -23.707 -15.074  0.00  0.00    +0.275 C 
ATOM      9  H   UNL     1      33.116 -24.684 -13.193  0.00  0.00    +0.165 HD
ATOM     10  H   UNL     1      30.736 -22.057 -18.369  0.00  0.00    +0.165 HD
ENDROOT
BRANCH   2  12
ATOM     11 CL   UNL     1      33.822 -19.096 -21.222  0.00  0.00    -0.079 Cl
ATOM     12  C   UNL     1      32.734 -21.943 -18.640  0.00  0.00    +0.059 C 
ATOM     13  C   UNL     1      32.721 -20.828 -19.478  0.00  0.00    +0.030 C 
ATOM     14  C   UNL     1      33.893 -22.710 -18.518  0.00  0.00    +0.018 C 
ATOM     15  C   UNL     1      35.024 -21.247 -20.072  0.00  0.00    +0.149 C 
ATOM     16  C   UNL     1      33.866 -20.480 -20.193  0.00  0.00    +0.093 C 
ATOM     17  C   UNL     1      35.037 -22.363 -19.235  0.00  0.00    +0.039 C 
BRANCH  15  18
ATOM     18  O   UNL     1      36.158 -20.931 -20.759  0.00  0.00    -0.471 OA
ATOM     19  C   UNL     1      36.968 -19.886 -20.225  0.00  0.00    +0.253 C 
ENDBRANCH  15  18
ENDBRANCH   2  12
BRANCH   1  20
ATOM     20  C   UNL     1      34.742 -24.162 -14.265  0.00  0.00    +0.064 C 
ATOM     21  C   UNL     1      37.490 -23.972 -14.697  0.00  0.00    +0.206 C 
ATOM     22  C   UNL     1      36.600 -23.445 -15.631  0.00  0.00    +0.177 C 
ATOM     23  C   UNL     1      37.007 -24.594 -13.546  0.00  0.00    +0.177 C 
ATOM     24  C   UNL     1      35.225 -23.540 -15.417  0.00  0.00    +0.055 C 
ATOM     25  C   UNL     1      35.632 -24.689 -13.331  0.00  0.00    +0.055 C 
BRANCH  21  26
ATOM     26  O   UNL     1      38.835 -23.879 -14.907  0.00  0.00    -0.465 OA
ATOM     27  C   UNL     1      39.511 -25.068 -15.310  0.00  0.00    +0.253 C 
ENDBRANCH  21  26
BRANCH  22  28
ATOM     28  O   UNL     1      37.060 -22.835 -16.760  0.00  0.00    -0.468 OA
ATOM     29  C   UNL     1      37.224 -21.419 -16.711  0.00  0.00    +0.253 C 
ENDBRANCH  22  28
BRANCH  23  30
ATOM     30  O   UNL     1      37.866 -25.114 -12.625  0.00  0.00    -0.468 OA
ATOM     31  C   UNL     1      38.358 -24.224 -11.625  0.00  0.00    +0.253 C 
ENDBRANCH  23  30
ENDBRANCH   1  20
TORSDOF 6
ENDMDL
MODEL 6
REMARK VINA RESULT:      -8.7      3.004      5.457
REMARK  Name = 24836812
REMARK  6 active torsions:
REMARK  status: ('A' for Active; 'I' for Inactive)
REMARK    1  A    between atoms: N_1  and  C_20
REMARK    2  A    between atoms: N_2  and  C_12
REMARK    3  A    between atoms: C_15  and  O_18
REMARK    4  A    between atoms: C_21  and  O_26
REMARK    5  A    between atoms: C_22  and  O_28
REMARK    6  A    between atoms: C_23  and  O_30
REMARK                            x       y       z     vdW  Elec       q    Type
REMARK                         _______ _______ _______ _____ _____    ______ ____
ROOT
ATOM      1  N   UNL     1      36.839 -22.619 -16.566  0.00  0.00    -0.247 N 
ATOM      2  N   UNL     1      34.036 -24.006 -13.076  0.00  0.00    -0.247 N 
ATOM      3  N   UNL     1      35.411 -23.306 -14.838  0.00  0.00    -0.269 NA
ATOM      4  N   UNL     1      37.793 -23.378 -14.562  0.00  0.00    -0.169 NA
ATOM      5  N   UNL     1      36.357 -24.088 -12.776  0.00  0.00    -0.169 NA
ATOM      6  C   UNL     1      36.674 -23.126 -15.259  0.00  0.00    +0.157 C 
ATOM      7  C   UNL     1      35.330 -23.790 -13.588  0.00  0.00    +0.157 C 
ATOM      8  C   UNL     1      37.559 -23.857 -13.330  0.00  0.00    +0.275 C 
ATOM      9  H   UNL     1      37.781 -22.503 -16.829  0.00  0.00    +0.165 HD
ATOM     10  H   UNL     1      34.027 -24.359 -12.157  0.00  0.00    +0.165 HD
ENDROOT
BRANCH   2  12
ATOM     11 CL   UNL     1      29.676 -26.098 -14.759  0.00  0.00    -0.079 Cl
ATOM     12  C   UNL     1      32.749 -23.813 -13.621  0.00  0.00    +0.059 C 
ATOM     13  C   UNL     1      31.935 -24.912 -13.894  0.00  0.00    +0.030 C 
ATOM     14  C   UNL     1      32.291 -22.523 -13.887  0.00  0.00    +0.018 C 
ATOM     15  C   UNL     1      30.205 -23.431 -14.698  0.00  0.00    +0.149 C 
ATOM     16  C   UNL     1      30.663 -24.721 -14.432  0.00  0.00    +0.093 C 
ATOM     17  C   UNL     1      31.019 -22.332 -14.426  0.00  0.00    +0.039 C 
BRANCH  15  18
ATOM     18  O   UNL     1      28.966 -23.214 -15.224  0.00  0.00    -0.471 OA
ATOM     19  C   UNL     1      28.903 -22.504 -16.459  0.00  0.00    +0.253 C 
ENDBRANCH  15  18
ENDBRANCH   2  12
BRANCH   1  20
ATOM     20  C   UNL     1      35.922 -22.246 -17.566  0.00  0.00    +0.064 C 
ATOM     21  C   UNL     1      34.105 -21.506 -19.549  0.00  0.00    +0.206 C 
ATOM     22  C   UNL     1      35.450 -21.159 -19.671  0.00  0.00    +0.177 C 
ATOM     23  C   UNL     1      33.668 -22.223 -18.435  0.00  0.00    +0.177 C 
ATOM     24  C   UNL     1      36.359 -21.528 -18.680  0.00  0.00    +0.055 C 
ATOM     25  C   UNL     1      34.577 -22.593 -17.444  0.00  0.00    +0.055 C 
BRANCH  21  26
ATOM     26  O   UNL     1      33.216 -21.145 -20.519  0.00  0.00    -0.465 OA
ATOM     27  C   UNL     1      32.729 -19.806 -20.483  0.00  0.00    +0.253 C 
ENDBRANCH  21  26
BRANCH  22  28
ATOM     28  O   UNL     1      35.890 -20.458 -20.754  0.00  0.00    -0.468 OA
ATOM     29  C   UNL     1      36.829 -19.412 -20.512  0.00  0.00    +0.253 C 
ENDBRANCH  22  28
BRANCH  23  30
ATOM     30  O   UNL     1      32.357 -22.570 -18.304  0.00  0.00    -0.468 OA
ATOM     31  C   UNL     1      32.047 -23.584 -17.351  0.00  0.00    +0.253 C 
ENDBRANCH  23  30
ENDBRANCH   1  20
TORSDOF 6
ENDMDL
MODEL 7
REMARK VINA RESULT:      -8.7      3.323      5.608
REMARK  Name = 24836812
REMARK  6 active torsions:
REMARK  status: ('A' for Active; 'I' for Inactive)
REMARK    1  A    between atoms: N_1  and  C_20
REMARK    2  A    between atoms: N_2  and  C_12
REMARK    3  A    between atoms: C_15  and  O_18
REMARK    4  A    between atoms: C_21  and  O_26
REMARK    5  A    between atoms: C_22  and  O_28
REMARK    6  A    between atoms: C_23  and  O_30
REMARK                            x       y       z     vdW  Elec       q    Type
REMARK                         _______ _______ _______ _____ _____    ______ ____
ROOT
ATOM      1  N   UNL     1      32.861 -22.256 -18.211  0.00  0.00    -0.247 N 
ATOM      2  N   UNL     1      37.218 -22.763 -16.561  0.00  0.00    -0.247 N 
ATOM      3  N   UNL     1      35.029 -22.523 -17.360  0.00  0.00    -0.269 NA
ATOM      4  N   UNL     1      34.670 -21.503 -19.501  0.00  0.00    -0.169 NA
ATOM      5  N   UNL     1      36.900 -21.763 -18.655  0.00  0.00    -0.169 NA
ATOM      6  C   UNL     1      34.254 -22.086 -18.365  0.00  0.00    +0.157 C 
ATOM      7  C   UNL     1      36.341 -22.329 -17.575  0.00  0.00    +0.157 C 
ATOM      8  C   UNL     1      36.004 -21.374 -19.578  0.00  0.00    +0.275 C 
ATOM      9  H   UNL     1      32.335 -21.920 -18.973  0.00  0.00    +0.165 HD
ATOM     10  H   UNL     1      38.168 -22.598 -16.763  0.00  0.00    +0.165 HD
ENDROOT
BRANCH   2  12
ATOM     11 CL   UNL     1      37.081 -27.097 -13.839  0.00  0.00    -0.079 Cl
ATOM     12  C   UNL     1      37.003 -23.386 -15.314  0.00  0.00    +0.059 C 
ATOM     13  C   UNL     1      37.129 -24.769 -15.194  0.00  0.00    +0.030 C 
ATOM     14  C   UNL     1      36.665 -22.617 -14.201  0.00  0.00    +0.018 C 
ATOM     15  C   UNL     1      36.579 -24.615 -12.847  0.00  0.00    +0.149 C 
ATOM     16  C   UNL     1      36.918 -25.384 -13.960  0.00  0.00    +0.093 C 
ATOM     17  C   UNL     1      36.452 -23.231 -12.967  0.00  0.00    +0.039 C 
BRANCH  15  18
ATOM     18  O   UNL     1      36.366 -25.188 -11.629  0.00  0.00    -0.471 OA
ATOM     19  C   UNL     1      35.788 -24.365 -10.618  0.00  0.00    +0.253 C 
ENDBRANCH  15  18
ENDBRANCH   2  12
BRANCH   1  20
ATOM     20  C   UNL     1      32.077 -22.811 -17.183  0.00  0.00    +0.064 C 
ATOM     21  C   UNL     1      30.524 -23.910 -15.143  0.00  0.00    +0.206 C 
ATOM     22  C   UNL     1      31.886 -24.201 -15.216  0.00  0.00    +0.177 C 
ATOM     23  C   UNL     1      29.939 -23.070 -16.090  0.00  0.00    +0.177 C 
ATOM     24  C   UNL     1      32.663 -23.652 -16.236  0.00  0.00    +0.055 C 
ATOM     25  C   UNL     1      30.716 -22.520 -17.110  0.00  0.00    +0.055 C 
BRANCH  21  26
ATOM     26  O   UNL     1      29.764 -24.448 -14.146  0.00  0.00    -0.465 OA
ATOM     27  C   UNL     1      28.978 -25.590 -14.476  0.00  0.00    +0.253 C 
ENDBRANCH  21  26
BRANCH  22  28
ATOM     28  O   UNL     1      32.470 -25.021 -14.298  0.00  0.00    -0.468 OA
ATOM     29  C   UNL     1      33.112 -24.398 -13.187  0.00  0.00    +0.253 C 
ENDBRANCH  22  28
BRANCH  23  30
ATOM     30  O   UNL     1      28.609 -22.778 -16.030  0.00  0.00    -0.468 OA
ATOM     31  C   UNL     1      27.841 -23.006 -17.210  0.00  0.00    +0.253 C 
ENDBRANCH  23  30
ENDBRANCH   1  20
TORSDOF 6
ENDMDL
MODEL 8
REMARK VINA RESULT:      -8.7      3.004      5.353
REMARK  Name = 24836812
REMARK  6 active torsions:
REMARK  status: ('A' for Active; 'I' for Inactive)
REMARK    1  A    between atoms: N_1  and  C_20
REMARK    2  A    between atoms: N_2  and  C_12
REMARK    3  A    between atoms: C_15  and  O_18
REMARK    4  A    between atoms: C_21  and  O_26
REMARK    5  A    between atoms: C_22  and  O_28
REMARK    6  A    between atoms: C_23  and  O_30
REMARK                            x       y       z     vdW  Elec       q    Type
REMARK                         _______ _______ _______ _____ _____    ______ ____
ROOT
ATOM      1  N   UNL     1      36.837 -22.601 -16.587  0.00  0.00    -0.247 N 
ATOM      2  N   UNL     1      34.037 -24.008 -13.102  0.00  0.00    -0.247 N 
ATOM      3  N   UNL     1      35.411 -23.298 -14.862  0.00  0.00    -0.269 NA
ATOM      4  N   UNL     1      37.793 -23.366 -14.587  0.00  0.00    -0.169 NA
ATOM      5  N   UNL     1      36.359 -24.086 -12.803  0.00  0.00    -0.169 NA
ATOM      6  C   UNL     1      36.673 -23.113 -15.282  0.00  0.00    +0.157 C 
ATOM      7  C   UNL     1      35.331 -23.788 -13.613  0.00  0.00    +0.157 C 
ATOM      8  C   UNL     1      37.560 -23.850 -13.357  0.00  0.00    +0.275 C 
ATOM      9  H   UNL     1      37.778 -22.482 -16.850  0.00  0.00    +0.165 HD
ATOM     10  H   UNL     1      34.030 -24.365 -12.184  0.00  0.00    +0.165 HD
ENDROOT
BRANCH   2  12
ATOM     11 CL   UNL     1      29.680 -26.103 -14.788  0.00  0.00    -0.079 Cl
ATOM     12  C   UNL     1      32.750 -23.816 -13.646  0.00  0.00    +0.059 C 
ATOM     13  C   UNL     1      31.937 -24.916 -13.921  0.00  0.00    +0.030 C 
ATOM     14  C   UNL     1      32.290 -22.526 -13.909  0.00  0.00    +0.018 C 
ATOM     15  C   UNL     1      30.205 -23.435 -14.721  0.00  0.00    +0.149 C 
ATOM     16  C   UNL     1      30.665 -24.725 -14.458  0.00  0.00    +0.093 C 
ATOM     17  C   UNL     1      31.018 -22.335 -14.447  0.00  0.00    +0.039 C 
BRANCH  15  18
ATOM     18  O   UNL     1      28.966 -23.219 -15.246  0.00  0.00    -0.471 OA
ATOM     19  C   UNL     1      28.902 -22.524 -16.490  0.00  0.00    +0.253 C 
ENDBRANCH  15  18
ENDBRANCH   2  12
BRANCH   1  20
ATOM     20  C   UNL     1      35.918 -22.226 -17.586  0.00  0.00    +0.064 C 
ATOM     21  C   UNL     1      34.098 -21.482 -19.564  0.00  0.00    +0.206 C 
ATOM     22  C   UNL     1      33.667 -22.219 -18.461  0.00  0.00    +0.177 C 
ATOM     23  C   UNL     1      35.439 -21.117 -19.677  0.00  0.00    +0.177 C 
ATOM     24  C   UNL     1      34.577 -22.592 -17.472  0.00  0.00    +0.055 C 
ATOM     25  C   UNL     1      36.349 -21.489 -18.688  0.00  0.00    +0.055 C 
BRANCH  21  26
ATOM     26  O   UNL     1      33.208 -21.118 -20.531  0.00  0.00    -0.465 OA
ATOM     27  C   UNL     1      32.718 -19.780 -20.489  0.00  0.00    +0.253 C 
ENDBRANCH  21  26
BRANCH  22  28
ATOM     28  O   UNL     1      32.360 -22.583 -18.339  0.00  0.00    -0.468 OA
ATOM     29  C   UNL     1      32.056 -23.599 -17.386  0.00  0.00    +0.253 C 
ENDBRANCH  22  28
BRANCH  23  30
ATOM     30  O   UNL     1      35.874 -20.396 -20.749  0.00  0.00    -0.468 OA
ATOM     31  C   UNL     1      36.828 -19.367 -20.495  0.00  0.00    +0.253 C 
ENDBRANCH  23  30
ENDBRANCH   1  20
TORSDOF 6
ENDMDL
MODEL 9
REMARK VINA RESULT:      -8.7      3.324      6.032
REMARK  Name = 24836812
REMARK  6 active torsions:
REMARK  status: ('A' for Active; 'I' for Inactive)
REMARK    1  A    between atoms: N_1  and  C_20
REMARK    2  A    between atoms: N_2  and  C_12
REMARK    3  A    between atoms: C_15  and  O_18
REMARK    4  A    between atoms: C_21  and  O_26
REMARK    5  A    between atoms: C_22  and  O_28
REMARK    6  A    between atoms: C_23  and  O_30
REMARK                            x       y       z     vdW  Elec       q    Type
REMARK                         _______ _______ _______ _____ _____    ______ ____
ROOT
ATOM      1  N   UNL     1      32.836 -22.242 -18.211  0.00  0.00    -0.247 N 
ATOM      2  N   UNL     1      37.196 -22.758 -16.573  0.00  0.00    -0.247 N 
ATOM      3  N   UNL     1      35.006 -22.514 -17.366  0.00  0.00    -0.269 NA
ATOM      4  N   UNL     1      34.643 -21.496 -19.508  0.00  0.00    -0.169 NA
ATOM      5  N   UNL     1      36.875 -21.761 -18.668  0.00  0.00    -0.169 NA
ATOM      6  C   UNL     1      34.229 -22.076 -18.370  0.00  0.00    +0.157 C 
ATOM      7  C   UNL     1      36.317 -22.324 -17.585  0.00  0.00    +0.157 C 
ATOM      8  C   UNL     1      35.977 -21.371 -19.588  0.00  0.00    +0.275 C 
ATOM      9  H   UNL     1      32.309 -21.906 -18.972  0.00  0.00    +0.165 HD
ATOM     10  H   UNL     1      38.146 -22.596 -16.778  0.00  0.00    +0.165 HD
ENDROOT
BRANCH   2  12
ATOM     11 CL   UNL     1      37.070 -27.085 -13.838  0.00  0.00    -0.079 Cl
ATOM     12  C   UNL     1      36.983 -23.378 -15.324  0.00  0.00    +0.059 C 
ATOM     13  C   UNL     1      37.112 -24.761 -15.200  0.00  0.00    +0.030 C 
ATOM     14  C   UNL     1      36.643 -22.607 -14.213  0.00  0.00    +0.018 C 
ATOM     15  C   UNL     1      36.563 -24.602 -12.853  0.00  0.00    +0.149 C 
ATOM     16  C   UNL     1      36.903 -25.373 -13.964  0.00  0.00    +0.093 C 
ATOM     17  C   UNL     1      36.432 -23.218 -12.977  0.00  0.00    +0.039 C 
BRANCH  15  18
ATOM     18  O   UNL     1      36.352 -25.172 -11.633  0.00  0.00    -0.471 OA
ATOM     19  C   UNL     1      35.747 -24.356 -10.633  0.00  0.00    +0.253 C 
ENDBRANCH  15  18
ENDBRANCH   2  12
BRANCH   1  20
ATOM     20  C   UNL     1      32.053 -22.793 -17.179  0.00  0.00    +0.064 C 
ATOM     21  C   UNL     1      30.501 -23.885 -15.135  0.00  0.00    +0.206 C 
ATOM     22  C   UNL     1      29.918 -23.040 -16.078  0.00  0.00    +0.177 C 
ATOM     23  C   UNL     1      31.861 -24.185 -15.215  0.00  0.00    +0.177 C 
ATOM     24  C   UNL     1      30.693 -22.492 -17.100  0.00  0.00    +0.055 C 
ATOM     25  C   UNL     1      32.637 -23.639 -16.237  0.00  0.00    +0.055 C 
BRANCH  21  26
ATOM     26  O   UNL     1      29.743 -24.420 -14.135  0.00  0.00    -0.465 OA
ATOM     27  C   UNL     1      28.956 -25.563 -14.461  0.00  0.00    +0.253 C 
ENDBRANCH  21  26
BRANCH  22  28
ATOM     28  O   UNL     1      28.590 -22.738 -16.011  0.00  0.00    -0.468 OA
ATOM     29  C   UNL     1      27.826 -22.910 -17.202  0.00  0.00    +0.253 C 
ENDBRANCH  22  28
BRANCH  23  30
ATOM     30  O   UNL     1      32.444 -25.010 -14.300  0.00  0.00    -0.468 OA
ATOM     31  C   UNL     1      33.071 -24.394 -13.177  0.00  0.00    +0.253 C 
ENDBRANCH  23  30
ENDBRANCH   1  20
TORSDOF 6
ENDMDL
