MODEL 1
REMARK VINA RESULT:      -8.9      0.000      0.000
REMARK  Name = 5288826
REMARK  2 active torsions:
REMARK  status: ('A' for Active; 'I' for Inactive)
REMARK    1  A    between atoms: C_12  and  O_21
REMARK    2  A    between atoms: C_18  and  O_23
REMARK                            x       y       z     vdW  Elec       q    Type
REMARK                         _______ _______ _______ _____ _____    ______ ____
ROOT
ATOM      1  O   UNL     1      31.796 -11.136 -22.819  0.00  0.00    -0.473 OA
ATOM      2  N   UNL     1      31.385  -5.956 -23.540  0.00  0.00    +0.387 N 
ATOM      3  C   UNL     1      31.498  -8.723 -22.670  0.00  0.00    +0.061 C 
ATOM      4  C   UNL     1      31.773  -7.546 -21.722  0.00  0.00    +0.010 C 
ATOM      5  C   UNL     1      32.422  -6.414 -22.584  0.00  0.00    -0.049 C 
ATOM      6  C   UNL     1      31.128 -10.085 -22.037  0.00  0.00    +0.200 C 
ATOM      7  C   UNL     1      30.502  -8.280 -23.759  0.00  0.00    -0.015 C 
ATOM      8  C   UNL     1      32.791  -9.138 -23.292  0.00  0.00    +0.014 C 
ATOM      9  C   UNL     1      33.776  -6.853 -23.240  0.00  0.00    +0.006 C 
ATOM     10  C   UNL     1      30.939  -6.992 -24.477  0.00  0.00    -0.077 C 
ATOM     11  C   UNL     1      33.843  -8.306 -23.631  0.00  0.00    -0.025 C 
ATOM     12  C   UNL     1      31.475 -10.208 -20.530  0.00  0.00    +0.172 C 
ATOM     13  C   UNL     1      32.588  -7.972 -20.529  0.00  0.00    -0.030 C 
ATOM     14  C   UNL     1      32.864 -10.508 -23.401  0.00  0.00    +0.168 C 
ATOM     15  C   UNL     1      32.460  -9.200 -20.001  0.00  0.00    +0.002 C 
ATOM     16  C   UNL     1      31.742  -4.725 -24.238  0.00  0.00    -0.101 C 
ATOM     17  C   UNL     1      34.962  -8.899 -24.216  0.00  0.00    -0.001 C 
ATOM     18  C   UNL     1      33.954 -11.117 -23.982  0.00  0.00    +0.167 C 
ATOM     19  C   UNL     1      35.006 -10.295 -24.408  0.00  0.00    +0.039 C 
ATOM     20  H   UNL     1      30.582  -5.741 -22.948  0.00  0.00    -0.080 HD
ENDROOT
BRANCH  12  21
ATOM     21  O   UNL     1      31.918 -11.532 -20.240  0.00  0.00    -0.377 OA
ATOM     22  H   UNL     1      32.305 -11.554 -19.351  0.00  0.00    +0.211 HD
ENDBRANCH  12  21
BRANCH  18  23
ATOM     23  O   UNL     1      34.031 -12.464 -24.111  0.00  0.00    -0.503 OA
ATOM     24  H   UNL     1      33.254 -12.966 -24.260  0.00  0.00    +0.292 HD
ENDBRANCH  18  23
TORSDOF 2
ENDMDL
MODEL 2
REMARK VINA RESULT:      -7.5     16.585     18.641
REMARK  Name = 5288826
REMARK  2 active torsions:
REMARK  status: ('A' for Active; 'I' for Inactive)
REMARK    1  A    between atoms: C_12  and  O_21
REMARK    2  A    between atoms: C_18  and  O_23
REMARK                            x       y       z     vdW  Elec       q    Type
REMARK                         _______ _______ _______ _____ _____    ______ ____
ROOT
ATOM      1  O   UNL     1      38.812 -23.991 -14.099  0.00  0.00    -0.473 OA
ATOM      2  N   UNL     1      33.911 -23.733 -15.953  0.00  0.00    +0.387 N 
ATOM      3  C   UNL     1      36.640 -24.316 -15.152  0.00  0.00    +0.061 C 
ATOM      4  C   UNL     1      35.608 -25.418 -15.435  0.00  0.00    +0.010 C 
ATOM      5  C   UNL     1      34.212 -24.846 -15.021  0.00  0.00    -0.049 C 
ATOM      6  C   UNL     1      38.137 -24.705 -15.192  0.00  0.00    +0.200 C 
ATOM      7  C   UNL     1      36.320 -23.081 -16.017  0.00  0.00    -0.015 C 
ATOM      8  C   UNL     1      36.566 -23.963 -13.702  0.00  0.00    +0.014 C 
ATOM      9  C   UNL     1      34.138 -24.472 -13.501  0.00  0.00    +0.006 C 
ATOM     10  C   UNL     1      34.861 -22.618 -15.875  0.00  0.00    -0.077 C 
ATOM     11  C   UNL     1      35.428 -23.959 -12.916  0.00  0.00    -0.025 C 
ATOM     12  C   UNL     1      38.406 -26.230 -15.109  0.00  0.00    +0.172 C 
ATOM     13  C   UNL     1      35.980 -26.714 -14.763  0.00  0.00    -0.030 C 
ATOM     14  C   UNL     1      37.823 -23.733 -13.190  0.00  0.00    +0.168 C 
ATOM     15  C   UNL     1      37.264 -27.069 -14.600  0.00  0.00    +0.002 C 
ATOM     16  C   UNL     1      32.532 -23.265 -15.872  0.00  0.00    -0.101 C 
ATOM     17  C   UNL     1      35.576 -23.585 -11.580  0.00  0.00    -0.001 C 
ATOM     18  C   UNL     1      37.995 -23.354 -11.877  0.00  0.00    +0.167 C 
ATOM     19  C   UNL     1      36.852 -23.264 -11.072  0.00  0.00    +0.039 C 
ATOM     20  H   UNL     1      34.032 -24.147 -16.878  0.00  0.00    -0.080 HD
ENDROOT
BRANCH  12  21
ATOM     21  O   UNL     1      39.581 -26.475 -14.339  0.00  0.00    -0.377 OA
ATOM     22  H   UNL     1      39.337 -26.602 -13.409  0.00  0.00    +0.211 HD
ENDBRANCH  12  21
BRANCH  18  23
ATOM     23  O   UNL     1      39.225 -23.108 -11.364  0.00  0.00    -0.503 OA
ATOM     24  H   UNL     1      39.750 -23.815 -11.044  0.00  0.00    +0.292 HD
ENDBRANCH  18  23
TORSDOF 2
ENDMDL
