MODEL 1
REMARK VINA RESULT:     -11.7      0.000      0.000
REMARK  Name = 25021183
REMARK  7 active torsions:
REMARK  status: ('A' for Active; 'I' for Inactive)
REMARK    1  A    between atoms: C_3  and  C_10
REMARK    2  A    between atoms: C_7  and  C_20
REMARK    3  A    between atoms: N_9  and  C_12
REMARK    4  A    between atoms: C_12  and  C_13
REMARK    5  A    between atoms: C_20  and  N_21
REMARK    6  A    between atoms: C_20  and  C_25
REMARK    7  A    between atoms: C_25  and  C_26
REMARK                            x       y       z     vdW  Elec       q    Type
REMARK                         _______ _______ _______ _____ _____    ______ ____
ROOT
ATOM      1  O   UNL     1      35.091 -15.680 -20.481  0.00  0.00    -0.277 OA
ATOM      2  N   UNL     1      34.532 -15.931 -22.713  0.00  0.00    -0.275 N 
ATOM      3  C   UNL     1      34.266 -14.524 -22.977  0.00  0.00    +0.152 C 
ATOM      4  C   UNL     1      34.236 -14.414 -24.498  0.00  0.00    +0.031 C 
ATOM      5  C   UNL     1      33.762 -15.795 -24.943  0.00  0.00    +0.024 C 
ATOM      6  C   UNL     1      34.405 -16.729 -23.930  0.00  0.00    +0.094 C 
ATOM      7  C   UNL     1      34.998 -16.384 -21.488  0.00  0.00    +0.206 C 
ENDROOT
BRANCH   3  10
ATOM      8  O   UNL     1      32.251 -15.063 -21.815  0.00  0.00    -0.273 OA
ATOM      9  N   UNL     1      32.586 -12.875 -22.537  0.00  0.00    -0.299 N 
ATOM     10  C   UNL     1      32.932 -14.205 -22.370  0.00  0.00    +0.241 C 
ATOM     11  H   UNL     1      33.218 -12.280 -23.000  0.00  0.00    +0.150 HD
BRANCH   9  12
ATOM     12  C   UNL     1      31.339 -12.318 -22.063  0.00  0.00    +0.116 C 
BRANCH  12  13
ATOM     13  C   UNL     1      31.556 -11.126 -21.177  0.00  0.00    -0.003 C 
ATOM     14  C   UNL     1      31.933  -9.903 -21.732  0.00  0.00    -0.007 C 
ATOM     15  C   UNL     1      31.382 -11.241 -19.797  0.00  0.00    -0.003 C 
ATOM     16  C   UNL     1      32.134  -8.795 -20.909  0.00  0.00    -0.022 C 
ATOM     17  C   UNL     1      31.584 -10.133 -18.974  0.00  0.00    -0.001 C 
ATOM     18  C   UNL     1      31.959  -8.910 -19.530  0.00  0.00    -0.004 C 
ATOM     19  C   UNL     1      32.536  -7.487 -21.503  0.00  0.00    +0.031 C 
ENDBRANCH  12  13
ENDBRANCH   9  12
ENDBRANCH   3  10
BRANCH   7  20
ATOM     20  C   UNL     1      35.389 -17.840 -21.439  0.00  0.00    +0.018 C 
BRANCH  20  21
ATOM     21  N   UNL     1      36.267 -18.040 -22.584  0.00  0.00    +0.388 N 
ATOM     22  H   UNL     1      35.743 -17.891 -23.445  0.00  0.00    -0.089 HD
ATOM     23  H   UNL     1      36.634 -18.990 -22.568  0.00  0.00    -0.089 HD
ATOM     24  H   UNL     1      37.041 -17.376 -22.538  0.00  0.00    -0.089 HD
ENDBRANCH  20  21
BRANCH  20  25
ATOM     25  C   UNL     1      34.160 -18.744 -21.516  0.00  0.00    +0.013 C 
BRANCH  25  26
ATOM     26  C   UNL     1      34.276 -19.963 -20.630  0.00  0.00    -0.024 C 
ATOM     27  C   UNL     1      33.127 -20.551 -20.100  0.00  0.00    -0.004 C 
ATOM     28  C   UNL     1      35.531 -20.498 -20.341  0.00  0.00    -0.004 C 
ATOM     29  C   UNL     1      33.234 -21.676 -19.282  0.00  0.00    -0.000 C 
ATOM     30  C   UNL     1      35.638 -21.623 -19.523  0.00  0.00    -0.000 C 
ATOM     31  C   UNL     1      34.490 -22.211 -18.993  0.00  0.00    -0.000 C 
ENDBRANCH  25  26
ENDBRANCH  20  25
ENDBRANCH   7  20
TORSDOF 7
ENDMDL
MODEL 2
REMARK VINA RESULT:     -11.4      1.840      2.563
REMARK  Name = 25021183
REMARK  7 active torsions:
REMARK  status: ('A' for Active; 'I' for Inactive)
REMARK    1  A    between atoms: C_3  and  C_10
REMARK    2  A    between atoms: C_7  and  C_20
REMARK    3  A    between atoms: N_9  and  C_12
REMARK    4  A    between atoms: C_12  and  C_13
REMARK    5  A    between atoms: C_20  and  N_21
REMARK    6  A    between atoms: C_20  and  C_25
REMARK    7  A    between atoms: C_25  and  C_26
REMARK                            x       y       z     vdW  Elec       q    Type
REMARK                         _______ _______ _______ _____ _____    ______ ____
ROOT
ATOM      1  O   UNL     1      34.340 -17.432 -23.935  0.00  0.00    -0.277 OA
ATOM      2  N   UNL     1      34.053 -16.219 -21.985  0.00  0.00    -0.275 N 
ATOM      3  C   UNL     1      33.109 -15.253 -22.527  0.00  0.00    +0.152 C 
ATOM      4  C   UNL     1      32.502 -14.575 -21.304  0.00  0.00    +0.031 C 
ATOM      5  C   UNL     1      33.615 -14.661 -20.263  0.00  0.00    +0.024 C 
ATOM      6  C   UNL     1      34.264 -16.005 -20.555  0.00  0.00    +0.094 C 
ATOM      7  C   UNL     1      34.539 -17.285 -22.729  0.00  0.00    +0.206 C 
ENDROOT
BRANCH   3  10
ATOM      8  O   UNL     1      35.049 -14.523 -23.711  0.00  0.00    -0.273 OA
ATOM      9  N   UNL     1      33.176 -13.143 -23.658  0.00  0.00    -0.299 N 
ATOM     10  C   UNL     1      33.895 -14.289 -23.365  0.00  0.00    +0.241 C 
ATOM     11  H   UNL     1      32.253 -13.069 -23.324  0.00  0.00    +0.150 HD
BRANCH   9  12
ATOM     12  C   UNL     1      33.716 -12.048 -24.432  0.00  0.00    +0.116 C 
BRANCH  12  13
ATOM     13  C   UNL     1      33.462 -10.720 -23.782  0.00  0.00    -0.003 C 
ATOM     14  C   UNL     1      34.279  -9.629 -24.080  0.00  0.00    -0.007 C 
ATOM     15  C   UNL     1      32.409 -10.575 -22.878  0.00  0.00    -0.003 C 
ATOM     16  C   UNL     1      34.043  -8.394 -23.476  0.00  0.00    -0.022 C 
ATOM     17  C   UNL     1      32.173  -9.341 -22.274  0.00  0.00    -0.001 C 
ATOM     18  C   UNL     1      32.990  -8.250 -22.572  0.00  0.00    -0.004 C 
ATOM     19  C   UNL     1      34.916  -7.228 -23.794  0.00  0.00    +0.031 C 
ENDBRANCH  12  13
ENDBRANCH   9  12
ENDBRANCH   3  10
BRANCH   7  20
ATOM     20  C   UNL     1      35.366 -18.288 -21.964  0.00  0.00    +0.018 C 
BRANCH  20  21
ATOM     21  N   UNL     1      36.719 -18.147 -22.486  0.00  0.00    +0.388 N 
ATOM     22  H   UNL     1      36.750 -17.371 -23.147  0.00  0.00    -0.089 HD
ATOM     23  H   UNL     1      36.992 -19.008 -22.957  0.00  0.00    -0.089 HD
ATOM     24  H   UNL     1      37.362 -17.962 -21.715  0.00  0.00    -0.089 HD
ENDBRANCH  20  21
BRANCH  20  25
ATOM     25  C   UNL     1      34.837 -19.707 -22.166  0.00  0.00    +0.013 C 
BRANCH  25  26
ATOM     26  C   UNL     1      34.792 -20.501 -20.881  0.00  0.00    -0.024 C 
ATOM     27  C   UNL     1      33.565 -20.867 -20.330  0.00  0.00    -0.004 C 
ATOM     28  C   UNL     1      35.979 -20.867 -20.246  0.00  0.00    -0.004 C 
ATOM     29  C   UNL     1      33.523 -21.600 -19.144  0.00  0.00    -0.000 C 
ATOM     30  C   UNL     1      35.938 -21.601 -19.060  0.00  0.00    -0.000 C 
ATOM     31  C   UNL     1      34.710 -21.966 -18.509  0.00  0.00    -0.000 C 
ENDBRANCH  25  26
ENDBRANCH  20  25
ENDBRANCH   7  20
TORSDOF 7
ENDMDL
MODEL 3
REMARK VINA RESULT:     -11.3      2.133      8.956
REMARK  Name = 25021183
REMARK  7 active torsions:
REMARK  status: ('A' for Active; 'I' for Inactive)
REMARK    1  A    between atoms: C_3  and  C_10
REMARK    2  A    between atoms: C_7  and  C_20
REMARK    3  A    between atoms: N_9  and  C_12
REMARK    4  A    between atoms: C_12  and  C_13
REMARK    5  A    between atoms: C_20  and  N_21
REMARK    6  A    between atoms: C_20  and  C_25
REMARK    7  A    between atoms: C_25  and  C_26
REMARK                            x       y       z     vdW  Elec       q    Type
REMARK                         _______ _______ _______ _____ _____    ______ ____
ROOT
ATOM      1  O   UNL     1      34.693 -15.437 -24.501  0.00  0.00    -0.277 OA
ATOM      2  N   UNL     1      33.677 -14.641 -22.579  0.00  0.00    -0.275 N 
ATOM      3  C   UNL     1      34.488 -15.399 -21.636  0.00  0.00    +0.152 C 
ATOM      4  C   UNL     1      34.229 -14.741 -20.285  0.00  0.00    +0.031 C 
ATOM      5  C   UNL     1      32.813 -14.189 -20.426  0.00  0.00    +0.024 C 
ATOM      6  C   UNL     1      32.751 -13.752 -21.881  0.00  0.00    +0.094 C 
ATOM      7  C   UNL     1      33.902 -14.672 -23.947  0.00  0.00    +0.206 C 
ENDROOT
BRANCH   3  10
ATOM      8  O   UNL     1      32.987 -17.164 -21.061  0.00  0.00    -0.273 OA
ATOM      9  N   UNL     1      34.813 -17.637 -22.425  0.00  0.00    -0.299 N 
ATOM     10  C   UNL     1      33.995 -16.816 -21.669  0.00  0.00    +0.241 C 
ATOM     11  H   UNL     1      35.597 -17.240 -22.868  0.00  0.00    +0.150 HD
BRANCH   9  12
ATOM     12  C   UNL     1      34.570 -19.051 -22.596  0.00  0.00    +0.116 C 
BRANCH  12  13
ATOM     13  C   UNL     1      34.980 -19.843 -21.389  0.00  0.00    -0.003 C 
ATOM     14  C   UNL     1      34.035 -20.604 -20.700  0.00  0.00    -0.007 C 
ATOM     15  C   UNL     1      36.305 -19.817 -20.954  0.00  0.00    -0.003 C 
ATOM     16  C   UNL     1      34.416 -21.340 -19.578  0.00  0.00    -0.022 C 
ATOM     17  C   UNL     1      36.685 -20.552 -19.832  0.00  0.00    -0.001 C 
ATOM     18  C   UNL     1      35.741 -21.314 -19.143  0.00  0.00    -0.004 C 
ATOM     19  C   UNL     1      33.406 -22.154 -18.841  0.00  0.00    +0.031 C 
ENDBRANCH  12  13
ENDBRANCH   9  12
ENDBRANCH   3  10
BRANCH   7  20
ATOM     20  C   UNL     1      33.091 -13.695 -24.761  0.00  0.00    +0.018 C 
BRANCH  20  21
ATOM     21  N   UNL     1      32.384 -14.507 -25.743  0.00  0.00    +0.388 N 
ATOM     22  H   UNL     1      31.454 -14.733 -25.393  0.00  0.00    -0.089 HD
ATOM     23  H   UNL     1      32.904 -15.368 -25.909  0.00  0.00    -0.089 HD
ATOM     24  H   UNL     1      32.301 -13.986 -26.617  0.00  0.00    -0.089 HD
ENDBRANCH  20  21
BRANCH  20  25
ATOM     25  C   UNL     1      33.990 -12.661 -25.437  0.00  0.00    +0.013 C 
BRANCH  25  26
ATOM     26  C   UNL     1      33.955 -11.318 -24.746  0.00  0.00    -0.024 C 
ATOM     27  C   UNL     1      32.918 -11.014 -23.864  0.00  0.00    -0.004 C 
ATOM     28  C   UNL     1      34.960 -10.381 -24.991  0.00  0.00    -0.004 C 
ATOM     29  C   UNL     1      32.886  -9.774 -23.226  0.00  0.00    -0.000 C 
ATOM     30  C   UNL     1      34.928  -9.141 -24.353  0.00  0.00    -0.000 C 
ATOM     31  C   UNL     1      33.891  -8.837 -23.471  0.00  0.00    -0.000 C 
ENDBRANCH  25  26
ENDBRANCH  20  25
ENDBRANCH   7  20
TORSDOF 7
ENDMDL
MODEL 4
REMARK VINA RESULT:     -11.1      2.415      9.841
REMARK  Name = 25021183
REMARK  7 active torsions:
REMARK  status: ('A' for Active; 'I' for Inactive)
REMARK    1  A    between atoms: C_3  and  C_10
REMARK    2  A    between atoms: C_7  and  C_20
REMARK    3  A    between atoms: N_9  and  C_12
REMARK    4  A    between atoms: C_12  and  C_13
REMARK    5  A    between atoms: C_20  and  N_21
REMARK    6  A    between atoms: C_20  and  C_25
REMARK    7  A    between atoms: C_25  and  C_26
REMARK                            x       y       z     vdW  Elec       q    Type
REMARK                         _______ _______ _______ _____ _____    ______ ____
ROOT
ATOM      1  O   UNL     1      31.130 -10.982 -20.957  0.00  0.00    -0.277 OA
ATOM      2  N   UNL     1      32.533 -11.530 -22.715  0.00  0.00    -0.275 N 
ATOM      3  C   UNL     1      32.103 -12.916 -22.845  0.00  0.00    +0.152 C 
ATOM      4  C   UNL     1      32.644 -13.364 -24.199  0.00  0.00    +0.031 C 
ATOM      5  C   UNL     1      33.894 -12.508 -24.381  0.00  0.00    +0.024 C 
ATOM      6  C   UNL     1      33.506 -11.181 -23.747  0.00  0.00    +0.094 C 
ATOM      7  C   UNL     1      31.949 -10.651 -21.816  0.00  0.00    +0.206 C 
ENDROOT
BRANCH   3  10
ATOM      8  O   UNL     1      32.347 -13.547 -20.556  0.00  0.00    -0.273 OA
ATOM      9  N   UNL     1      33.758 -14.500 -22.145  0.00  0.00    -0.299 N 
ATOM     10  C   UNL     1      32.727 -13.680 -21.716  0.00  0.00    +0.241 C 
ATOM     11  H   UNL     1      33.971 -14.522 -23.105  0.00  0.00    +0.150 HD
BRANCH   9  12
ATOM     12  C   UNL     1      34.536 -15.324 -21.248  0.00  0.00    +0.116 C 
BRANCH  12  13
ATOM     13  C   UNL     1      34.632 -16.742 -21.729  0.00  0.00    -0.003 C 
ATOM     14  C   UNL     1      34.064 -17.773 -20.980  0.00  0.00    -0.007 C 
ATOM     15  C   UNL     1      35.290 -17.031 -22.925  0.00  0.00    -0.003 C 
ATOM     16  C   UNL     1      34.154 -19.091 -21.427  0.00  0.00    -0.022 C 
ATOM     17  C   UNL     1      35.380 -18.349 -23.371  0.00  0.00    -0.001 C 
ATOM     18  C   UNL     1      34.812 -19.380 -22.623  0.00  0.00    -0.004 C 
ATOM     19  C   UNL     1      33.546 -20.194 -20.626  0.00  0.00    +0.031 C 
ENDBRANCH  12  13
ENDBRANCH   9  12
ENDBRANCH   3  10
BRANCH   7  20
ATOM     20  C   UNL     1      32.389  -9.213 -21.934  0.00  0.00    +0.018 C 
BRANCH  20  21
ATOM     21  N   UNL     1      32.325  -8.680 -20.579  0.00  0.00    +0.388 N 
ATOM     22  H   UNL     1      33.209  -8.224 -20.351  0.00  0.00    -0.089 HD
ATOM     23  H   UNL     1      32.154  -9.440 -19.922  0.00  0.00    -0.089 HD
ATOM     24  H   UNL     1      31.567  -8.000 -20.518  0.00  0.00    -0.089 HD
ENDBRANCH  20  21
BRANCH  20  25
ATOM     25  C   UNL     1      31.479  -8.434 -22.882  0.00  0.00    +0.013 C 
BRANCH  25  26
ATOM     26  C   UNL     1      32.242  -7.469 -23.761  0.00  0.00    -0.024 C 
ATOM     27  C   UNL     1      33.625  -7.590 -23.891  0.00  0.00    -0.004 C 
ATOM     28  C   UNL     1      31.562  -6.459 -24.441  0.00  0.00    -0.004 C 
ATOM     29  C   UNL     1      34.330  -6.700 -24.702  0.00  0.00    -0.000 C 
ATOM     30  C   UNL     1      32.267  -5.569 -25.252  0.00  0.00    -0.000 C 
ATOM     31  C   UNL     1      33.650  -5.689 -25.382  0.00  0.00    -0.000 C 
ENDBRANCH  25  26
ENDBRANCH  20  25
ENDBRANCH   7  20
TORSDOF 7
ENDMDL
MODEL 5
REMARK VINA RESULT:     -11.0      1.836      2.823
REMARK  Name = 25021183
REMARK  7 active torsions:
REMARK  status: ('A' for Active; 'I' for Inactive)
REMARK    1  A    between atoms: C_3  and  C_10
REMARK    2  A    between atoms: C_7  and  C_20
REMARK    3  A    between atoms: N_9  and  C_12
REMARK    4  A    between atoms: C_12  and  C_13
REMARK    5  A    between atoms: C_20  and  N_21
REMARK    6  A    between atoms: C_20  and  C_25
REMARK    7  A    between atoms: C_25  and  C_26
REMARK                            x       y       z     vdW  Elec       q    Type
REMARK                         _______ _______ _______ _____ _____    ______ ____
ROOT
ATOM      1  O   UNL     1      33.220 -15.412 -25.082  0.00  0.00    -0.277 OA
ATOM      2  N   UNL     1      33.674 -15.097 -22.834  0.00  0.00    -0.275 N 
ATOM      3  C   UNL     1      32.631 -14.110 -22.591  0.00  0.00    +0.152 C 
ATOM      4  C   UNL     1      32.513 -14.036 -21.072  0.00  0.00    +0.031 C 
ATOM      5  C   UNL     1      33.917 -14.394 -20.591  0.00  0.00    +0.024 C 
ATOM      6  C   UNL     1      34.379 -15.434 -21.600  0.00  0.00    +0.094 C 
ATOM      7  C   UNL     1      33.833 -15.725 -24.060  0.00  0.00    +0.206 C 
ENDROOT
BRANCH   3  10
ATOM      8  O   UNL     1      34.136 -12.740 -23.839  0.00  0.00    -0.273 OA
ATOM      9  N   UNL     1      32.268 -11.757 -22.857  0.00  0.00    -0.299 N 
ATOM     10  C   UNL     1      33.105 -12.812 -23.176  0.00  0.00    +0.241 C 
ATOM     11  H   UNL     1      31.466 -11.941 -22.316  0.00  0.00    +0.150 HD
BRANCH   9  12
ATOM     12  C   UNL     1      32.515 -10.398 -23.280  0.00  0.00    +0.116 C 
BRANCH  12  13
ATOM     13  C   UNL     1      32.309  -9.415 -22.165  0.00  0.00    -0.003 C 
ATOM     14  C   UNL     1      32.235  -8.050 -22.442  0.00  0.00    -0.007 C 
ATOM     15  C   UNL     1      32.191  -9.866 -20.850  0.00  0.00    -0.003 C 
ATOM     16  C   UNL     1      32.044  -7.136 -21.406  0.00  0.00    -0.022 C 
ATOM     17  C   UNL     1      32.000  -8.953 -19.814  0.00  0.00    -0.001 C 
ATOM     18  C   UNL     1      31.926  -7.587 -20.091  0.00  0.00    -0.004 C 
ATOM     19  C   UNL     1      31.965  -5.676 -21.702  0.00  0.00    +0.031 C 
ENDBRANCH  12  13
ENDBRANCH   9  12
ENDBRANCH   3  10
BRANCH   7  20
ATOM     20  C   UNL     1      34.842 -16.845 -24.090  0.00  0.00    +0.018 C 
BRANCH  20  21
ATOM     21  N   UNL     1      35.325 -16.891 -25.464  0.00  0.00    +0.388 N 
ATOM     22  H   UNL     1      34.722 -16.320 -26.056  0.00  0.00    -0.089 HD
ATOM     23  H   UNL     1      35.315 -17.855 -25.796  0.00  0.00    -0.089 HD
ATOM     24  H   UNL     1      36.278 -16.528 -25.501  0.00  0.00    -0.089 HD
ENDBRANCH  20  21
BRANCH  20  25
ATOM     25  C   UNL     1      34.205 -18.172 -23.681  0.00  0.00    +0.013 C 
BRANCH  25  26
ATOM     26  C   UNL     1      34.891 -18.806 -22.493  0.00  0.00    -0.024 C 
ATOM     27  C   UNL     1      36.239 -18.547 -22.246  0.00  0.00    -0.004 C 
ATOM     28  C   UNL     1      34.177 -19.652 -21.644  0.00  0.00    -0.004 C 
ATOM     29  C   UNL     1      36.873 -19.132 -21.150  0.00  0.00    -0.000 C 
ATOM     30  C   UNL     1      34.810 -20.237 -20.547  0.00  0.00    -0.000 C 
ATOM     31  C   UNL     1      36.159 -19.978 -20.301  0.00  0.00    -0.000 C 
ENDBRANCH  25  26
ENDBRANCH  20  25
ENDBRANCH   7  20
TORSDOF 7
ENDMDL
MODEL 6
REMARK VINA RESULT:     -10.8      6.680     11.125
REMARK  Name = 25021183
REMARK  7 active torsions:
REMARK  status: ('A' for Active; 'I' for Inactive)
REMARK    1  A    between atoms: C_3  and  C_10
REMARK    2  A    between atoms: C_7  and  C_20
REMARK    3  A    between atoms: N_9  and  C_12
REMARK    4  A    between atoms: C_12  and  C_13
REMARK    5  A    between atoms: C_20  and  N_21
REMARK    6  A    between atoms: C_20  and  C_25
REMARK    7  A    between atoms: C_25  and  C_26
REMARK                            x       y       z     vdW  Elec       q    Type
REMARK                         _______ _______ _______ _____ _____    ______ ____
ROOT
ATOM      1  O   UNL     1      33.547 -24.128 -17.429  0.00  0.00    -0.277 OA
ATOM      2  N   UNL     1      35.370 -22.987 -16.571  0.00  0.00    -0.275 N 
ATOM      3  C   UNL     1      35.835 -24.052 -15.694  0.00  0.00    +0.152 C 
ATOM      4  C   UNL     1      37.251 -23.642 -15.303  0.00  0.00    +0.031 C 
ATOM      5  C   UNL     1      37.208 -22.118 -15.366  0.00  0.00    +0.024 C 
ATOM      6  C   UNL     1      36.276 -21.842 -16.536  0.00  0.00    +0.094 C 
ATOM      7  C   UNL     1      34.291 -23.146 -17.429  0.00  0.00    +0.206 C 
ENDROOT
BRANCH   3  10
ATOM      8  O   UNL     1      35.199 -24.702 -13.487  0.00  0.00    -0.273 OA
ATOM      9  N   UNL     1      33.753 -23.365 -14.729  0.00  0.00    -0.299 N 
ATOM     10  C   UNL     1      34.917 -24.082 -14.508  0.00  0.00    +0.241 C 
ATOM     11  H   UNL     1      33.641 -22.908 -15.593  0.00  0.00    +0.150 HD
BRANCH   9  12
ATOM     12  C   UNL     1      32.695 -23.257 -13.751  0.00  0.00    +0.116 C 
BRANCH  12  13
ATOM     13  C   UNL     1      31.381 -23.744 -14.288  0.00  0.00    -0.003 C 
ATOM     14  C   UNL     1      30.556 -22.876 -15.003  0.00  0.00    -0.007 C 
ATOM     15  C   UNL     1      30.984 -25.063 -14.071  0.00  0.00    -0.003 C 
ATOM     16  C   UNL     1      29.334 -23.328 -15.503  0.00  0.00    -0.022 C 
ATOM     17  C   UNL     1      29.762 -25.515 -14.570  0.00  0.00    -0.001 C 
ATOM     18  C   UNL     1      28.937 -24.648 -15.286  0.00  0.00    -0.004 C 
ATOM     19  C   UNL     1      28.451 -22.401 -16.268  0.00  0.00    +0.031 C 
ENDBRANCH  12  13
ENDBRANCH   9  12
ENDBRANCH   3  10
BRANCH   7  20
ATOM     20  C   UNL     1      34.054 -22.010 -18.392  0.00  0.00    +0.018 C 
BRANCH  20  21
ATOM     21  N   UNL     1      32.646 -22.103 -18.756  0.00  0.00    +0.388 N 
ATOM     22  H   UNL     1      32.319 -21.195 -19.086  0.00  0.00    -0.089 HD
ATOM     23  H   UNL     1      32.103 -22.385 -17.941  0.00  0.00    -0.089 HD
ATOM     24  H   UNL     1      32.533 -22.795 -19.497  0.00  0.00    -0.089 HD
ENDBRANCH  20  21
BRANCH  20  25
ATOM     25  C   UNL     1      34.955 -22.131 -19.620  0.00  0.00    +0.013 C 
BRANCH  25  26
ATOM     26  C   UNL     1      35.270 -20.792 -20.246  0.00  0.00    -0.024 C 
ATOM     27  C   UNL     1      36.590 -20.346 -20.311  0.00  0.00    -0.004 C 
ATOM     28  C   UNL     1      34.241 -20.001 -20.757  0.00  0.00    -0.004 C 
ATOM     29  C   UNL     1      36.882 -19.110 -20.889  0.00  0.00    -0.000 C 
ATOM     30  C   UNL     1      34.532 -18.765 -21.334  0.00  0.00    -0.000 C 
ATOM     31  C   UNL     1      35.852 -18.320 -21.400  0.00  0.00    -0.000 C 
ENDBRANCH  25  26
ENDBRANCH  20  25
ENDBRANCH   7  20
TORSDOF 7
ENDMDL
MODEL 7
REMARK VINA RESULT:     -10.8      3.747      6.248
REMARK  Name = 25021183
REMARK  7 active torsions:
REMARK  status: ('A' for Active; 'I' for Inactive)
REMARK    1  A    between atoms: C_3  and  C_10
REMARK    2  A    between atoms: C_7  and  C_20
REMARK    3  A    between atoms: N_9  and  C_12
REMARK    4  A    between atoms: C_12  and  C_13
REMARK    5  A    between atoms: C_20  and  N_21
REMARK    6  A    between atoms: C_20  and  C_25
REMARK    7  A    between atoms: C_25  and  C_26
REMARK                            x       y       z     vdW  Elec       q    Type
REMARK                         _______ _______ _______ _____ _____    ______ ____
ROOT
ATOM      1  O   UNL     1      32.500 -10.452 -24.324  0.00  0.00    -0.277 OA
ATOM      2  N   UNL     1      32.198 -11.360 -22.217  0.00  0.00    -0.275 N 
ATOM      3  C   UNL     1      31.153 -10.441 -21.788  0.00  0.00    +0.152 C 
ATOM      4  C   UNL     1      30.545 -11.095 -20.552  0.00  0.00    +0.031 C 
ATOM      5  C   UNL     1      31.706 -11.896 -19.968  0.00  0.00    +0.024 C 
ATOM      6  C   UNL     1      32.453 -12.379 -21.201  0.00  0.00    +0.094 C 
ATOM      7  C   UNL     1      32.739 -11.329 -23.494  0.00  0.00    +0.206 C 
ENDROOT
BRANCH   3  10
ATOM      8  O   UNL     1      32.451  -8.979 -20.419  0.00  0.00    -0.273 OA
ATOM      9  N   UNL     1      31.604  -8.180 -22.435  0.00  0.00    -0.299 N 
ATOM     10  C   UNL     1      31.817  -9.138 -21.458  0.00  0.00    +0.241 C 
ATOM     11  H   UNL     1      31.077  -8.428 -23.228  0.00  0.00    +0.150 HD
BRANCH   9  12
ATOM     12  C   UNL     1      32.119  -6.833 -22.345  0.00  0.00    +0.116 C 
BRANCH  12  13
ATOM     13  C   UNL     1      32.792  -6.401 -23.616  0.00  0.00    -0.003 C 
ATOM     14  C   UNL     1      32.185  -5.453 -24.439  0.00  0.00    -0.007 C 
ATOM     15  C   UNL     1      34.024  -6.949 -23.974  0.00  0.00    -0.003 C 
ATOM     16  C   UNL     1      32.810  -5.052 -25.620  0.00  0.00    -0.022 C 
ATOM     17  C   UNL     1      34.648  -6.549 -25.154  0.00  0.00    -0.001 C 
ATOM     18  C   UNL     1      34.042  -5.600 -25.978  0.00  0.00    -0.004 C 
ATOM     19  C   UNL     1      32.162  -4.038 -26.501  0.00  0.00    +0.031 C 
ENDBRANCH  12  13
ENDBRANCH   9  12
ENDBRANCH   3  10
BRANCH   7  20
ATOM     20  C   UNL     1      33.680 -12.459 -23.828  0.00  0.00    +0.018 C 
BRANCH  20  21
ATOM     21  N   UNL     1      34.590 -11.918 -24.828  0.00  0.00    +0.388 N 
ATOM     22  H   UNL     1      34.065 -11.660 -25.663  0.00  0.00    -0.089 HD
ATOM     23  H   UNL     1      35.288 -12.621 -25.068  0.00  0.00    -0.089 HD
ATOM     24  H   UNL     1      35.055 -11.091 -24.451  0.00  0.00    -0.089 HD
ENDBRANCH  20  21
BRANCH  20  25
ATOM     25  C   UNL     1      32.919 -13.670 -24.366  0.00  0.00    +0.013 C 
BRANCH  25  26
ATOM     26  C   UNL     1      33.695 -14.959 -24.219  0.00  0.00    -0.024 C 
ATOM     27  C   UNL     1      34.345 -15.248 -23.019  0.00  0.00    -0.004 C 
ATOM     28  C   UNL     1      33.761 -15.858 -25.283  0.00  0.00    -0.004 C 
ATOM     29  C   UNL     1      35.061 -16.437 -22.883  0.00  0.00    -0.000 C 
ATOM     30  C   UNL     1      34.477 -17.048 -25.147  0.00  0.00    -0.000 C 
ATOM     31  C   UNL     1      35.127 -17.337 -23.947  0.00  0.00    -0.000 C 
ENDBRANCH  25  26
ENDBRANCH  20  25
ENDBRANCH   7  20
TORSDOF 7
ENDMDL
MODEL 8
REMARK VINA RESULT:     -10.8      1.366      9.233
REMARK  Name = 25021183
REMARK  7 active torsions:
REMARK  status: ('A' for Active; 'I' for Inactive)
REMARK    1  A    between atoms: C_3  and  C_10
REMARK    2  A    between atoms: C_7  and  C_20
REMARK    3  A    between atoms: N_9  and  C_12
REMARK    4  A    between atoms: C_12  and  C_13
REMARK    5  A    between atoms: C_20  and  N_21
REMARK    6  A    between atoms: C_20  and  C_25
REMARK    7  A    between atoms: C_25  and  C_26
REMARK                            x       y       z     vdW  Elec       q    Type
REMARK                         _______ _______ _______ _____ _____    ______ ____
ROOT
ATOM      1  O   UNL     1      32.040 -13.912 -20.496  0.00  0.00    -0.277 OA
ATOM      2  N   UNL     1      32.877 -13.211 -22.537  0.00  0.00    -0.275 N 
ATOM      3  C   UNL     1      33.007 -14.536 -23.127  0.00  0.00    +0.152 C 
ATOM      4  C   UNL     1      33.198 -14.279 -24.618  0.00  0.00    +0.031 C 
ATOM      5  C   UNL     1      33.876 -12.912 -24.657  0.00  0.00    +0.024 C 
ATOM      6  C   UNL     1      33.234 -12.169 -23.496  0.00  0.00    +0.094 C 
ATOM      7  C   UNL     1      32.328 -13.007 -21.279  0.00  0.00    +0.206 C 
ENDROOT
BRANCH   3  10
ATOM      8  O   UNL     1      35.034 -14.528 -21.866  0.00  0.00    -0.273 OA
ATOM      9  N   UNL     1      34.286 -16.532 -22.787  0.00  0.00    -0.299 N 
ATOM     10  C   UNL     1      34.216 -15.176 -22.513  0.00  0.00    +0.241 C 
ATOM     11  H   UNL     1      33.566 -16.941 -23.319  0.00  0.00    +0.150 HD
BRANCH   9  12
ATOM     12  C   UNL     1      35.367 -17.374 -22.329  0.00  0.00    +0.116 C 
BRANCH  12  13
ATOM     13  C   UNL     1      34.869 -18.545 -21.532  0.00  0.00    -0.003 C 
ATOM     14  C   UNL     1      35.777 -19.438 -20.964  0.00  0.00    -0.007 C 
ATOM     15  C   UNL     1      33.499 -18.739 -21.359  0.00  0.00    -0.003 C 
ATOM     16  C   UNL     1      35.315 -20.526 -20.222  0.00  0.00    -0.022 C 
ATOM     17  C   UNL     1      33.037 -19.827 -20.619  0.00  0.00    -0.001 C 
ATOM     18  C   UNL     1      33.944 -20.721 -20.050  0.00  0.00    -0.004 C 
ATOM     19  C   UNL     1      36.285 -21.482 -19.614  0.00  0.00    +0.031 C 
ENDBRANCH  12  13
ENDBRANCH   9  12
ENDBRANCH   3  10
BRANCH   7  20
ATOM     20  C   UNL     1      32.105 -11.566 -20.894  0.00  0.00    +0.018 C 
BRANCH  20  21
ATOM     21  N   UNL     1      31.538 -11.610 -19.553  0.00  0.00    +0.388 N 
ATOM     22  H   UNL     1      30.585 -11.249 -19.573  0.00  0.00    -0.089 HD
ATOM     23  H   UNL     1      32.105 -11.041 -18.925  0.00  0.00    -0.089 HD
ATOM     24  H   UNL     1      31.528 -12.575 -19.220  0.00  0.00    -0.089 HD
ENDBRANCH  20  21
BRANCH  20  25
ATOM     25  C   UNL     1      31.159 -10.874 -21.875  0.00  0.00    +0.013 C 
BRANCH  25  26
ATOM     26  C   UNL     1      31.556  -9.443 -22.157  0.00  0.00    -0.024 C 
ATOM     27  C   UNL     1      32.377  -8.758 -21.262  0.00  0.00    -0.004 C 
ATOM     28  C   UNL     1      31.102  -8.808 -23.313  0.00  0.00    -0.004 C 
ATOM     29  C   UNL     1      32.744  -7.438 -21.523  0.00  0.00    -0.000 C 
ATOM     30  C   UNL     1      31.469  -7.488 -23.574  0.00  0.00    -0.000 C 
ATOM     31  C   UNL     1      32.290  -6.803 -22.678  0.00  0.00    -0.000 C 
ENDBRANCH  25  26
ENDBRANCH  20  25
ENDBRANCH   7  20
TORSDOF 7
ENDMDL
MODEL 9
REMARK VINA RESULT:     -10.6      5.668      9.332
REMARK  Name = 25021183
REMARK  7 active torsions:
REMARK  status: ('A' for Active; 'I' for Inactive)
REMARK    1  A    between atoms: C_3  and  C_10
REMARK    2  A    between atoms: C_7  and  C_20
REMARK    3  A    between atoms: N_9  and  C_12
REMARK    4  A    between atoms: C_12  and  C_13
REMARK    5  A    between atoms: C_20  and  N_21
REMARK    6  A    between atoms: C_20  and  C_25
REMARK    7  A    between atoms: C_25  and  C_26
REMARK                            x       y       z     vdW  Elec       q    Type
REMARK                         _______ _______ _______ _____ _____    ______ ____
ROOT
ATOM      1  O   UNL     1      35.986 -22.637 -18.209  0.00  0.00    -0.277 OA
ATOM      2  N   UNL     1      34.543 -22.929 -16.422  0.00  0.00    -0.275 N 
ATOM      3  C   UNL     1      33.476 -23.573 -17.174  0.00  0.00    +0.152 C 
ATOM      4  C   UNL     1      32.569 -24.187 -16.113  0.00  0.00    +0.031 C 
ATOM      5  C   UNL     1      32.758 -23.266 -14.911  0.00  0.00    +0.024 C 
ATOM      6  C   UNL     1      34.224 -22.873 -14.998  0.00  0.00    +0.094 C 
ATOM      7  C   UNL     1      35.754 -22.576 -17.000  0.00  0.00    +0.206 C 
ENDROOT
BRANCH   3  10
ATOM      8  O   UNL     1      31.649 -22.111 -17.649  0.00  0.00    -0.273 OA
ATOM      9  N   UNL     1      33.527 -22.052 -19.024  0.00  0.00    -0.299 N 
ATOM     10  C   UNL     1      32.773 -22.501 -17.953  0.00  0.00    +0.241 C 
ATOM     11  H   UNL     1      34.420 -22.442 -19.166  0.00  0.00    +0.150 HD
BRANCH   9  12
ATOM     12  C   UNL     1      33.066 -21.037 -19.943  0.00  0.00    +0.116 C 
BRANCH  12  13
ATOM     13  C   UNL     1      34.192 -20.182 -20.448  0.00  0.00    -0.003 C 
ATOM     14  C   UNL     1      33.917 -19.033 -21.189  0.00  0.00    -0.007 C 
ATOM     15  C   UNL     1      35.514 -20.537 -20.177  0.00  0.00    -0.003 C 
ATOM     16  C   UNL     1      34.963 -18.238 -21.658  0.00  0.00    -0.022 C 
ATOM     17  C   UNL     1      36.559 -19.742 -20.647  0.00  0.00    -0.001 C 
ATOM     18  C   UNL     1      36.284 -18.592 -21.387  0.00  0.00    -0.004 C 
ATOM     19  C   UNL     1      34.669 -17.009 -22.451  0.00  0.00    +0.031 C 
ENDBRANCH  12  13
ENDBRANCH   9  12
ENDBRANCH   3  10
BRANCH   7  20
ATOM     20  C   UNL     1      36.811 -22.083 -16.045  0.00  0.00    +0.018 C 
BRANCH  20  21
ATOM     21  N   UNL     1      37.359 -20.883 -16.663  0.00  0.00    +0.388 N 
ATOM     22  H   UNL     1      38.372 -20.874 -16.551  0.00  0.00    -0.089 HD
ATOM     23  H   UNL     1      36.958 -20.058 -16.218  0.00  0.00    -0.089 HD
ATOM     24  H   UNL     1      37.128 -20.879 -17.657  0.00  0.00    -0.089 HD
ENDBRANCH  20  21
BRANCH  20  25
ATOM     25  C   UNL     1      37.893 -23.140 -15.827  0.00  0.00    +0.013 C 
BRANCH  25  26
ATOM     26  C   UNL     1      37.602 -24.038 -14.646  0.00  0.00    -0.024 C 
ATOM     27  C   UNL     1      37.346 -23.480 -13.394  0.00  0.00    -0.004 C 
ATOM     28  C   UNL     1      37.592 -25.423 -14.809  0.00  0.00    -0.004 C 
ATOM     29  C   UNL     1      37.078 -24.309 -12.304  0.00  0.00    -0.000 C 
ATOM     30  C   UNL     1      37.323 -26.251 -13.720  0.00  0.00    -0.000 C 
ATOM     31  C   UNL     1      37.067 -25.694 -12.467  0.00  0.00    -0.000 C 
ENDBRANCH  25  26
ENDBRANCH  20  25
ENDBRANCH   7  20
TORSDOF 7
ENDMDL
