MODEL 1
REMARK VINA RESULT:     -12.4      0.000      0.000
REMARK  Name = 204109
REMARK  5 active torsions:
REMARK  status: ('A' for Active; 'I' for Inactive)
REMARK    1  A    between atoms: C_1  and  C_20
REMARK    2  A    between atoms: C_9  and  O_11
REMARK    3  A    between atoms: O_11  and  C_12
REMARK    4  A    between atoms: C_12  and  C_14
REMARK    5  A    between atoms: C_20  and  C_25
REMARK                            x       y       z     vdW  Elec       q    Type
REMARK                         _______ _______ _______ _____ _____    ______ ____
ROOT
ATOM      1  C   UNL     1      35.630 -18.554 -21.636  0.00  0.00    -0.021 C 
ATOM      2  C   UNL     1      34.342 -20.192 -20.381  0.00  0.00    -0.000 C 
ATOM      3  C   UNL     1      34.402 -19.096 -21.256  0.00  0.00    -0.004 C 
ATOM      4  C   UNL     1      35.546 -20.746 -19.884  0.00  0.00    +0.003 C 
ATOM      5  C   UNL     1      36.813 -19.099 -21.147  0.00  0.00    -0.004 C 
ATOM      6  C   UNL     1      36.774 -20.189 -20.277  0.00  0.00    -0.000 C 
ATOM      7  C   UNL     1      35.487 -21.843 -19.008  0.00  0.00    +0.037 C 
ATOM      8  C   UNL     1      33.115 -20.751 -19.987  0.00  0.00    +0.003 C 
ATOM      9  C   UNL     1      34.258 -22.385 -18.628  0.00  0.00    +0.139 C 
ATOM     10  C   UNL     1      33.075 -21.840 -19.117  0.00  0.00    +0.037 C 
ENDROOT
BRANCH   9  11
ATOM     11  O   UNL     1      34.217 -23.449 -17.779  0.00  0.00    -0.471 OA
BRANCH  11  12
ATOM     12  C   UNL     1      34.332 -23.172 -16.385  0.00  0.00    +0.234 C 
BRANCH  12  14
ATOM     13  F   UNL     1      34.436 -24.672 -13.991  0.00  0.00    -0.204 F 
ATOM     14  C   UNL     1      33.111 -23.582 -15.633  0.00  0.00    +0.049 C 
ATOM     15  C   UNL     1      33.229 -24.322 -14.457  0.00  0.00    +0.140 C 
ATOM     16  C   UNL     1      31.850 -23.225 -16.109  0.00  0.00    +0.002 C 
ATOM     17  C   UNL     1      32.085 -24.705 -13.756  0.00  0.00    +0.029 C 
ATOM     18  C   UNL     1      30.706 -23.608 -15.409  0.00  0.00    -0.000 C 
ATOM     19  C   UNL     1      30.823 -24.347 -14.232  0.00  0.00    +0.002 C 
ENDBRANCH  12  14
ENDBRANCH  11  12
ENDBRANCH   9  11
BRANCH   1  20
ATOM     20  C   UNL     1      35.674 -17.389 -22.567  0.00  0.00    +0.047 C 
BRANCH  20  25
ATOM     21  S   UNL     1      34.055 -15.738 -24.075  0.00  0.00    -0.048 S 
ATOM     22  O   UNL     1      34.903 -15.554 -20.315  0.00  0.00    -0.274 OA
ATOM     23  O   UNL     1      33.860 -13.117 -24.095  0.00  0.00    -0.263 OA
ATOM     24  N   UNL     1      34.381 -14.166 -22.088  0.00  0.00    -0.246 N 
ATOM     25  C   UNL     1      34.419 -16.524 -22.475  0.00  0.00    +0.137 C 
ATOM     26  C   UNL     1      34.602 -15.390 -21.491  0.00  0.00    +0.239 C 
ATOM     27  C   UNL     1      34.080 -14.114 -23.424  0.00  0.00    +0.279 C 
ATOM     28  H   UNL     1      34.440 -13.338 -21.560  0.00  0.00    +0.158 HD
ENDBRANCH  20  25
ENDBRANCH   1  20
TORSDOF 5
ENDMDL
MODEL 2
REMARK VINA RESULT:     -12.3      1.686      2.563
REMARK  Name = 204109
REMARK  5 active torsions:
REMARK  status: ('A' for Active; 'I' for Inactive)
REMARK    1  A    between atoms: C_1  and  C_20
REMARK    2  A    between atoms: C_9  and  O_11
REMARK    3  A    between atoms: O_11  and  C_12
REMARK    4  A    between atoms: C_12  and  C_14
REMARK    5  A    between atoms: C_20  and  C_25
REMARK                            x       y       z     vdW  Elec       q    Type
REMARK                         _______ _______ _______ _____ _____    ______ ____
ROOT
ATOM      1  C   UNL     1      35.598 -18.579 -21.650  0.00  0.00    -0.021 C 
ATOM      2  C   UNL     1      34.311 -20.207 -20.380  0.00  0.00    -0.000 C 
ATOM      3  C   UNL     1      34.370 -19.117 -21.264  0.00  0.00    -0.004 C 
ATOM      4  C   UNL     1      35.515 -20.758 -19.881  0.00  0.00    +0.003 C 
ATOM      5  C   UNL     1      36.782 -19.121 -21.159  0.00  0.00    -0.004 C 
ATOM      6  C   UNL     1      36.742 -20.205 -20.280  0.00  0.00    -0.000 C 
ATOM      7  C   UNL     1      35.457 -21.848 -18.998  0.00  0.00    +0.037 C 
ATOM      8  C   UNL     1      33.084 -20.761 -19.981  0.00  0.00    +0.003 C 
ATOM      9  C   UNL     1      34.228 -22.386 -18.611  0.00  0.00    +0.139 C 
ATOM     10  C   UNL     1      33.045 -21.844 -19.102  0.00  0.00    +0.037 C 
ENDROOT
BRANCH   9  11
ATOM     11  O   UNL     1      34.187 -23.444 -17.754  0.00  0.00    -0.471 OA
BRANCH  11  12
ATOM     12  C   UNL     1      34.258 -23.153 -16.360  0.00  0.00    +0.234 C 
BRANCH  12  14
ATOM     13  F   UNL     1      36.710 -21.770 -16.115  0.00  0.00    -0.204 F 
ATOM     14  C   UNL     1      35.466 -23.755 -15.727  0.00  0.00    +0.049 C 
ATOM     15  C   UNL     1      36.648 -23.020 -15.636  0.00  0.00    +0.140 C 
ATOM     16  C   UNL     1      35.413 -25.055 -15.226  0.00  0.00    +0.002 C 
ATOM     17  C   UNL     1      37.778 -23.586 -15.043  0.00  0.00    +0.029 C 
ATOM     18  C   UNL     1      36.542 -25.622 -14.633  0.00  0.00    -0.000 C 
ATOM     19  C   UNL     1      37.724 -24.887 -14.541  0.00  0.00    +0.002 C 
ENDBRANCH  12  14
ENDBRANCH  11  12
ENDBRANCH   9  11
BRANCH   1  20
ATOM     20  C   UNL     1      35.642 -17.421 -22.590  0.00  0.00    +0.047 C 
BRANCH  20  25
ATOM     21  S   UNL     1      34.056 -15.710 -24.067  0.00  0.00    -0.048 S 
ATOM     22  O   UNL     1      34.883 -15.630 -20.298  0.00  0.00    -0.274 OA
ATOM     23  O   UNL     1      33.900 -13.087 -24.024  0.00  0.00    -0.263 OA
ATOM     24  N   UNL     1      34.393 -14.192 -22.040  0.00  0.00    -0.246 N 
ATOM     25  C   UNL     1      34.399 -16.540 -22.484  0.00  0.00    +0.137 C 
ATOM     26  C   UNL     1      34.592 -15.433 -21.472  0.00  0.00    +0.239 C 
ATOM     27  C   UNL     1      34.101 -14.103 -23.376  0.00  0.00    +0.279 C 
ATOM     28  H   UNL     1      34.461 -13.378 -21.492  0.00  0.00    +0.158 HD
ENDBRANCH  20  25
ENDBRANCH   1  20
TORSDOF 5
ENDMDL
MODEL 3
REMARK VINA RESULT:     -12.1      1.074      1.665
REMARK  Name = 204109
REMARK  5 active torsions:
REMARK  status: ('A' for Active; 'I' for Inactive)
REMARK    1  A    between atoms: C_1  and  C_20
REMARK    2  A    between atoms: C_9  and  O_11
REMARK    3  A    between atoms: O_11  and  C_12
REMARK    4  A    between atoms: C_12  and  C_14
REMARK    5  A    between atoms: C_20  and  C_25
REMARK                            x       y       z     vdW  Elec       q    Type
REMARK                         _______ _______ _______ _____ _____    ______ ____
ROOT
ATOM      1  C   UNL     1      35.497 -18.245 -22.001  0.00  0.00    -0.021 C 
ATOM      2  C   UNL     1      34.311 -19.929 -20.705  0.00  0.00    -0.000 C 
ATOM      3  C   UNL     1      34.303 -18.837 -21.587  0.00  0.00    -0.004 C 
ATOM      4  C   UNL     1      35.549 -20.429 -20.237  0.00  0.00    +0.003 C 
ATOM      5  C   UNL     1      36.714 -18.737 -21.540  0.00  0.00    -0.004 C 
ATOM      6  C   UNL     1      36.742 -19.823 -20.664  0.00  0.00    -0.000 C 
ATOM      7  C   UNL     1      35.559 -21.522 -19.355  0.00  0.00    +0.037 C 
ATOM      8  C   UNL     1      33.119 -20.536 -20.278  0.00  0.00    +0.003 C 
ATOM      9  C   UNL     1      34.364 -22.113 -18.940  0.00  0.00    +0.139 C 
ATOM     10  C   UNL     1      33.147 -21.621 -19.402  0.00  0.00    +0.037 C 
ENDROOT
BRANCH   9  11
ATOM     11  O   UNL     1      34.389 -23.173 -18.086  0.00  0.00    -0.471 OA
BRANCH  11  12
ATOM     12  C   UNL     1      33.364 -23.233 -17.096  0.00  0.00    +0.234 C 
BRANCH  12  14
ATOM     13  F   UNL     1      31.803 -24.204 -14.949  0.00  0.00    -0.204 F 
ATOM     14  C   UNL     1      33.921 -23.469 -15.733  0.00  0.00    +0.049 C 
ATOM     15  C   UNL     1      33.098 -23.949 -14.714  0.00  0.00    +0.140 C 
ATOM     16  C   UNL     1      35.266 -23.206 -15.477  0.00  0.00    +0.002 C 
ATOM     17  C   UNL     1      33.622 -24.169 -13.439  0.00  0.00    +0.029 C 
ATOM     18  C   UNL     1      35.790 -23.425 -14.202  0.00  0.00    -0.000 C 
ATOM     19  C   UNL     1      34.968 -23.907 -13.184  0.00  0.00    +0.002 C 
ENDBRANCH  12  14
ENDBRANCH  11  12
ENDBRANCH   9  11
BRANCH   1  20
ATOM     20  C   UNL     1      35.468 -17.085 -22.938  0.00  0.00    +0.047 C 
BRANCH  20  25
ATOM     21  S   UNL     1      33.783 -15.331 -24.245  0.00  0.00    -0.048 S 
ATOM     22  O   UNL     1      34.966 -15.302 -20.571  0.00  0.00    -0.274 OA
ATOM     23  O   UNL     1      33.683 -12.706 -24.168  0.00  0.00    -0.263 OA
ATOM     24  N   UNL     1      34.340 -13.839 -22.248  0.00  0.00    -0.246 N 
ATOM     25  C   UNL     1      34.259 -16.182 -22.708  0.00  0.00    +0.137 C 
ATOM     26  C   UNL     1      34.568 -15.088 -21.711  0.00  0.00    +0.239 C 
ATOM     27  C   UNL     1      33.924 -13.731 -23.549  0.00  0.00    +0.279 C 
ATOM     28  H   UNL     1      34.476 -13.031 -21.702  0.00  0.00    +0.158 HD
ENDBRANCH  20  25
ENDBRANCH   1  20
TORSDOF 5
ENDMDL
MODEL 4
REMARK VINA RESULT:     -12.1      4.684      9.763
REMARK  Name = 204109
REMARK  5 active torsions:
REMARK  status: ('A' for Active; 'I' for Inactive)
REMARK    1  A    between atoms: C_1  and  C_20
REMARK    2  A    between atoms: C_9  and  O_11
REMARK    3  A    between atoms: O_11  and  C_12
REMARK    4  A    between atoms: C_12  and  C_14
REMARK    5  A    between atoms: C_20  and  C_25
REMARK                            x       y       z     vdW  Elec       q    Type
REMARK                         _______ _______ _______ _____ _____    ______ ____
ROOT
ATOM      1  C   UNL     1      34.097 -22.518 -18.421  0.00  0.00    -0.021 C 
ATOM      2  C   UNL     1      33.915 -20.756 -20.089  0.00  0.00    -0.000 C 
ATOM      3  C   UNL     1      33.323 -21.741 -19.283  0.00  0.00    -0.004 C 
ATOM      4  C   UNL     1      35.315 -20.557 -20.020  0.00  0.00    +0.003 C 
ATOM      5  C   UNL     1      35.473 -22.322 -18.354  0.00  0.00    -0.004 C 
ATOM      6  C   UNL     1      36.080 -21.347 -19.147  0.00  0.00    -0.000 C 
ATOM      7  C   UNL     1      35.908 -19.572 -20.826  0.00  0.00    +0.037 C 
ATOM      8  C   UNL     1      33.151 -19.966 -20.962  0.00  0.00    +0.003 C 
ATOM      9  C   UNL     1      35.133 -18.795 -21.689  0.00  0.00    +0.139 C 
ATOM     10  C   UNL     1      33.757 -18.992 -21.756  0.00  0.00    +0.037 C 
ENDROOT
BRANCH   9  11
ATOM     11  O   UNL     1      35.722 -17.843 -22.464  0.00  0.00    -0.471 OA
BRANCH  11  12
ATOM     12  C   UNL     1      35.093 -17.535 -23.706  0.00  0.00    +0.234 C 
BRANCH  12  14
ATOM     13  F   UNL     1      33.624 -16.498 -25.886  0.00  0.00    -0.204 F 
ATOM     14  C   UNL     1      34.515 -16.161 -23.711  0.00  0.00    +0.049 C 
ATOM     15  C   UNL     1      33.799 -15.707 -24.819  0.00  0.00    +0.140 C 
ATOM     16  C   UNL     1      34.692 -15.329 -22.606  0.00  0.00    +0.002 C 
ATOM     17  C   UNL     1      33.259 -14.420 -24.821  0.00  0.00    +0.029 C 
ATOM     18  C   UNL     1      34.153 -14.042 -22.608  0.00  0.00    -0.000 C 
ATOM     19  C   UNL     1      33.436 -13.588 -23.714  0.00  0.00    +0.002 C 
ENDBRANCH  12  14
ENDBRANCH  11  12
ENDBRANCH   9  11
BRANCH   1  20
ATOM     20  C   UNL     1      33.451 -23.560 -17.572  0.00  0.00    +0.047 C 
BRANCH  20  25
ATOM     21  S   UNL     1      33.660 -23.924 -14.843  0.00  0.00    -0.048 S 
ATOM     22  O   UNL     1      30.656 -22.667 -16.915  0.00  0.00    -0.274 OA
ATOM     23  O   UNL     1      31.961 -24.987 -13.142  0.00  0.00    -0.263 OA
ATOM     24  N   UNL     1      31.111 -23.843 -14.977  0.00  0.00    -0.246 N 
ATOM     25  C   UNL     1      32.954 -22.999 -16.241  0.00  0.00    +0.137 C 
ATOM     26  C   UNL     1      31.454 -23.135 -16.110  0.00  0.00    +0.239 C 
ATOM     27  C   UNL     1      32.099 -24.343 -14.171  0.00  0.00    +0.279 C 
ATOM     28  H   UNL     1      30.164 -23.988 -14.750  0.00  0.00    +0.158 HD
ENDBRANCH  20  25
ENDBRANCH   1  20
TORSDOF 5
ENDMDL
MODEL 5
REMARK VINA RESULT:     -12.0      4.765     10.880
REMARK  Name = 204109
REMARK  5 active torsions:
REMARK  status: ('A' for Active; 'I' for Inactive)
REMARK    1  A    between atoms: C_1  and  C_20
REMARK    2  A    between atoms: C_9  and  O_11
REMARK    3  A    between atoms: O_11  and  C_12
REMARK    4  A    between atoms: C_12  and  C_14
REMARK    5  A    between atoms: C_20  and  C_25
REMARK                            x       y       z     vdW  Elec       q    Type
REMARK                         _______ _______ _______ _____ _____    ______ ____
ROOT
ATOM      1  C   UNL     1      35.037 -19.043 -22.196  0.00  0.00    -0.021 C 
ATOM      2  C   UNL     1      34.643 -16.644 -22.093  0.00  0.00    -0.000 C 
ATOM      3  C   UNL     1      34.896 -17.870 -21.455  0.00  0.00    -0.004 C 
ATOM      4  C   UNL     1      34.533 -16.610 -23.504  0.00  0.00    +0.003 C 
ATOM      5  C   UNL     1      34.928 -19.008 -23.583  0.00  0.00    -0.004 C 
ATOM      6  C   UNL     1      34.679 -17.800 -24.235  0.00  0.00    -0.000 C 
ATOM      7  C   UNL     1      34.281 -15.385 -24.142  0.00  0.00    +0.037 C 
ATOM      8  C   UNL     1      34.498 -15.453 -21.363  0.00  0.00    +0.003 C 
ATOM      9  C   UNL     1      34.139 -14.211 -23.401  0.00  0.00    +0.139 C 
ATOM     10  C   UNL     1      34.248 -14.246 -22.014  0.00  0.00    +0.037 C 
ENDROOT
BRANCH   9  11
ATOM     11  O   UNL     1      33.896 -13.030 -24.034  0.00  0.00    -0.471 OA
BRANCH  11  12
ATOM     12  C   UNL     1      32.981 -12.134 -23.408  0.00  0.00    +0.234 C 
BRANCH  12  14
ATOM     13  F   UNL     1      31.648 -10.001 -22.119  0.00  0.00    -0.204 F 
ATOM     14  C   UNL     1      33.427 -10.715 -23.521  0.00  0.00    +0.049 C 
ATOM     15  C   UNL     1      32.726  -9.707 -22.859  0.00  0.00    +0.140 C 
ATOM     16  C   UNL     1      34.546 -10.398 -24.289  0.00  0.00    +0.002 C 
ATOM     17  C   UNL     1      33.146  -8.380 -22.966  0.00  0.00    +0.029 C 
ATOM     18  C   UNL     1      34.966  -9.071 -24.397  0.00  0.00    -0.000 C 
ATOM     19  C   UNL     1      34.266  -8.063 -23.735  0.00  0.00    +0.002 C 
ENDBRANCH  12  14
ENDBRANCH  11  12
ENDBRANCH   9  11
BRANCH   1  20
ATOM     20  C   UNL     1      35.305 -20.336 -21.501  0.00  0.00    +0.047 C 
BRANCH  20  25
ATOM     21  S   UNL     1      35.498 -21.620 -19.065  0.00  0.00    -0.048 S 
ATOM     22  O   UNL     1      32.366 -20.269 -20.871  0.00  0.00    -0.274 OA
ATOM     23  O   UNL     1      34.005 -23.519 -18.029  0.00  0.00    -0.263 OA
ATOM     24  N   UNL     1      32.993 -21.964 -19.428  0.00  0.00    -0.246 N 
ATOM     25  C   UNL     1      34.659 -20.396 -20.118  0.00  0.00    +0.137 C 
ATOM     26  C   UNL     1      33.217 -20.843 -20.201  0.00  0.00    +0.239 C 
ATOM     27  C   UNL     1      34.038 -22.532 -18.748  0.00  0.00    +0.279 C 
ATOM     28  H   UNL     1      32.091 -22.352 -19.366  0.00  0.00    +0.158 HD
ENDBRANCH  20  25
ENDBRANCH   1  20
TORSDOF 5
ENDMDL
MODEL 6
REMARK VINA RESULT:     -12.0      4.336      9.238
REMARK  Name = 204109
REMARK  5 active torsions:
REMARK  status: ('A' for Active; 'I' for Inactive)
REMARK    1  A    between atoms: C_1  and  C_20
REMARK    2  A    between atoms: C_9  and  O_11
REMARK    3  A    between atoms: O_11  and  C_12
REMARK    4  A    between atoms: C_12  and  C_14
REMARK    5  A    between atoms: C_20  and  C_25
REMARK                            x       y       z     vdW  Elec       q    Type
REMARK                         _______ _______ _______ _____ _____    ______ ____
ROOT
ATOM      1  C   UNL     1      34.745 -22.028 -18.656  0.00  0.00    -0.021 C 
ATOM      2  C   UNL     1      35.514 -20.339 -20.229  0.00  0.00    -0.000 C 
ATOM      3  C   UNL     1      35.779 -21.287 -19.228  0.00  0.00    -0.004 C 
ATOM      4  C   UNL     1      34.180 -20.140 -20.657  0.00  0.00    +0.003 C 
ATOM      5  C   UNL     1      33.433 -21.832 -19.077  0.00  0.00    -0.004 C 
ATOM      6  C   UNL     1      33.150 -20.895 -20.072  0.00  0.00    -0.000 C 
ATOM      7  C   UNL     1      33.914 -19.192 -21.659  0.00  0.00    +0.037 C 
ATOM      8  C   UNL     1      36.543 -19.584 -20.815  0.00  0.00    +0.003 C 
ATOM      9  C   UNL     1      34.950 -18.450 -22.230  0.00  0.00    +0.139 C 
ATOM     10  C   UNL     1      36.262 -18.647 -21.809  0.00  0.00    +0.037 C 
ENDROOT
BRANCH   9  11
ATOM     11  O   UNL     1      34.677 -17.535 -23.200  0.00  0.00    -0.471 OA
BRANCH  11  12
ATOM     12  C   UNL     1      35.212 -16.225 -23.026  0.00  0.00    +0.234 C 
BRANCH  12  14
ATOM     13  F   UNL     1      34.745 -15.849 -20.264  0.00  0.00    -0.204 F 
ATOM     14  C   UNL     1      34.191 -15.273 -22.501  0.00  0.00    +0.049 C 
ATOM     15  C   UNL     1      34.008 -15.133 -21.125  0.00  0.00    +0.140 C 
ATOM     16  C   UNL     1      33.418 -14.524 -23.387  0.00  0.00    +0.002 C 
ATOM     17  C   UNL     1      33.053 -14.241 -20.636  0.00  0.00    +0.029 C 
ATOM     18  C   UNL     1      32.462 -13.632 -22.898  0.00  0.00    -0.000 C 
ATOM     19  C   UNL     1      32.280 -13.491 -21.523  0.00  0.00    +0.002 C 
ENDBRANCH  12  14
ENDBRANCH  11  12
ENDBRANCH   9  11
BRANCH   1  20
ATOM     20  C   UNL     1      35.045 -23.031 -17.594  0.00  0.00    +0.047 C 
BRANCH  20  25
ATOM     21  S   UNL     1      37.282 -22.566 -16.045  0.00  0.00    -0.048 S 
ATOM     22  O   UNL     1      33.627 -23.135 -14.945  0.00  0.00    -0.274 OA
ATOM     23  O   UNL     1      38.066 -23.716 -13.815  0.00  0.00    -0.263 OA
ATOM     24  N   UNL     1      35.784 -23.502 -14.200  0.00  0.00    -0.246 N 
ATOM     25  C   UNL     1      35.489 -22.377 -16.287  0.00  0.00    +0.137 C 
ATOM     26  C   UNL     1      34.840 -23.038 -15.091  0.00  0.00    +0.239 C 
ATOM     27  C   UNL     1      37.115 -23.359 -14.494  0.00  0.00    +0.279 C 
ATOM     28  H   UNL     1      35.505 -23.934 -13.360  0.00  0.00    +0.158 HD
ENDBRANCH  20  25
ENDBRANCH   1  20
TORSDOF 5
ENDMDL
MODEL 7
REMARK VINA RESULT:     -12.0      5.025     11.056
REMARK  Name = 204109
REMARK  5 active torsions:
REMARK  status: ('A' for Active; 'I' for Inactive)
REMARK    1  A    between atoms: C_1  and  C_20
REMARK    2  A    between atoms: C_9  and  O_11
REMARK    3  A    between atoms: O_11  and  C_12
REMARK    4  A    between atoms: C_12  and  C_14
REMARK    5  A    between atoms: C_20  and  C_25
REMARK                            x       y       z     vdW  Elec       q    Type
REMARK                         _______ _______ _______ _____ _____    ______ ____
ROOT
ATOM      1  C   UNL     1      34.787 -18.520 -22.191  0.00  0.00    -0.021 C 
ATOM      2  C   UNL     1      33.923 -16.273 -21.836  0.00  0.00    -0.000 C 
ATOM      3  C   UNL     1      34.297 -17.532 -21.337  0.00  0.00    -0.004 C 
ATOM      4  C   UNL     1      34.050 -16.014 -23.221  0.00  0.00    +0.003 C 
ATOM      5  C   UNL     1      34.911 -18.264 -23.553  0.00  0.00    -0.004 C 
ATOM      6  C   UNL     1      34.546 -17.019 -24.067  0.00  0.00    -0.000 C 
ATOM      7  C   UNL     1      33.677 -14.755 -23.721  0.00  0.00    +0.037 C 
ATOM      8  C   UNL     1      33.427 -15.267 -20.991  0.00  0.00    +0.003 C 
ATOM      9  C   UNL     1      33.186 -13.767 -22.866  0.00  0.00    +0.139 C 
ATOM     10  C   UNL     1      33.062 -14.023 -21.504  0.00  0.00    +0.037 C 
ENDROOT
BRANCH   9  11
ATOM     11  O   UNL     1      32.829 -12.551 -23.365  0.00  0.00    -0.471 OA
BRANCH  11  12
ATOM     12  C   UNL     1      33.808 -11.849 -24.128  0.00  0.00    +0.234 C 
BRANCH  12  14
ATOM     13  F   UNL     1      35.780 -10.084 -25.119  0.00  0.00    -0.204 F 
ATOM     14  C   UNL     1      33.827 -10.394 -23.805  0.00  0.00    +0.049 C 
ATOM     15  C   UNL     1      34.828  -9.574 -24.326  0.00  0.00    +0.140 C 
ATOM     16  C   UNL     1      32.841  -9.853 -22.980  0.00  0.00    +0.002 C 
ATOM     17  C   UNL     1      34.843  -8.212 -24.022  0.00  0.00    +0.029 C 
ATOM     18  C   UNL     1      32.856  -8.491 -22.675  0.00  0.00    -0.000 C 
ATOM     19  C   UNL     1      33.856  -7.671 -23.196  0.00  0.00    +0.002 C 
ENDBRANCH  12  14
ENDBRANCH  11  12
ENDBRANCH   9  11
BRANCH   1  20
ATOM     20  C   UNL     1      35.179 -19.851 -21.643  0.00  0.00    +0.047 C 
BRANCH  20  25
ATOM     21  S   UNL     1      35.509 -21.380 -19.368  0.00  0.00    -0.048 S 
ATOM     22  O   UNL     1      32.253 -20.106 -21.003  0.00  0.00    -0.274 OA
ATOM     23  O   UNL     1      34.193 -23.504 -18.551  0.00  0.00    -0.263 OA
ATOM     24  N   UNL     1      33.038 -21.893 -19.763  0.00  0.00    -0.246 N 
ATOM     25  C   UNL     1      34.558 -20.122 -20.275  0.00  0.00    +0.137 C 
ATOM     26  C   UNL     1      33.157 -20.678 -20.404  0.00  0.00    +0.239 C 
ATOM     27  C   UNL     1      34.135 -22.443 -19.154  0.00  0.00    +0.279 C 
ATOM     28  H   UNL     1      32.172 -22.361 -19.744  0.00  0.00    +0.158 HD
ENDBRANCH  20  25
ENDBRANCH   1  20
TORSDOF 5
ENDMDL
MODEL 8
REMARK VINA RESULT:     -11.9      5.094     10.079
REMARK  Name = 204109
REMARK  5 active torsions:
REMARK  status: ('A' for Active; 'I' for Inactive)
REMARK    1  A    between atoms: C_1  and  C_20
REMARK    2  A    between atoms: C_9  and  O_11
REMARK    3  A    between atoms: O_11  and  C_12
REMARK    4  A    between atoms: C_12  and  C_14
REMARK    5  A    between atoms: C_20  and  C_25
REMARK                            x       y       z     vdW  Elec       q    Type
REMARK                         _______ _______ _______ _____ _____    ______ ____
ROOT
ATOM      1  C   UNL     1      36.052 -22.673 -16.891  0.00  0.00    -0.021 C 
ATOM      2  C   UNL     1      36.167 -21.237 -18.852  0.00  0.00    -0.000 C 
ATOM      3  C   UNL     1      36.774 -21.824 -17.729  0.00  0.00    -0.004 C 
ATOM      4  C   UNL     1      34.808 -21.518 -19.128  0.00  0.00    +0.003 C 
ATOM      5  C   UNL     1      34.715 -22.948 -17.163  0.00  0.00    -0.004 C 
ATOM      6  C   UNL     1      34.095 -22.376 -18.275  0.00  0.00    -0.000 C 
ATOM      7  C   UNL     1      34.201 -20.932 -20.251  0.00  0.00    +0.037 C 
ATOM      8  C   UNL     1      36.879 -20.380 -19.706  0.00  0.00    +0.003 C 
ATOM      9  C   UNL     1      34.924 -20.082 -21.089  0.00  0.00    +0.139 C 
ATOM     10  C   UNL     1      36.261 -19.807 -20.817  0.00  0.00    +0.037 C 
ENDROOT
BRANCH   9  11
ATOM     11  O   UNL     1      34.322 -19.522 -22.175  0.00  0.00    -0.471 OA
BRANCH  11  12
ATOM     12  C   UNL     1      35.173 -19.019 -23.202  0.00  0.00    +0.234 C 
BRANCH  12  14
ATOM     13  F   UNL     1      35.220 -16.760 -21.504  0.00  0.00    -0.204 F 
ATOM     14  C   UNL     1      34.757 -17.659 -23.652  0.00  0.00    +0.049 C 
ATOM     15  C   UNL     1      34.803 -16.584 -22.766  0.00  0.00    +0.140 C 
ATOM     16  C   UNL     1      34.322 -17.465 -24.963  0.00  0.00    +0.002 C 
ATOM     17  C   UNL     1      34.414 -15.313 -23.190  0.00  0.00    +0.029 C 
ATOM     18  C   UNL     1      33.932 -16.194 -25.387  0.00  0.00    -0.000 C 
ATOM     19  C   UNL     1      33.978 -15.118 -24.501  0.00  0.00    +0.002 C 
ENDBRANCH  12  14
ENDBRANCH  11  12
ENDBRANCH   9  11
BRANCH   1  20
ATOM     20  C   UNL     1      36.712 -23.286 -15.703  0.00  0.00    +0.047 C 
BRANCH  20  25
ATOM     21  S   UNL     1      35.668 -23.555 -13.161  0.00  0.00    -0.048 S 
ATOM     22  O   UNL     1      36.429 -26.278 -15.788  0.00  0.00    -0.274 OA
ATOM     23  O   UNL     1      36.223 -25.305 -11.279  0.00  0.00    -0.263 OA
ATOM     24  N   UNL     1      36.370 -25.988 -13.495  0.00  0.00    -0.246 N 
ATOM     25  C   UNL     1      35.751 -24.143 -14.881  0.00  0.00    +0.137 C 
ATOM     26  C   UNL     1      36.219 -25.579 -14.804  0.00  0.00    +0.239 C 
ATOM     27  C   UNL     1      36.133 -25.099 -12.480  0.00  0.00    +0.279 C 
ATOM     28  H   UNL     1      36.646 -26.911 -13.292  0.00  0.00    +0.158 HD
ENDBRANCH  20  25
ENDBRANCH   1  20
TORSDOF 5
ENDMDL
MODEL 9
REMARK VINA RESULT:     -11.9      5.097      9.912
REMARK  Name = 204109
REMARK  5 active torsions:
REMARK  status: ('A' for Active; 'I' for Inactive)
REMARK    1  A    between atoms: C_1  and  C_20
REMARK    2  A    between atoms: C_9  and  O_11
REMARK    3  A    between atoms: O_11  and  C_12
REMARK    4  A    between atoms: C_12  and  C_14
REMARK    5  A    between atoms: C_20  and  C_25
REMARK                            x       y       z     vdW  Elec       q    Type
REMARK                         _______ _______ _______ _____ _____    ______ ____
ROOT
ATOM      1  C   UNL     1      34.716 -23.473 -16.508  0.00  0.00    -0.021 C 
ATOM      2  C   UNL     1      35.423 -21.961 -18.279  0.00  0.00    -0.000 C 
ATOM      3  C   UNL     1      35.720 -22.758 -17.161  0.00  0.00    -0.004 C 
ATOM      4  C   UNL     1      34.087 -21.889 -18.741  0.00  0.00    +0.003 C 
ATOM      5  C   UNL     1      33.402 -23.401 -16.963  0.00  0.00    -0.004 C 
ATOM      6  C   UNL     1      33.088 -22.616 -18.073  0.00  0.00    -0.000 C 
ATOM      7  C   UNL     1      33.790 -21.094 -19.859  0.00  0.00    +0.037 C 
ATOM      8  C   UNL     1      36.421 -21.235 -18.948  0.00  0.00    +0.003 C 
ATOM      9  C   UNL     1      34.795 -20.378 -20.511  0.00  0.00    +0.139 C 
ATOM     10  C   UNL     1      36.108 -20.450 -20.057  0.00  0.00    +0.037 C 
ENDROOT
BRANCH   9  11
ATOM     11  O   UNL     1      34.491 -19.611 -21.595  0.00  0.00    -0.471 OA
BRANCH  11  12
ATOM     12  C   UNL     1      35.521 -18.763 -22.099  0.00  0.00    +0.234 C 
BRANCH  12  14
ATOM     13  F   UNL     1      35.226 -17.231 -24.456  0.00  0.00    -0.204 F 
ATOM     14  C   UNL     1      35.116 -17.328 -22.086  0.00  0.00    +0.049 C 
ATOM     15  C   UNL     1      34.988 -16.626 -23.284  0.00  0.00    +0.140 C 
ATOM     16  C   UNL     1      34.867 -16.688 -20.872  0.00  0.00    +0.002 C 
ATOM     17  C   UNL     1      34.609 -15.283 -23.269  0.00  0.00    +0.029 C 
ATOM     18  C   UNL     1      34.489 -15.345 -20.856  0.00  0.00    -0.000 C 
ATOM     19  C   UNL     1      34.359 -14.643 -22.054  0.00  0.00    +0.002 C 
ENDBRANCH  12  14
ENDBRANCH  11  12
ENDBRANCH   9  11
BRANCH   1  20
ATOM     20  C   UNL     1      35.050 -24.314 -15.322  0.00  0.00    +0.047 C 
BRANCH  20  25
ATOM     21  S   UNL     1      37.114 -23.570 -13.646  0.00  0.00    -0.048 S 
ATOM     22  O   UNL     1      33.379 -24.106 -12.831  0.00  0.00    -0.274 OA
ATOM     23  O   UNL     1      37.696 -24.381 -11.214  0.00  0.00    -0.263 OA
ATOM     24  N   UNL     1      35.459 -24.297 -11.841  0.00  0.00    -0.246 N 
ATOM     25  C   UNL     1      35.349 -23.475 -14.081  0.00  0.00    +0.137 C 
ATOM     26  C   UNL     1      34.599 -23.989 -12.873  0.00  0.00    +0.239 C 
ATOM     27  C   UNL     1      36.809 -24.151 -12.023  0.00  0.00    +0.279 C 
ATOM     28  H   UNL     1      35.107 -24.620 -10.980  0.00  0.00    +0.158 HD
ENDBRANCH  20  25
ENDBRANCH   1  20
TORSDOF 5
ENDMDL
