MODEL 1
REMARK VINA RESULT:      -7.6      0.000      0.000
REMARK  Name = 27812
REMARK  3 active torsions:
REMARK  status: ('A' for Active; 'I' for Inactive)
REMARK    1  A    between atoms: C_2  and  C_21
REMARK    2  A    between atoms: C_5  and  O_19
REMARK    3  A    between atoms: C_5  and  C_23
REMARK                            x       y       z     vdW  Elec       q    Type
REMARK                         _______ _______ _______ _____ _____    ______ ____
ROOT
ATOM      1  O   UNL     1      28.589 -22.126 -15.485  0.00  0.00    -0.291 OA
ATOM      2  C   UNL     1      36.479 -24.796 -14.355  0.00  0.00    +0.052 C 
ATOM      3  C   UNL     1      35.964 -23.602 -15.200  0.00  0.00    +0.011 C 
ATOM      4  C   UNL     1      34.677 -23.953 -15.950  0.00  0.00    +0.023 C 
ATOM      5  C   UNL     1      37.767 -24.161 -13.757  0.00  0.00    +0.145 C 
ATOM      6  C   UNL     1      37.202 -23.148 -15.961  0.00  0.00    +0.004 C 
ATOM      7  C   UNL     1      38.356 -23.370 -14.958  0.00  0.00    +0.040 C 
ATOM      8  C   UNL     1      33.586 -24.306 -14.917  0.00  0.00    -0.027 C 
ATOM      9  C   UNL     1      35.365 -25.217 -13.427  0.00  0.00    -0.024 C 
ATOM     10  C   UNL     1      34.248 -22.832 -16.903  0.00  0.00    +0.009 C 
ATOM     11  C   UNL     1      34.069 -25.000 -13.712  0.00  0.00    -0.009 C 
ATOM     12  C   UNL     1      32.287 -23.965 -15.119  0.00  0.00    -0.030 C 
ATOM     13  C   UNL     1      32.864 -23.141 -17.458  0.00  0.00    +0.026 C 
ATOM     14  C   UNL     1      31.866 -23.240 -16.331  0.00  0.00    -0.024 C 
ATOM     15  C   UNL     1      31.142 -24.296 -14.178  0.00  0.00    +0.034 C 
ATOM     16  C   UNL     1      30.666 -22.650 -16.458  0.00  0.00    +0.033 C 
ATOM     17  C   UNL     1      30.177 -23.131 -13.997  0.00  0.00    +0.074 C 
ATOM     18  C   UNL     1      29.703 -22.621 -15.332  0.00  0.00    +0.173 C 
ENDROOT
BRANCH   5  19
ATOM     19  O   UNL     1      38.710 -25.136 -13.334  0.00  0.00    -0.375 OA
ATOM     20  H   UNL     1      39.598 -24.745 -13.324  0.00  0.00    +0.211 HD
ENDBRANCH   5  19
BRANCH   2  21
ATOM     21  C   UNL     1      36.838 -26.059 -15.184  0.00  0.00    +0.007 C 
ATOM     22  C   UNL     1      36.845 -27.283 -14.304  0.00  0.00    +0.000 C 
ENDBRANCH   2  21
BRANCH   5  23
ATOM     23  C   UNL     1      37.497 -23.251 -12.624  0.00  0.00    -0.052 C 
ATOM     24  C   UNL     1      37.276 -22.513 -11.704  0.00  0.00    -0.012 C 
ENDBRANCH   5  23
TORSDOF 3
ENDMDL
MODEL 2
REMARK VINA RESULT:      -7.3     14.057     16.556
REMARK  Name = 27812
REMARK  3 active torsions:
REMARK  status: ('A' for Active; 'I' for Inactive)
REMARK    1  A    between atoms: C_2  and  C_21
REMARK    2  A    between atoms: C_5  and  O_19
REMARK    3  A    between atoms: C_5  and  C_23
REMARK                            x       y       z     vdW  Elec       q    Type
REMARK                         _______ _______ _______ _____ _____    ______ ____
ROOT
ATOM      1  O   UNL     1      33.781 -16.300 -21.061  0.00  0.00    -0.291 OA
ATOM      2  C   UNL     1      32.044  -8.316 -23.034  0.00  0.00    +0.052 C 
ATOM      3  C   UNL     1      32.454  -8.916 -21.664  0.00  0.00    +0.011 C 
ATOM      4  C   UNL     1      31.772 -10.262 -21.409  0.00  0.00    +0.023 C 
ATOM      5  C   UNL     1      32.850  -6.986 -22.991  0.00  0.00    +0.145 C 
ATOM      6  C   UNL     1      32.259  -7.756 -20.698  0.00  0.00    +0.004 C 
ATOM      7  C   UNL     1      32.667  -6.514 -21.521  0.00  0.00    +0.040 C 
ATOM      8  C   UNL     1      32.210 -11.252 -22.509  0.00  0.00    -0.027 C 
ATOM      9  C   UNL     1      32.365  -9.337 -24.098  0.00  0.00    -0.024 C 
ATOM     10  C   UNL     1      32.052 -10.785 -19.997  0.00  0.00    +0.009 C 
ATOM     11  C   UNL     1      32.416 -10.656 -23.839  0.00  0.00    -0.009 C 
ATOM     12  C   UNL     1      32.410 -12.567 -22.235  0.00  0.00    -0.030 C 
ATOM     13  C   UNL     1      31.531 -12.210 -19.872  0.00  0.00    +0.026 C 
ATOM     14  C   UNL     1      32.220 -13.102 -20.875  0.00  0.00    -0.024 C 
ATOM     15  C   UNL     1      32.810 -13.620 -23.253  0.00  0.00    +0.034 C 
ATOM     16  C   UNL     1      32.654 -14.315 -20.492  0.00  0.00    +0.033 C 
ATOM     17  C   UNL     1      33.871 -14.576 -22.723  0.00  0.00    +0.074 C 
ATOM     18  C   UNL     1      33.440 -15.172 -21.410  0.00  0.00    +0.173 C 
ENDROOT
BRANCH   5  19
ATOM     19  O   UNL     1      32.319  -5.998 -23.866  0.00  0.00    -0.375 OA
ATOM     20  H   UNL     1      31.497  -5.643 -23.492  0.00  0.00    +0.211 HD
ENDBRANCH   5  19
BRANCH   2  21
ATOM     21  C   UNL     1      30.526  -8.021 -23.175  0.00  0.00    +0.007 C 
ATOM     22  C   UNL     1      30.173  -7.754 -24.616  0.00  0.00    +0.000 C 
ENDBRANCH   2  21
BRANCH   5  23
ATOM     23  C   UNL     1      34.283  -7.161 -23.301  0.00  0.00    -0.052 C 
ATOM     24  C   UNL     1      35.448  -7.305 -23.554  0.00  0.00    -0.012 C 
ENDBRANCH   5  23
TORSDOF 3
ENDMDL
MODEL 3
REMARK VINA RESULT:      -7.2      5.538      8.646
REMARK  Name = 27812
REMARK  3 active torsions:
REMARK  status: ('A' for Active; 'I' for Inactive)
REMARK    1  A    between atoms: C_2  and  C_21
REMARK    2  A    between atoms: C_5  and  O_19
REMARK    3  A    between atoms: C_5  and  C_23
REMARK                            x       y       z     vdW  Elec       q    Type
REMARK                         _______ _______ _______ _____ _____    ______ ____
ROOT
ATOM      1  O   UNL     1      36.404 -23.559 -15.144  0.00  0.00    -0.291 OA
ATOM      2  C   UNL     1      34.668 -18.614 -21.716  0.00  0.00    +0.052 C 
ATOM      3  C   UNL     1      33.719 -19.126 -20.601  0.00  0.00    +0.011 C 
ATOM      4  C   UNL     1      34.001 -20.586 -20.244  0.00  0.00    +0.023 C 
ATOM      5  C   UNL     1      34.133 -17.161 -21.872  0.00  0.00    +0.145 C 
ATOM      6  C   UNL     1      32.340 -18.704 -21.090  0.00  0.00    +0.004 C 
ATOM      7  C   UNL     1      32.592 -17.346 -21.783  0.00  0.00    +0.040 C 
ATOM      8  C   UNL     1      35.449 -20.693 -19.718  0.00  0.00    -0.027 C 
ATOM      9  C   UNL     1      36.086 -18.830 -21.247  0.00  0.00    -0.024 C 
ATOM     10  C   UNL     1      32.971 -21.142 -19.256  0.00  0.00    +0.009 C 
ATOM     11  C   UNL     1      36.414 -19.786 -20.359  0.00  0.00    -0.009 C 
ATOM     12  C   UNL     1      35.773 -21.552 -18.716  0.00  0.00    -0.030 C 
ATOM     13  C   UNL     1      33.418 -22.517 -18.777  0.00  0.00    +0.026 C 
ATOM     14  C   UNL     1      34.756 -22.414 -18.088  0.00  0.00    -0.024 C 
ATOM     15  C   UNL     1      37.170 -21.749 -18.155  0.00  0.00    +0.034 C 
ATOM     16  C   UNL     1      34.959 -23.074 -16.935  0.00  0.00    +0.033 C 
ATOM     17  C   UNL     1      37.183 -21.852 -16.636  0.00  0.00    +0.074 C 
ATOM     18  C   UNL     1      36.214 -22.905 -16.167  0.00  0.00    +0.173 C 
ENDROOT
BRANCH   5  19
ATOM     19  O   UNL     1      34.462 -16.592 -23.133  0.00  0.00    -0.375 OA
ATOM     20  H   UNL     1      34.071 -17.128 -23.841  0.00  0.00    +0.211 HD
ENDBRANCH   5  19
BRANCH   2  21
ATOM     21  C   UNL     1      34.546 -19.379 -23.062  0.00  0.00    +0.007 C 
ATOM     22  C   UNL     1      35.675 -19.001 -23.987  0.00  0.00    +0.000 C 
ENDBRANCH   2  21
BRANCH   5  23
ATOM     23  C   UNL     1      34.604 -16.249 -20.811  0.00  0.00    -0.052 C 
ATOM     24  C   UNL     1      34.986 -15.507 -19.947  0.00  0.00    -0.012 C 
ENDBRANCH   5  23
TORSDOF 3
ENDMDL
MODEL 4
REMARK VINA RESULT:      -7.0      2.820      4.645
REMARK  Name = 27812
REMARK  3 active torsions:
REMARK  status: ('A' for Active; 'I' for Inactive)
REMARK    1  A    between atoms: C_2  and  C_21
REMARK    2  A    between atoms: C_5  and  O_19
REMARK    3  A    between atoms: C_5  and  C_23
REMARK                            x       y       z     vdW  Elec       q    Type
REMARK                         _______ _______ _______ _____ _____    ______ ____
ROOT
ATOM      1  O   UNL     1      35.169 -20.757 -21.213  0.00  0.00    -0.291 OA
ATOM      2  C   UNL     1      37.202 -24.288 -13.861  0.00  0.00    +0.052 C 
ATOM      3  C   UNL     1      36.341 -24.863 -15.015  0.00  0.00    +0.011 C 
ATOM      4  C   UNL     1      35.421 -23.800 -15.619  0.00  0.00    +0.023 C 
ATOM      5  C   UNL     1      37.983 -25.569 -13.449  0.00  0.00    +0.145 C 
ATOM      6  C   UNL     1      35.761 -26.139 -14.421  0.00  0.00    +0.004 C 
ATOM      7  C   UNL     1      36.894 -26.678 -13.520  0.00  0.00    +0.040 C 
ATOM      8  C   UNL     1      36.293 -22.666 -16.200  0.00  0.00    -0.027 C 
ATOM      9  C   UNL     1      37.965 -23.103 -14.402  0.00  0.00    -0.024 C 
ATOM     10  C   UNL     1      34.461 -24.397 -16.654  0.00  0.00    +0.009 C 
ATOM     11  C   UNL     1      37.524 -22.379 -15.447  0.00  0.00    -0.009 C 
ATOM     12  C   UNL     1      35.939 -22.018 -17.339  0.00  0.00    -0.030 C 
ATOM     13  C   UNL     1      33.724 -23.272 -17.368  0.00  0.00    +0.026 C 
ATOM     14  C   UNL     1      34.709 -22.372 -18.070  0.00  0.00    -0.024 C 
ATOM     15  C   UNL     1      36.713 -20.873 -17.968  0.00  0.00    +0.034 C 
ATOM     16  C   UNL     1      34.451 -21.959 -19.323  0.00  0.00    +0.033 C 
ATOM     17  C   UNL     1      36.811 -20.993 -19.483  0.00  0.00    +0.074 C 
ATOM     18  C   UNL     1      35.445 -21.173 -20.091  0.00  0.00    +0.173 C 
ENDROOT
BRANCH   5  19
ATOM     19  O   UNL     1      38.488 -25.497 -12.122  0.00  0.00    -0.375 OA
ATOM     20  H   UNL     1      39.133 -24.775 -12.061  0.00  0.00    +0.211 HD
ENDBRANCH   5  19
BRANCH   2  21
ATOM     21  C   UNL     1      36.382 -23.748 -12.658  0.00  0.00    +0.007 C 
ATOM     22  C   UNL     1      37.220 -22.811 -11.827  0.00  0.00    +0.000 C 
ENDBRANCH   2  21
BRANCH   5  23
ATOM     23  C   UNL     1      39.102 -25.888 -14.358  0.00  0.00    -0.052 C 
ATOM     24  C   UNL     1      40.012 -26.148 -15.097  0.00  0.00    -0.012 C 
ENDBRANCH   5  23
TORSDOF 3
ENDMDL
MODEL 5
REMARK VINA RESULT:      -6.9      1.347      3.213
REMARK  Name = 27812
REMARK  3 active torsions:
REMARK  status: ('A' for Active; 'I' for Inactive)
REMARK    1  A    between atoms: C_2  and  C_21
REMARK    2  A    between atoms: C_5  and  O_19
REMARK    3  A    between atoms: C_5  and  C_23
REMARK                            x       y       z     vdW  Elec       q    Type
REMARK                         _______ _______ _______ _____ _____    ______ ____
ROOT
ATOM      1  O   UNL     1      27.800 -23.550 -15.794  0.00  0.00    -0.291 OA
ATOM      2  C   UNL     1      36.153 -23.977 -14.953  0.00  0.00    +0.052 C 
ATOM      3  C   UNL     1      35.048 -24.391 -13.947  0.00  0.00    +0.011 C 
ATOM      4  C   UNL     1      33.893 -23.387 -13.930  0.00  0.00    +0.023 C 
ATOM      5  C   UNL     1      37.165 -25.137 -14.726  0.00  0.00    +0.145 C 
ATOM      6  C   UNL     1      35.826 -24.694 -12.674  0.00  0.00    +0.004 C 
ATOM      7  C   UNL     1      37.142 -25.323 -13.183  0.00  0.00    +0.040 C 
ATOM      8  C   UNL     1      33.259 -23.344 -15.337  0.00  0.00    -0.027 C 
ATOM      9  C   UNL     1      35.506 -23.818 -16.308  0.00  0.00    -0.024 C 
ATOM     10  C   UNL     1      32.874 -23.708 -12.832  0.00  0.00    +0.009 C 
ATOM     11  C   UNL     1      34.203 -23.516 -16.453  0.00  0.00    -0.009 C 
ATOM     12  C   UNL     1      31.920 -23.185 -15.502  0.00  0.00    -0.030 C 
ATOM     13  C   UNL     1      31.653 -22.814 -12.997  0.00  0.00    +0.026 C 
ATOM     14  C   UNL     1      31.017 -23.050 -14.345  0.00  0.00    -0.024 C 
ATOM     15  C   UNL     1      31.211 -23.098 -16.842  0.00  0.00    +0.034 C 
ATOM     16  C   UNL     1      29.681 -23.159 -14.435  0.00  0.00    +0.033 C 
ATOM     17  C   UNL     1      29.914 -23.897 -16.871  0.00  0.00    +0.074 C 
ATOM     18  C   UNL     1      29.026 -23.510 -15.717  0.00  0.00    +0.173 C 
ENDROOT
BRANCH   5  19
ATOM     19  O   UNL     1      38.484 -24.797 -15.134  0.00  0.00    -0.375 OA
ATOM     20  H   UNL     1      39.111 -25.036 -14.433  0.00  0.00    +0.211 HD
ENDBRANCH   5  19
BRANCH   2  21
ATOM     21  C   UNL     1      36.823 -22.610 -14.642  0.00  0.00    +0.007 C 
ATOM     22  C   UNL     1      37.206 -21.909 -15.920  0.00  0.00    +0.000 C 
ENDBRANCH   2  21
BRANCH   5  23
ATOM     23  C   UNL     1      36.776 -26.391 -15.402  0.00  0.00    -0.052 C 
ATOM     24  C   UNL     1      36.459 -27.410 -15.952  0.00  0.00    -0.012 C 
ENDBRANCH   5  23
TORSDOF 3
ENDMDL
MODEL 6
REMARK VINA RESULT:      -6.7     19.630     21.957
REMARK  Name = 27812
REMARK  3 active torsions:
REMARK  status: ('A' for Active; 'I' for Inactive)
REMARK    1  A    between atoms: C_2  and  C_21
REMARK    2  A    between atoms: C_5  and  O_19
REMARK    3  A    between atoms: C_5  and  C_23
REMARK                            x       y       z     vdW  Elec       q    Type
REMARK                         _______ _______ _______ _____ _____    ______ ____
ROOT
ATOM      1  O   UNL     1      31.359 -10.358 -22.126  0.00  0.00    -0.291 OA
ATOM      2  C   UNL     1      33.279  -3.754 -26.958  0.00  0.00    +0.052 C 
ATOM      3  C   UNL     1      34.070  -5.071 -26.746  0.00  0.00    +0.011 C 
ATOM      4  C   UNL     1      34.044  -5.516 -25.282  0.00  0.00    +0.023 C 
ATOM      5  C   UNL     1      33.507  -3.553 -28.485  0.00  0.00    +0.145 C 
ATOM      6  C   UNL     1      35.394  -4.805 -27.449  0.00  0.00    +0.004 C 
ATOM      7  C   UNL     1      35.000  -3.943 -28.669  0.00  0.00    +0.040 C 
ATOM      8  C   UNL     1      32.579  -5.774 -24.871  0.00  0.00    -0.027 C 
ATOM      9  C   UNL     1      31.876  -3.972 -26.445  0.00  0.00    -0.024 C 
ATOM     10  C   UNL     1      34.948  -6.729 -25.038  0.00  0.00    +0.009 C 
ATOM     11  C   UNL     1      31.591  -4.877 -25.492  0.00  0.00    -0.009 C 
ATOM     12  C   UNL     1      32.251  -6.779 -24.019  0.00  0.00    -0.030 C 
ATOM     13  C   UNL     1      34.722  -7.253 -23.627  0.00  0.00    +0.026 C 
ATOM     14  C   UNL     1      33.282  -7.669 -23.454  0.00  0.00    -0.024 C 
ATOM     15  C   UNL     1      30.847  -7.089 -23.535  0.00  0.00    +0.034 C 
ATOM     16  C   UNL     1      32.998  -8.825 -22.832  0.00  0.00    +0.033 C 
ATOM     17  C   UNL     1      30.548  -8.583 -23.518  0.00  0.00    +0.074 C 
ATOM     18  C   UNL     1      31.606  -9.327 -22.747  0.00  0.00    +0.173 C 
ENDROOT
BRANCH   5  19
ATOM     19  O   UNL     1      33.325  -2.202 -28.889  0.00  0.00    -0.375 OA
ATOM     20  H   UNL     1      33.997  -1.970 -29.550  0.00  0.00    +0.211 HD
ENDBRANCH   5  19
BRANCH   2  21
ATOM     21  C   UNL     1      33.835  -2.538 -26.167  0.00  0.00    +0.007 C 
ATOM     22  C   UNL     1      32.712  -1.787 -25.499  0.00  0.00    +0.000 C 
ENDBRANCH   2  21
BRANCH   5  23
ATOM     23  C   UNL     1      32.643  -4.411 -29.321  0.00  0.00    -0.052 C 
ATOM     24  C   UNL     1      31.941  -5.109 -30.000  0.00  0.00    -0.012 C 
ENDBRANCH   5  23
TORSDOF 3
ENDMDL
MODEL 7
REMARK VINA RESULT:      -6.3      3.229      5.083
REMARK  Name = 27812
REMARK  3 active torsions:
REMARK  status: ('A' for Active; 'I' for Inactive)
REMARK    1  A    between atoms: C_2  and  C_21
REMARK    2  A    between atoms: C_5  and  O_19
REMARK    3  A    between atoms: C_5  and  C_23
REMARK                            x       y       z     vdW  Elec       q    Type
REMARK                         _______ _______ _______ _____ _____    ______ ____
ROOT
ATOM      1  O   UNL     1      35.255 -19.023 -21.595  0.00  0.00    -0.291 OA
ATOM      2  C   UNL     1      33.957 -24.221 -15.118  0.00  0.00    +0.052 C 
ATOM      3  C   UNL     1      34.891 -22.986 -15.207  0.00  0.00    +0.011 C 
ATOM      4  C   UNL     1      35.605 -22.913 -16.558  0.00  0.00    +0.023 C 
ATOM      5  C   UNL     1      33.417 -24.040 -13.670  0.00  0.00    +0.145 C 
ATOM      6  C   UNL     1      35.692 -23.055 -13.914  0.00  0.00    +0.004 C 
ATOM      7  C   UNL     1      34.680 -23.597 -12.880  0.00  0.00    +0.040 C 
ATOM      8  C   UNL     1      34.542 -22.782 -17.670  0.00  0.00    -0.027 C 
ATOM      9  C   UNL     1      32.993 -24.153 -16.278  0.00  0.00    -0.024 C 
ATOM     10  C   UNL     1      36.641 -21.784 -16.596  0.00  0.00    +0.009 C 
ATOM     11  C   UNL     1      33.288 -23.513 -17.423  0.00  0.00    -0.009 C 
ATOM     12  C   UNL     1      34.763 -22.019 -18.772  0.00  0.00    -0.030 C 
ATOM     13  C   UNL     1      37.163 -21.624 -18.018  0.00  0.00    +0.026 C 
ATOM     14  C   UNL     1      36.027 -21.282 -18.950  0.00  0.00    -0.024 C 
ATOM     15  C   UNL     1      33.794 -21.855 -19.929  0.00  0.00    +0.034 C 
ATOM     16  C   UNL     1      36.194 -20.316 -19.869  0.00  0.00    +0.033 C 
ATOM     17  C   UNL     1      33.700 -20.415 -20.415  0.00  0.00    +0.074 C 
ATOM     18  C   UNL     1      35.069 -19.868 -20.722  0.00  0.00    +0.173 C 
ENDROOT
BRANCH   5  19
ATOM     19  O   UNL     1      32.923 -25.253 -13.117  0.00  0.00    -0.375 OA
ATOM     20  H   UNL     1      33.299 -25.381 -12.232  0.00  0.00    +0.211 HD
ENDBRANCH   5  19
BRANCH   2  21
ATOM     21  C   UNL     1      34.686 -25.586 -15.253  0.00  0.00    +0.007 C 
ATOM     22  C   UNL     1      36.162 -25.423 -14.995  0.00  0.00    +0.000 C 
ENDBRANCH   2  21
BRANCH   5  23
ATOM     23  C   UNL     1      32.359 -23.015 -13.566  0.00  0.00    -0.052 C 
ATOM     24  C   UNL     1      31.499 -22.181 -13.482  0.00  0.00    -0.012 C 
ENDBRANCH   5  23
TORSDOF 3
ENDMDL
MODEL 8
REMARK VINA RESULT:      -6.2      2.674      3.758
REMARK  Name = 27812
REMARK  3 active torsions:
REMARK  status: ('A' for Active; 'I' for Inactive)
REMARK    1  A    between atoms: C_2  and  C_21
REMARK    2  A    between atoms: C_5  and  O_19
REMARK    3  A    between atoms: C_5  and  C_23
REMARK                            x       y       z     vdW  Elec       q    Type
REMARK                         _______ _______ _______ _____ _____    ______ ____
ROOT
ATOM      1  O   UNL     1      33.312 -20.114 -20.666  0.00  0.00    -0.291 OA
ATOM      2  C   UNL     1      36.228 -24.672 -14.233  0.00  0.00    +0.052 C 
ATOM      3  C   UNL     1      36.559 -23.207 -14.621  0.00  0.00    +0.011 C 
ATOM      4  C   UNL     1      36.706 -23.043 -16.135  0.00  0.00    +0.023 C 
ATOM      5  C   UNL     1      36.171 -24.528 -12.684  0.00  0.00    +0.145 C 
ATOM      6  C   UNL     1      37.709 -22.847 -13.690  0.00  0.00    +0.004 C 
ATOM      7  C   UNL     1      37.370 -23.587 -12.377  0.00  0.00    +0.040 C 
ATOM      8  C   UNL     1      35.365 -23.417 -16.803  0.00  0.00    -0.027 C 
ATOM      9  C   UNL     1      34.981 -25.076 -14.981  0.00  0.00    -0.024 C 
ATOM     10  C   UNL     1      37.182 -21.636 -16.513  0.00  0.00    +0.009 C 
ATOM     11  C   UNL     1      34.624 -24.506 -16.147  0.00  0.00    -0.009 C 
ATOM     12  C   UNL     1      34.915 -22.755 -17.900  0.00  0.00    -0.030 C 
ATOM     13  C   UNL     1      37.107 -21.465 -18.024  0.00  0.00    +0.026 C 
ATOM     14  C   UNL     1      35.686 -21.648 -18.495  0.00  0.00    -0.024 C 
ATOM     15  C   UNL     1      33.629 -23.070 -18.642  0.00  0.00    +0.034 C 
ATOM     16  C   UNL     1      35.174 -20.795 -19.398  0.00  0.00    +0.033 C 
ATOM     17  C   UNL     1      32.859 -21.817 -19.041  0.00  0.00    +0.074 C 
ATOM     18  C   UNL     1      33.748 -20.866 -19.797  0.00  0.00    +0.173 C 
ENDROOT
BRANCH   5  19
ATOM     19  O   UNL     1      36.368 -25.767 -12.014  0.00  0.00    -0.375 OA
ATOM     20  H   UNL     1      37.094 -26.251 -12.438  0.00  0.00    +0.211 HD
ENDBRANCH   5  19
BRANCH   2  21
ATOM     21  C   UNL     1      37.316 -25.703 -14.637  0.00  0.00    +0.007 C 
ATOM     22  C   UNL     1      36.686 -26.902 -15.299  0.00  0.00    +0.000 C 
ENDBRANCH   2  21
BRANCH   5  23
ATOM     23  C   UNL     1      34.910 -23.931 -12.200  0.00  0.00    -0.052 C 
ATOM     24  C   UNL     1      33.884 -23.447 -11.806  0.00  0.00    -0.012 C 
ENDBRANCH   5  23
TORSDOF 3
ENDMDL
MODEL 9
REMARK VINA RESULT:      -6.0     18.460     20.698
REMARK  Name = 27812
REMARK  3 active torsions:
REMARK  status: ('A' for Active; 'I' for Inactive)
REMARK    1  A    between atoms: C_2  and  C_21
REMARK    2  A    between atoms: C_5  and  O_19
REMARK    3  A    between atoms: C_5  and  C_23
REMARK                            x       y       z     vdW  Elec       q    Type
REMARK                         _______ _______ _______ _____ _____    ______ ____
ROOT
ATOM      1  O   UNL     1      35.047  -3.544 -29.928  0.00  0.00    -0.291 OA
ATOM      2  C   UNL     1      33.094  -7.871 -22.991  0.00  0.00    +0.052 C 
ATOM      3  C   UNL     1      32.168  -7.406 -24.145  0.00  0.00    +0.011 C 
ATOM      4  C   UNL     1      32.516  -5.993 -24.616  0.00  0.00    +0.023 C 
ATOM      5  C   UNL     1      32.493  -9.281 -22.722  0.00  0.00    +0.145 C 
ATOM      6  C   UNL     1      30.772  -7.726 -23.628  0.00  0.00    +0.004 C 
ATOM      7  C   UNL     1      30.962  -9.034 -22.829  0.00  0.00    +0.040 C 
ATOM      8  C   UNL     1      33.967  -5.993 -25.145  0.00  0.00    -0.027 C 
ATOM      9  C   UNL     1      34.520  -7.757 -23.472  0.00  0.00    -0.024 C 
ATOM     10  C   UNL     1      31.511  -5.470 -25.647  0.00  0.00    +0.009 C 
ATOM     11  C   UNL     1      34.890  -6.890 -24.432  0.00  0.00    -0.009 C 
ATOM     12  C   UNL     1      34.329  -5.233 -26.210  0.00  0.00    -0.030 C 
ATOM     13  C   UNL     1      32.020  -4.160 -26.232  0.00  0.00    +0.026 C 
ATOM     14  C   UNL     1      33.352  -4.377 -26.906  0.00  0.00    -0.024 C 
ATOM     15  C   UNL     1      35.733  -5.144 -26.781  0.00  0.00    +0.034 C 
ATOM     16  C   UNL     1      33.583  -3.820 -28.107  0.00  0.00    +0.033 C 
ATOM     17  C   UNL     1      35.749  -5.162 -28.304  0.00  0.00    +0.074 C 
ATOM     18  C   UNL     1      34.828  -4.106 -28.857  0.00  0.00    +0.173 C 
ENDROOT
BRANCH   5  19
ATOM     19  O   UNL     1      32.797  -9.764 -21.420  0.00  0.00    -0.375 OA
ATOM     20  H   UNL     1      31.980 -10.055 -20.984  0.00  0.00    +0.211 HD
ENDBRANCH   5  19
BRANCH   2  21
ATOM     21  C   UNL     1      33.008  -6.997 -21.710  0.00  0.00    +0.007 C 
ATOM     22  C   UNL     1      32.053  -5.850 -21.917  0.00  0.00    +0.000 C 
ENDBRANCH   2  21
BRANCH   5  23
ATOM     23  C   UNL     1      32.921 -10.295 -23.707  0.00  0.00    -0.052 C 
ATOM     24  C   UNL     1      33.270 -11.119 -24.507  0.00  0.00    -0.012 C 
ENDBRANCH   5  23
TORSDOF 3
ENDMDL
