MODEL 1
REMARK VINA RESULT:      -8.7      0.000      0.000
REMARK  Name = 9454
REMARK  8 active torsions:
REMARK  status: ('A' for Active; 'I' for Inactive)
REMARK    1  A    between atoms: C_7  and  O_14
REMARK    2  A    between atoms: O_14  and  P_15
REMARK    3  A    between atoms: P_15  and  O_17
REMARK    4  A    between atoms: P_15  and  O_21
REMARK    5  A    between atoms: O_17  and  C_18
REMARK    6  A    between atoms: C_18  and  C_20
REMARK    7  A    between atoms: O_21  and  C_22
REMARK    8  A    between atoms: C_22  and  C_24
REMARK                            x       y       z     vdW  Elec       q    Type
REMARK                         _______ _______ _______ _____ _____    ______ ____
ROOT
ATOM      1 CL   UNL     1      35.553 -18.152 -23.699  0.00  0.00    -0.076 Cl
ATOM      2  O   UNL     1      33.369 -14.935 -24.584  0.00  0.00    -0.420 OA
ATOM      3  O   UNL     1      34.361 -16.560 -25.826  0.00  0.00    -0.244 OA
ATOM      4  C   UNL     1      33.552 -14.967 -22.153  0.00  0.00    +0.032 A 
ATOM      5  C   UNL     1      33.084 -14.378 -23.326  0.00  0.00    +0.151 A 
ATOM      6  C   UNL     1      34.361 -16.200 -22.244  0.00  0.00    -0.002 A 
ATOM      7  C   UNL     1      31.994 -12.609 -22.115  0.00  0.00    +0.152 C 
ATOM      8  C   UNL     1      32.313 -13.212 -23.325  0.00  0.00    +0.075 C 
ATOM      9  C   UNL     1      33.218 -14.339 -20.943  0.00  0.00    +0.006 C 
ATOM     10  C   UNL     1      32.447 -13.171 -20.924  0.00  0.00    +0.038 C 
ATOM     11  C   UNL     1      34.617 -16.709 -23.465  0.00  0.00    +0.130 A 
ATOM     12  C   UNL     1      34.846 -16.807 -20.951  0.00  0.00    +0.032 C 
ATOM     13  C   UNL     1      34.123 -16.091 -24.718  0.00  0.00    +0.356 A 
ENDROOT
BRANCH   7  14
ATOM     14  O   UNL     1      31.245 -11.473 -22.093  0.00  0.00    -0.402 OA
BRANCH  14  15
ATOM     15  P   UNL     1      31.816  -9.973 -22.318  0.00  0.00    +0.535 P 
ATOM     16  O   UNL     1      30.982  -9.109 -23.222  0.00  0.00    -0.215 OA
BRANCH  15  17
ATOM     17  O   UNL     1      33.346 -10.202 -22.798  0.00  0.00    -0.262 OA
BRANCH  17  18
ATOM     18  C   UNL     1      33.658 -10.025 -24.169  0.00  0.00    +0.172 C 
BRANCH  18  20
ATOM     19 CL   UNL     1      34.824  -7.691 -23.402  0.00  0.00    -0.111 Cl
ATOM     20  C   UNL     1      34.938  -9.223 -24.304  0.00  0.00    +0.127 C 
ENDBRANCH  18  20
ENDBRANCH  17  18
ENDBRANCH  15  17
BRANCH  15  21
ATOM     21  O   UNL     1      31.959  -9.387 -20.812  0.00  0.00    -0.262 OA
BRANCH  21  22
ATOM     22  C   UNL     1      32.825  -8.294 -20.556  0.00  0.00    +0.172 C 
BRANCH  22  24
ATOM     23 CL   UNL     1      32.064  -6.031 -21.860  0.00  0.00    -0.111 Cl
ATOM     24  C   UNL     1      32.011  -7.025 -20.383  0.00  0.00    +0.127 C 
ENDBRANCH  22  24
ENDBRANCH  21  22
ENDBRANCH  15  21
ENDBRANCH  14  15
ENDBRANCH   7  14
TORSDOF 8
ENDMDL
MODEL 2
REMARK VINA RESULT:      -8.7      6.487      9.638
REMARK  Name = 9454
REMARK  8 active torsions:
REMARK  status: ('A' for Active; 'I' for Inactive)
REMARK    1  A    between atoms: C_7  and  O_14
REMARK    2  A    between atoms: O_14  and  P_15
REMARK    3  A    between atoms: P_15  and  O_17
REMARK    4  A    between atoms: P_15  and  O_21
REMARK    5  A    between atoms: O_17  and  C_18
REMARK    6  A    between atoms: C_18  and  C_20
REMARK    7  A    between atoms: O_21  and  C_22
REMARK    8  A    between atoms: C_22  and  C_24
REMARK                            x       y       z     vdW  Elec       q    Type
REMARK                         _______ _______ _______ _____ _____    ______ ____
ROOT
ATOM      1 CL   UNL     1      33.505 -24.258 -14.800  0.00  0.00    -0.076 Cl
ATOM      2  O   UNL     1      32.696 -22.390 -18.228  0.00  0.00    -0.420 OA
ATOM      3  O   UNL     1      31.432 -23.496 -16.696  0.00  0.00    -0.244 OA
ATOM      4  C   UNL     1      35.103 -22.179 -17.908  0.00  0.00    +0.032 A 
ATOM      5  C   UNL     1      33.953 -21.932 -18.656  0.00  0.00    +0.151 A 
ATOM      6  C   UNL     1      34.988 -22.936 -16.645  0.00  0.00    -0.002 A 
ATOM      7  C   UNL     1      35.190 -20.741 -20.341  0.00  0.00    +0.152 C 
ATOM      8  C   UNL     1      33.978 -21.223 -19.860  0.00  0.00    +0.075 C 
ATOM      9  C   UNL     1      36.315 -21.683 -18.414  0.00  0.00    +0.006 C 
ATOM     10  C   UNL     1      36.358 -20.972 -19.619  0.00  0.00    +0.038 C 
ATOM     11  C   UNL     1      33.768 -23.362 -16.263  0.00  0.00    +0.130 A 
ATOM     12  C   UNL     1      36.256 -23.180 -15.865  0.00  0.00    +0.032 C 
ATOM     13  C   UNL     1      32.539 -23.104 -17.050  0.00  0.00    +0.356 A 
ENDROOT
BRANCH   7  14
ATOM     14  O   UNL     1      35.235 -20.051 -21.512  0.00  0.00    -0.402 OA
BRANCH  14  15
ATOM     15  P   UNL     1      36.043 -18.666 -21.749  0.00  0.00    +0.535 P 
ATOM     16  O   UNL     1      37.539 -18.784 -21.666  0.00  0.00    -0.215 OA
BRANCH  15  17
ATOM     17  O   UNL     1      35.371 -17.633 -20.697  0.00  0.00    -0.262 OA
BRANCH  17  18
ATOM     18  C   UNL     1      34.293 -16.825 -21.138  0.00  0.00    +0.172 C 
BRANCH  18  20
ATOM     19 CL   UNL     1      32.962 -14.494 -20.696  0.00  0.00    -0.111 Cl
ATOM     20  C   UNL     1      34.499 -15.397 -20.669  0.00  0.00    +0.127 C 
ENDBRANCH  18  20
ENDBRANCH  17  18
ENDBRANCH  15  17
BRANCH  15  21
ATOM     21  O   UNL     1      35.513 -18.156 -23.194  0.00  0.00    -0.262 OA
BRANCH  21  22
ATOM     22  C   UNL     1      34.849 -19.057 -24.065  0.00  0.00    +0.172 C 
BRANCH  22  24
ATOM     23 CL   UNL     1      34.651 -16.571 -25.151  0.00  0.00    -0.111 Cl
ATOM     24  C   UNL     1      34.161 -18.283 -25.174  0.00  0.00    +0.127 C 
ENDBRANCH  22  24
ENDBRANCH  21  22
ENDBRANCH  15  21
ENDBRANCH  14  15
ENDBRANCH   7  14
TORSDOF 8
ENDMDL
MODEL 3
REMARK VINA RESULT:      -8.7      6.730      9.888
REMARK  Name = 9454
REMARK  8 active torsions:
REMARK  status: ('A' for Active; 'I' for Inactive)
REMARK    1  A    between atoms: C_7  and  O_14
REMARK    2  A    between atoms: O_14  and  P_15
REMARK    3  A    between atoms: P_15  and  O_17
REMARK    4  A    between atoms: P_15  and  O_21
REMARK    5  A    between atoms: O_17  and  C_18
REMARK    6  A    between atoms: C_18  and  C_20
REMARK    7  A    between atoms: O_21  and  C_22
REMARK    8  A    between atoms: C_22  and  C_24
REMARK                            x       y       z     vdW  Elec       q    Type
REMARK                         _______ _______ _______ _____ _____    ______ ____
ROOT
ATOM      1 CL   UNL     1      35.419 -24.172 -14.300  0.00  0.00    -0.076 Cl
ATOM      2  O   UNL     1      36.953 -22.115 -17.352  0.00  0.00    -0.420 OA
ATOM      3  O   UNL     1      37.825 -23.003 -15.449  0.00  0.00    -0.244 OA
ATOM      4  C   UNL     1      34.576 -22.352 -17.838  0.00  0.00    +0.032 A 
ATOM      5  C   UNL     1      35.843 -21.885 -18.182  0.00  0.00    +0.151 A 
ATOM      6  C   UNL     1      34.407 -23.102 -16.576  0.00  0.00    -0.002 A 
ATOM      7  C   UNL     1      35.031 -20.907 -20.224  0.00  0.00    +0.152 C 
ATOM      8  C   UNL     1      36.085 -21.169 -19.358  0.00  0.00    +0.075 C 
ATOM      9  C   UNL     1      33.526 -22.074 -18.727  0.00  0.00    +0.006 C 
ATOM     10  C   UNL     1      33.752 -21.358 -19.909  0.00  0.00    +0.038 C 
ATOM     11  C   UNL     1      35.490 -23.305 -15.802  0.00  0.00    +0.130 A 
ATOM     12  C   UNL     1      33.020 -23.591 -16.241  0.00  0.00    +0.032 C 
ATOM     13  C   UNL     1      36.843 -22.814 -16.159  0.00  0.00    +0.356 A 
ENDROOT
BRANCH   7  14
ATOM     14  O   UNL     1      35.247 -20.210 -21.372  0.00  0.00    -0.402 OA
BRANCH  14  15
ATOM     15  P   UNL     1      36.112 -18.845 -21.490  0.00  0.00    +0.535 P 
ATOM     16  O   UNL     1      37.570 -18.990 -21.154  0.00  0.00    -0.215 OA
BRANCH  15  17
ATOM     17  O   UNL     1      35.295 -17.782 -20.581  0.00  0.00    -0.262 OA
BRANCH  17  18
ATOM     18  C   UNL     1      34.978 -16.519 -21.140  0.00  0.00    +0.172 C 
BRANCH  18  20
ATOM     19 CL   UNL     1      32.933 -14.959 -20.253  0.00  0.00    -0.111 Cl
ATOM     20  C   UNL     1      33.472 -16.357 -21.219  0.00  0.00    +0.127 C 
ENDBRANCH  18  20
ENDBRANCH  17  18
ENDBRANCH  15  17
BRANCH  15  21
ATOM     21  O   UNL     1      35.845 -18.351 -23.011  0.00  0.00    -0.262 OA
BRANCH  21  22
ATOM     22  C   UNL     1      34.862 -18.997 -23.805  0.00  0.00    +0.172 C 
BRANCH  22  24
ATOM     23 CL   UNL     1      34.833 -16.430 -24.704  0.00  0.00    -0.111 Cl
ATOM     24  C   UNL     1      34.567 -18.160 -25.035  0.00  0.00    +0.127 C 
ENDBRANCH  22  24
ENDBRANCH  21  22
ENDBRANCH  15  21
ENDBRANCH  14  15
ENDBRANCH   7  14
TORSDOF 8
ENDMDL
MODEL 4
REMARK VINA RESULT:      -8.5      1.090      2.270
REMARK  Name = 9454
REMARK  8 active torsions:
REMARK  status: ('A' for Active; 'I' for Inactive)
REMARK    1  A    between atoms: C_7  and  O_14
REMARK    2  A    between atoms: O_14  and  P_15
REMARK    3  A    between atoms: P_15  and  O_17
REMARK    4  A    between atoms: P_15  and  O_21
REMARK    5  A    between atoms: O_17  and  C_18
REMARK    6  A    between atoms: C_18  and  C_20
REMARK    7  A    between atoms: O_21  and  C_22
REMARK    8  A    between atoms: C_22  and  C_24
REMARK                            x       y       z     vdW  Elec       q    Type
REMARK                         _______ _______ _______ _____ _____    ______ ____
ROOT
ATOM      1 CL   UNL     1      35.667 -18.319 -23.486  0.00  0.00    -0.076 Cl
ATOM      2  O   UNL     1      33.596 -15.113 -24.640  0.00  0.00    -0.420 OA
ATOM      3  O   UNL     1      34.647 -16.797 -25.748  0.00  0.00    -0.244 OA
ATOM      4  C   UNL     1      33.611 -15.053 -22.203  0.00  0.00    +0.032 A 
ATOM      5  C   UNL     1      33.233 -14.504 -23.427  0.00  0.00    +0.151 A 
ATOM      6  C   UNL     1      34.406 -16.298 -22.191  0.00  0.00    -0.002 A 
ATOM      7  C   UNL     1      32.089 -12.676 -22.361  0.00  0.00    +0.152 C 
ATOM      8  C   UNL     1      32.481 -13.330 -23.523  0.00  0.00    +0.075 C 
ATOM      9  C   UNL     1      33.204 -14.375 -21.043  0.00  0.00    +0.006 C 
ATOM     10  C   UNL     1      32.450 -13.198 -21.122  0.00  0.00    +0.038 C 
ATOM     11  C   UNL     1      34.738 -16.857 -23.371  0.00  0.00    +0.130 A 
ATOM     12  C   UNL     1      34.793 -16.860 -20.846  0.00  0.00    +0.032 C 
ATOM     13  C   UNL     1      34.341 -16.282 -24.678  0.00  0.00    +0.356 A 
ENDROOT
BRANCH   7  14
ATOM     14  O   UNL     1      31.357 -11.532 -22.434  0.00  0.00    -0.402 OA
BRANCH  14  15
ATOM     15  P   UNL     1      31.922 -10.041 -22.144  0.00  0.00    +0.535 P 
ATOM     16  O   UNL     1      31.839  -9.601 -20.710  0.00  0.00    -0.215 OA
BRANCH  15  17
ATOM     17  O   UNL     1      31.127  -9.107 -23.202  0.00  0.00    -0.262 OA
BRANCH  17  18
ATOM     18  C   UNL     1      31.073  -7.711 -22.964  0.00  0.00    +0.172 C 
BRANCH  18  20
ATOM     19 CL   UNL     1      31.924  -5.305 -23.906  0.00  0.00    -0.111 Cl
ATOM     20  C   UNL     1      31.359  -6.960 -24.251  0.00  0.00    +0.127 C 
ENDBRANCH  18  20
ENDBRANCH  17  18
ENDBRANCH  15  17
BRANCH  15  21
ATOM     21  O   UNL     1      33.438 -10.086 -22.721  0.00  0.00    -0.262 OA
BRANCH  21  22
ATOM     22  C   UNL     1      33.670  -9.970 -24.115  0.00  0.00    +0.172 C 
BRANCH  22  24
ATOM     23 CL   UNL     1      34.843  -7.641 -23.340  0.00  0.00    -0.111 Cl
ATOM     24  C   UNL     1      34.890  -9.101 -24.360  0.00  0.00    +0.127 C 
ENDBRANCH  22  24
ENDBRANCH  21  22
ENDBRANCH  15  21
ENDBRANCH  14  15
ENDBRANCH   7  14
TORSDOF 8
ENDMDL
MODEL 5
REMARK VINA RESULT:      -8.2      3.753      8.489
REMARK  Name = 9454
REMARK  8 active torsions:
REMARK  status: ('A' for Active; 'I' for Inactive)
REMARK    1  A    between atoms: C_7  and  O_14
REMARK    2  A    between atoms: O_14  and  P_15
REMARK    3  A    between atoms: P_15  and  O_17
REMARK    4  A    between atoms: P_15  and  O_21
REMARK    5  A    between atoms: O_17  and  C_18
REMARK    6  A    between atoms: C_18  and  C_20
REMARK    7  A    between atoms: O_21  and  C_22
REMARK    8  A    between atoms: C_22  and  C_24
REMARK                            x       y       z     vdW  Elec       q    Type
REMARK                         _______ _______ _______ _____ _____    ______ ____
ROOT
ATOM      1 CL   UNL     1      31.586 -10.237 -22.934  0.00  0.00    -0.076 Cl
ATOM      2  O   UNL     1      32.226 -13.304 -20.468  0.00  0.00    -0.420 OA
ATOM      3  O   UNL     1      30.948 -11.428 -20.355  0.00  0.00    -0.244 OA
ATOM      4  C   UNL     1      33.591 -13.741 -22.440  0.00  0.00    +0.032 A 
ATOM      5  C   UNL     1      33.136 -14.108 -21.175  0.00  0.00    +0.151 A 
ATOM      6  C   UNL     1      33.103 -12.481 -23.040  0.00  0.00    -0.002 A 
ATOM      7  C   UNL     1      34.448 -16.124 -21.185  0.00  0.00    +0.152 C 
ATOM      8  C   UNL     1      33.550 -15.283 -20.540  0.00  0.00    +0.075 C 
ATOM      9  C   UNL     1      34.499 -14.605 -23.071  0.00  0.00    +0.006 C 
ATOM     10  C   UNL     1      34.924 -15.785 -22.449  0.00  0.00    +0.038 C 
ATOM     11  C   UNL     1      32.231 -11.733 -22.336  0.00  0.00    +0.130 A 
ATOM     12  C   UNL     1      33.618 -12.121 -24.411  0.00  0.00    +0.032 C 
ATOM     13  C   UNL     1      31.740 -12.115 -20.990  0.00  0.00    +0.356 A 
ENDROOT
BRANCH   7  14
ATOM     14  O   UNL     1      34.864 -17.271 -20.584  0.00  0.00    -0.402 OA
BRANCH  14  15
ATOM     15  P   UNL     1      35.398 -18.591 -21.357  0.00  0.00    +0.535 P 
ATOM     16  O   UNL     1      36.866 -18.584 -21.680  0.00  0.00    -0.215 OA
BRANCH  15  17
ATOM     17  O   UNL     1      34.409 -18.726 -22.633  0.00  0.00    -0.262 OA
BRANCH  17  18
ATOM     18  C   UNL     1      34.932 -19.254 -23.840  0.00  0.00    +0.172 C 
BRANCH  18  20
ATOM     19 CL   UNL     1      34.838 -17.128 -25.535  0.00  0.00    -0.111 Cl
ATOM     20  C   UNL     1      34.160 -18.695 -25.020  0.00  0.00    +0.127 C 
ENDBRANCH  18  20
ENDBRANCH  17  18
ENDBRANCH  15  17
BRANCH  15  21
ATOM     21  O   UNL     1      34.955 -19.811 -20.384  0.00  0.00    -0.262 OA
BRANCH  21  22
ATOM     22  C   UNL     1      35.918 -20.756 -19.947  0.00  0.00    +0.172 C 
BRANCH  22  24
ATOM     23 CL   UNL     1      33.479 -21.707 -19.209  0.00  0.00    -0.111 Cl
ATOM     24  C   UNL     1      35.219 -22.007 -19.448  0.00  0.00    +0.127 C 
ENDBRANCH  22  24
ENDBRANCH  21  22
ENDBRANCH  15  21
ENDBRANCH  14  15
ENDBRANCH   7  14
TORSDOF 8
ENDMDL
MODEL 6
REMARK VINA RESULT:      -8.2      3.750      8.337
REMARK  Name = 9454
REMARK  8 active torsions:
REMARK  status: ('A' for Active; 'I' for Inactive)
REMARK    1  A    between atoms: C_7  and  O_14
REMARK    2  A    between atoms: O_14  and  P_15
REMARK    3  A    between atoms: P_15  and  O_17
REMARK    4  A    between atoms: P_15  and  O_21
REMARK    5  A    between atoms: O_17  and  C_18
REMARK    6  A    between atoms: C_18  and  C_20
REMARK    7  A    between atoms: O_21  and  C_22
REMARK    8  A    between atoms: C_22  and  C_24
REMARK                            x       y       z     vdW  Elec       q    Type
REMARK                         _______ _______ _______ _____ _____    ______ ____
ROOT
ATOM      1 CL   UNL     1      31.812 -10.225 -23.163  0.00  0.00    -0.076 Cl
ATOM      2  O   UNL     1      34.174 -13.384 -23.748  0.00  0.00    -0.420 OA
ATOM      3  O   UNL     1      33.732 -11.501 -24.942  0.00  0.00    -0.244 OA
ATOM      4  C   UNL     1      33.071 -13.766 -21.607  0.00  0.00    +0.032 A 
ATOM      5  C   UNL     1      33.955 -14.172 -22.605  0.00  0.00    +0.151 A 
ATOM      6  C   UNL     1      32.357 -12.481 -21.763  0.00  0.00    -0.002 A 
ATOM      7  C   UNL     1      34.499 -16.199 -21.430  0.00  0.00    +0.152 C 
ATOM      8  C   UNL     1      34.668 -15.372 -22.533  0.00  0.00    +0.075 C 
ATOM      9  C   UNL     1      32.915 -14.618 -20.503  0.00  0.00    +0.006 C 
ATOM     10  C   UNL     1      33.622 -15.822 -20.415  0.00  0.00    +0.038 C 
ATOM     11  C   UNL     1      32.588 -11.749 -22.869  0.00  0.00    +0.130 A 
ATOM     12  C   UNL     1      31.411 -12.078 -20.659  0.00  0.00    +0.032 C 
ATOM     13  C   UNL     1      33.527 -12.172 -23.936  0.00  0.00    +0.356 A 
ENDROOT
BRANCH   7  14
ATOM     14  O   UNL     1      35.183 -17.371 -21.341  0.00  0.00    -0.402 OA
BRANCH  14  15
ATOM     15  P   UNL     1      34.510 -18.844 -21.273  0.00  0.00    +0.535 P 
ATOM     16  O   UNL     1      33.022 -18.850 -21.067  0.00  0.00    -0.215 OA
BRANCH  15  17
ATOM     17  O   UNL     1      35.369 -19.616 -20.137  0.00  0.00    -0.262 OA
BRANCH  17  18
ATOM     18  C   UNL     1      35.693 -20.980 -20.345  0.00  0.00    +0.172 C 
BRANCH  18  20
ATOM     19 CL   UNL     1      33.393 -21.775 -19.130  0.00  0.00    -0.111 Cl
ATOM     20  C   UNL     1      35.174 -21.813 -19.189  0.00  0.00    +0.127 C 
ENDBRANCH  18  20
ENDBRANCH  17  18
ENDBRANCH  15  17
BRANCH  15  21
ATOM     21  O   UNL     1      34.974 -19.542 -22.661  0.00  0.00    -0.262 OA
BRANCH  21  22
ATOM     22  C   UNL     1      35.431 -18.743 -23.740  0.00  0.00    +0.172 C 
BRANCH  22  24
ATOM     23 CL   UNL     1      34.367 -16.936 -25.473  0.00  0.00    -0.111 Cl
ATOM     24  C   UNL     1      34.315 -18.564 -24.752  0.00  0.00    +0.127 C 
ENDBRANCH  22  24
ENDBRANCH  21  22
ENDBRANCH  15  21
ENDBRANCH  14  15
ENDBRANCH   7  14
TORSDOF 8
ENDMDL
MODEL 7
REMARK VINA RESULT:      -8.2      9.270     13.061
REMARK  Name = 9454
REMARK  8 active torsions:
REMARK  status: ('A' for Active; 'I' for Inactive)
REMARK    1  A    between atoms: C_7  and  O_14
REMARK    2  A    between atoms: O_14  and  P_15
REMARK    3  A    between atoms: P_15  and  O_17
REMARK    4  A    between atoms: P_15  and  O_21
REMARK    5  A    between atoms: O_17  and  C_18
REMARK    6  A    between atoms: C_18  and  C_20
REMARK    7  A    between atoms: O_21  and  C_22
REMARK    8  A    between atoms: C_22  and  C_24
REMARK                            x       y       z     vdW  Elec       q    Type
REMARK                         _______ _______ _______ _____ _____    ______ ____
ROOT
ATOM      1 CL   UNL     1      34.883 -18.154 -22.325  0.00  0.00    -0.076 Cl
ATOM      2  O   UNL     1      36.491 -20.637 -19.652  0.00  0.00    -0.420 OA
ATOM      3  O   UNL     1      37.341 -19.072 -21.064  0.00  0.00    -0.244 OA
ATOM      4  C   UNL     1      34.091 -21.059 -19.592  0.00  0.00    +0.032 A 
ATOM      5  C   UNL     1      35.381 -21.328 -19.137  0.00  0.00    +0.151 A 
ATOM      6  C   UNL     1      33.897 -20.028 -20.632  0.00  0.00    -0.002 A 
ATOM      7  C   UNL     1      34.594 -23.006 -17.605  0.00  0.00    +0.152 C 
ATOM      8  C   UNL     1      35.647 -22.287 -18.156  0.00  0.00    +0.075 C 
ATOM      9  C   UNL     1      33.043 -21.799 -19.021  0.00  0.00    +0.006 C 
ATOM     10  C   UNL     1      33.293 -22.763 -18.037  0.00  0.00    +0.038 C 
ATOM     11  C   UNL     1      34.982 -19.384 -21.105  0.00  0.00    +0.130 A 
ATOM     12  C   UNL     1      32.486 -19.767 -21.095  0.00  0.00    +0.032 C 
ATOM     13  C   UNL     1      36.358 -19.662 -20.628  0.00  0.00    +0.356 A 
ENDROOT
BRANCH   7  14
ATOM     14  O   UNL     1      34.832 -23.944 -16.649  0.00  0.00    -0.402 OA
BRANCH  14  15
ATOM     15  P   UNL     1      35.158 -23.632 -15.093  0.00  0.00    +0.535 P 
ATOM     16  O   UNL     1      36.186 -22.560 -14.865  0.00  0.00    -0.215 OA
BRANCH  15  17
ATOM     17  O   UNL     1      35.521 -25.083 -14.469  0.00  0.00    -0.262 OA
BRANCH  17  18
ATOM     18  C   UNL     1      36.886 -25.449 -14.361  0.00  0.00    +0.172 C 
BRANCH  18  20
ATOM     19 CL   UNL     1      37.949 -24.333 -12.119  0.00  0.00    -0.111 Cl
ATOM     20  C   UNL     1      37.222 -25.754 -12.913  0.00  0.00    +0.127 C 
ENDBRANCH  18  20
ENDBRANCH  17  18
ENDBRANCH  15  17
BRANCH  15  21
ATOM     21  O   UNL     1      33.707 -23.283 -14.459  0.00  0.00    -0.262 OA
BRANCH  21  22
ATOM     22  C   UNL     1      32.901 -24.317 -13.920  0.00  0.00    +0.172 C 
BRANCH  22  24
ATOM     23 CL   UNL     1      31.072 -22.772 -15.211  0.00  0.00    -0.111 Cl
ATOM     24  C   UNL     1      31.456 -23.857 -13.852  0.00  0.00    +0.127 C 
ENDBRANCH  22  24
ENDBRANCH  21  22
ENDBRANCH  15  21
ENDBRANCH  14  15
ENDBRANCH   7  14
TORSDOF 8
ENDMDL
MODEL 8
REMARK VINA RESULT:      -8.2      6.628      9.578
REMARK  Name = 9454
REMARK  8 active torsions:
REMARK  status: ('A' for Active; 'I' for Inactive)
REMARK    1  A    between atoms: C_7  and  O_14
REMARK    2  A    between atoms: O_14  and  P_15
REMARK    3  A    between atoms: P_15  and  O_17
REMARK    4  A    between atoms: P_15  and  O_21
REMARK    5  A    between atoms: O_17  and  C_18
REMARK    6  A    between atoms: C_18  and  C_20
REMARK    7  A    between atoms: O_21  and  C_22
REMARK    8  A    between atoms: C_22  and  C_24
REMARK                            x       y       z     vdW  Elec       q    Type
REMARK                         _______ _______ _______ _____ _____    ______ ____
ROOT
ATOM      1 CL   UNL     1      33.018 -24.367 -14.590  0.00  0.00    -0.076 Cl
ATOM      2  O   UNL     1      32.631 -22.514 -18.099  0.00  0.00    -0.420 OA
ATOM      3  O   UNL     1      31.178 -23.552 -16.693  0.00  0.00    -0.244 OA
ATOM      4  C   UNL     1      35.001 -22.389 -17.539  0.00  0.00    +0.032 A 
ATOM      5  C   UNL     1      33.942 -22.109 -18.401  0.00  0.00    +0.151 A 
ATOM      6  C   UNL     1      34.729 -23.126 -16.287  0.00  0.00    -0.002 A 
ATOM      7  C   UNL     1      35.388 -20.987 -19.963  0.00  0.00    +0.152 C 
ATOM      8  C   UNL     1      34.116 -21.417 -19.603  0.00  0.00    +0.075 C 
ATOM      9  C   UNL     1      36.276 -21.946 -17.923  0.00  0.00    +0.006 C 
ATOM     10  C   UNL     1      36.467 -21.252 -19.124  0.00  0.00    +0.038 C 
ATOM     11  C   UNL     1      33.462 -23.501 -16.026  0.00  0.00    +0.130 A 
ATOM     12  C   UNL     1      35.902 -23.407 -15.381  0.00  0.00    +0.032 C 
ATOM     13  C   UNL     1      32.329 -23.207 -16.937  0.00  0.00    +0.356 A 
ENDROOT
BRANCH   7  14
ATOM     14  O   UNL     1      35.578 -20.313 -21.129  0.00  0.00    -0.402 OA
BRANCH  14  15
ATOM     15  P   UNL     1      34.654 -19.095 -21.666  0.00  0.00    +0.535 P 
ATOM     16  O   UNL     1      33.183 -19.398 -21.731  0.00  0.00    -0.215 OA
BRANCH  15  17
ATOM     17  O   UNL     1      35.336 -18.677 -23.075  0.00  0.00    -0.262 OA
BRANCH  17  18
ATOM     18  C   UNL     1      34.915 -19.341 -24.254  0.00  0.00    +0.172 C 
BRANCH  18  20
ATOM     19 CL   UNL     1      34.924 -16.788 -25.192  0.00  0.00    -0.111 Cl
ATOM     20  C   UNL     1      34.131 -18.383 -25.130  0.00  0.00    +0.127 C 
ENDBRANCH  18  20
ENDBRANCH  17  18
ENDBRANCH  15  17
BRANCH  15  21
ATOM     21  O   UNL     1      35.019 -17.868 -20.671  0.00  0.00    -0.262 OA
BRANCH  21  22
ATOM     22  C   UNL     1      35.009 -16.535 -21.155  0.00  0.00    +0.172 C 
BRANCH  22  24
ATOM     23 CL   UNL     1      33.178 -15.116 -22.582  0.00  0.00    -0.111 Cl
ATOM     24  C   UNL     1      33.602 -15.973 -21.078  0.00  0.00    +0.127 C 
ENDBRANCH  22  24
ENDBRANCH  21  22
ENDBRANCH  15  21
ENDBRANCH  14  15
ENDBRANCH   7  14
TORSDOF 8
ENDMDL
MODEL 9
REMARK VINA RESULT:      -8.1      1.614      2.230
REMARK  Name = 9454
REMARK  8 active torsions:
REMARK  status: ('A' for Active; 'I' for Inactive)
REMARK    1  A    between atoms: C_7  and  O_14
REMARK    2  A    between atoms: O_14  and  P_15
REMARK    3  A    between atoms: P_15  and  O_17
REMARK    4  A    between atoms: P_15  and  O_21
REMARK    5  A    between atoms: O_17  and  C_18
REMARK    6  A    between atoms: C_18  and  C_20
REMARK    7  A    between atoms: O_21  and  C_22
REMARK    8  A    between atoms: C_22  and  C_24
REMARK                            x       y       z     vdW  Elec       q    Type
REMARK                         _______ _______ _______ _____ _____    ______ ____
ROOT
ATOM      1 CL   UNL     1      35.842 -18.482 -23.338  0.00  0.00    -0.076 Cl
ATOM      2  O   UNL     1      34.194 -15.792 -20.899  0.00  0.00    -0.420 OA
ATOM      3  O   UNL     1      35.438 -17.667 -20.572  0.00  0.00    -0.244 OA
ATOM      4  C   UNL     1      33.619 -15.081 -23.159  0.00  0.00    +0.032 A 
ATOM      5  C   UNL     1      33.564 -14.896 -21.779  0.00  0.00    +0.151 A 
ATOM      6  C   UNL     1      34.356 -16.244 -23.697  0.00  0.00    -0.002 A 
ATOM      7  C   UNL     1      32.245 -12.898 -22.004  0.00  0.00    +0.152 C 
ATOM      8  C   UNL     1      32.889 -13.822 -21.191  0.00  0.00    +0.075 C 
ATOM      9  C   UNL     1      32.960 -14.135 -23.960  0.00  0.00    +0.006 C 
ATOM     10  C   UNL     1      32.279 -13.054 -23.387  0.00  0.00    +0.038 C 
ATOM     11  C   UNL     1      34.948 -17.085 -22.828  0.00  0.00    +0.130 A 
ATOM     12  C   UNL     1      34.393 -16.406 -25.196  0.00  0.00    +0.032 C 
ATOM     13  C   UNL     1      34.896 -16.896 -21.358  0.00  0.00    +0.356 A 
ENDROOT
BRANCH   7  14
ATOM     14  O   UNL     1      31.581 -11.846 -21.452  0.00  0.00    -0.402 OA
BRANCH  14  15
ATOM     15  P   UNL     1      31.699 -10.306 -21.940  0.00  0.00    +0.535 P 
ATOM     16  O   UNL     1      30.581  -9.836 -22.828  0.00  0.00    -0.215 OA
BRANCH  15  17
ATOM     17  O   UNL     1      33.182 -10.211 -22.587  0.00  0.00    -0.262 OA
BRANCH  17  18
ATOM     18  C   UNL     1      33.315  -9.686 -23.897  0.00  0.00    +0.172 C 
BRANCH  18  20
ATOM     19 CL   UNL     1      35.348 -10.376 -25.567  0.00  0.00    -0.111 Cl
ATOM     20  C   UNL     1      34.776  -9.401 -24.189  0.00  0.00    +0.127 C 
ENDBRANCH  18  20
ENDBRANCH  17  18
ENDBRANCH  15  17
BRANCH  15  21
ATOM     21  O   UNL     1      31.820  -9.472 -20.554  0.00  0.00    -0.262 OA
BRANCH  21  22
ATOM     22  C   UNL     1      32.685  -8.351 -20.474  0.00  0.00    +0.172 C 
BRANCH  22  24
ATOM     23 CL   UNL     1      32.592  -6.525 -22.488  0.00  0.00    -0.111 Cl
ATOM     24  C   UNL     1      31.951  -7.104 -20.930  0.00  0.00    +0.127 C 
ENDBRANCH  22  24
ENDBRANCH  21  22
ENDBRANCH  15  21
ENDBRANCH  14  15
ENDBRANCH   7  14
TORSDOF 8
ENDMDL
