MODEL 1
REMARK VINA RESULT:     -13.8      0.000      0.000
REMARK  Name = 11952989
REMARK  5 active torsions:
REMARK  status: ('A' for Active; 'I' for Inactive)
REMARK    1  A    between atoms: C_4  and  C_21
REMARK    2  A    between atoms: C_6  and  C_11
REMARK    3  A    between atoms: C_24  and  C_27
REMARK    4  A    between atoms: C_27  and  C_29
REMARK    5  A    between atoms: C_29  and  O_30
REMARK                            x       y       z     vdW  Elec       q    Type
REMARK                         _______ _______ _______ _____ _____    ______ ____
ROOT
ATOM      1  N   UNL     1      33.614 -15.053 -26.033  0.00  0.00    -0.297 N 
ATOM      2  N   UNL     1      34.620 -17.184 -25.535  0.00  0.00    -0.229 NA
ATOM      3  C   UNL     1      33.736 -15.611 -23.875  0.00  0.00    +0.033 C 
ATOM      4  C   UNL     1      33.120 -14.336 -23.986  0.00  0.00    +0.017 C 
ATOM      5  C   UNL     1      34.031 -16.030 -25.169  0.00  0.00    +0.132 C 
ATOM      6  C   UNL     1      34.695 -17.680 -23.146  0.00  0.00    +0.019 C 
ATOM      7  C   UNL     1      34.082 -16.472 -22.821  0.00  0.00    +0.004 C 
ATOM      8  C   UNL     1      33.059 -14.018 -25.326  0.00  0.00    +0.063 C 
ATOM      9  C   UNL     1      34.932 -17.974 -24.481  0.00  0.00    +0.100 C 
ATOM     10  H   UNL     1      33.700 -15.087 -27.014  0.00  0.00    +0.154 HD
ENDROOT
BRANCH   6  11
ATOM     11  C   UNL     1      35.077 -18.612 -22.107  0.00  0.00    +0.001 C 
ATOM     12  C   UNL     1      34.468 -20.342 -20.509  0.00  0.00    +0.000 C 
ATOM     13  C   UNL     1      34.114 -19.432 -21.518  0.00  0.00    +0.000 C 
ATOM     14  C   UNL     1      35.818 -20.421 -20.091  0.00  0.00    +0.000 C 
ATOM     15  C   UNL     1      36.405 -18.690 -21.696  0.00  0.00    +0.000 C 
ATOM     16  C   UNL     1      36.774 -19.588 -20.695  0.00  0.00    +0.000 C 
ATOM     17  C   UNL     1      33.512 -21.175 -19.904  0.00  0.00    +0.000 C 
ATOM     18  C   UNL     1      36.172 -21.331 -19.081  0.00  0.00    +0.000 C 
ATOM     19  C   UNL     1      33.883 -22.073 -18.903  0.00  0.00    +0.000 C 
ATOM     20  C   UNL     1      35.210 -22.151 -18.492  0.00  0.00    +0.000 C 
ENDBRANCH   6  11
BRANCH   4  21
ATOM     21  C   UNL     1      32.622 -13.461 -22.964  0.00  0.00    +0.001 C 
ATOM     22  C   UNL     1      32.333 -12.129 -23.265  0.00  0.00    -0.000 C 
ATOM     23  C   UNL     1      32.423 -13.940 -21.669  0.00  0.00    -0.000 C 
ATOM     24  C   UNL     1      31.651 -11.759 -20.977  0.00  0.00    -0.011 C 
ATOM     25  C   UNL     1      31.848 -11.279 -22.271  0.00  0.00    -0.004 C 
ATOM     26  C   UNL     1      31.939 -13.090 -20.675  0.00  0.00    -0.004 C 
BRANCH  24  27
ATOM     27  C   UNL     1      31.129 -10.849 -19.916  0.00  0.00    +0.136 C 
BRANCH  27  29
ATOM     28  O   UNL     1      31.836  -8.579 -20.442  0.00  0.00    -0.250 OA
ATOM     29  C   UNL     1      31.946  -9.583 -19.751  0.00  0.00    +0.318 C 
BRANCH  29  30
ATOM     30  O   UNL     1      32.835  -9.683 -18.728  0.00  0.00    -0.480 OA
ATOM     31  H   UNL     1      32.584  -9.428 -17.862  0.00  0.00    +0.295 HD
ENDBRANCH  29  30
ENDBRANCH  27  29
ENDBRANCH  24  27
ENDBRANCH   4  21
TORSDOF 5
ENDMDL
MODEL 2
REMARK VINA RESULT:     -12.2      3.764      8.731
REMARK  Name = 11952989
REMARK  5 active torsions:
REMARK  status: ('A' for Active; 'I' for Inactive)
REMARK    1  A    between atoms: C_4  and  C_21
REMARK    2  A    between atoms: C_6  and  C_11
REMARK    3  A    between atoms: C_24  and  C_27
REMARK    4  A    between atoms: C_27  and  C_29
REMARK    5  A    between atoms: C_29  and  O_30
REMARK                            x       y       z     vdW  Elec       q    Type
REMARK                         _______ _______ _______ _____ _____    ______ ____
ROOT
ATOM      1  N   UNL     1      34.796 -18.123 -25.340  0.00  0.00    -0.297 N 
ATOM      2  N   UNL     1      34.098 -15.818 -25.323  0.00  0.00    -0.229 NA
ATOM      3  C   UNL     1      34.178 -17.289 -23.363  0.00  0.00    +0.033 C 
ATOM      4  C   UNL     1      34.557 -18.648 -23.191  0.00  0.00    +0.017 C 
ATOM      5  C   UNL     1      34.340 -16.993 -24.714  0.00  0.00    +0.132 C 
ATOM      6  C   UNL     1      33.448 -15.023 -23.108  0.00  0.00    +0.019 C 
ATOM      7  C   UNL     1      33.714 -16.261 -22.527  0.00  0.00    +0.004 C 
ATOM      8  C   UNL     1      34.932 -19.134 -24.425  0.00  0.00    +0.063 C 
ATOM      9  C   UNL     1      33.654 -14.864 -24.471  0.00  0.00    +0.100 C 
ATOM     10  H   UNL     1      34.997 -18.197 -26.302  0.00  0.00    +0.154 HD
ENDROOT
BRANCH   6  11
ATOM     11  C   UNL     1      32.967 -13.922 -22.302  0.00  0.00    +0.001 C 
ATOM     12  C   UNL     1      32.376 -11.571 -22.096  0.00  0.00    +0.000 C 
ATOM     13  C   UNL     1      32.841 -12.651 -22.864  0.00  0.00    +0.000 C 
ATOM     14  C   UNL     1      32.034 -11.784 -20.739  0.00  0.00    +0.000 C 
ATOM     15  C   UNL     1      32.631 -14.131 -20.968  0.00  0.00    +0.000 C 
ATOM     16  C   UNL     1      32.166 -13.070 -20.190  0.00  0.00    +0.000 C 
ATOM     17  C   UNL     1      32.243 -10.285 -22.645  0.00  0.00    +0.000 C 
ATOM     18  C   UNL     1      31.569 -10.704 -19.971  0.00  0.00    +0.000 C 
ATOM     19  C   UNL     1      31.780  -9.224 -21.866  0.00  0.00    +0.000 C 
ATOM     20  C   UNL     1      31.443  -9.432 -20.532  0.00  0.00    +0.000 C 
ENDBRANCH   6  11
BRANCH   4  21
ATOM     21  C   UNL     1      34.580 -19.455 -22.006  0.00  0.00    +0.001 C 
ATOM     22  C   UNL     1      33.384 -19.823 -21.387  0.00  0.00    -0.000 C 
ATOM     23  C   UNL     1      35.798 -19.875 -21.470  0.00  0.00    -0.000 C 
ATOM     24  C   UNL     1      34.625 -21.027 -19.700  0.00  0.00    -0.011 C 
ATOM     25  C   UNL     1      33.407 -20.608 -20.236  0.00  0.00    -0.004 C 
ATOM     26  C   UNL     1      35.821 -20.660 -20.318  0.00  0.00    -0.004 C 
BRANCH  24  27
ATOM     27  C   UNL     1      34.648 -21.870 -18.469  0.00  0.00    +0.136 C 
BRANCH  27  29
ATOM     28  O   UNL     1      32.541 -22.896 -17.807  0.00  0.00    -0.250 OA
ATOM     29  C   UNL     1      33.580 -22.945 -18.453  0.00  0.00    +0.318 C 
BRANCH  29  30
ATOM     30  O   UNL     1      33.906 -23.995 -19.252  0.00  0.00    -0.480 OA
ATOM     31  H   UNL     1      33.574 -24.851 -19.060  0.00  0.00    +0.295 HD
ENDBRANCH  29  30
ENDBRANCH  27  29
ENDBRANCH  24  27
ENDBRANCH   4  21
TORSDOF 5
ENDMDL
MODEL 3
REMARK VINA RESULT:     -12.2      6.687     10.387
REMARK  Name = 11952989
REMARK  5 active torsions:
REMARK  status: ('A' for Active; 'I' for Inactive)
REMARK    1  A    between atoms: C_4  and  C_21
REMARK    2  A    between atoms: C_6  and  C_11
REMARK    3  A    between atoms: C_24  and  C_27
REMARK    4  A    between atoms: C_27  and  C_29
REMARK    5  A    between atoms: C_29  and  O_30
REMARK                            x       y       z     vdW  Elec       q    Type
REMARK                         _______ _______ _______ _____ _____    ______ ____
ROOT
ATOM      1  N   UNL     1      33.113 -25.043 -14.119  0.00  0.00    -0.297 N 
ATOM      2  N   UNL     1      35.059 -24.344 -15.356  0.00  0.00    -0.229 NA
ATOM      3  C   UNL     1      32.762 -23.602 -15.787  0.00  0.00    +0.033 C 
ATOM      4  C   UNL     1      31.518 -23.903 -15.171  0.00  0.00    +0.017 C 
ATOM      5  C   UNL     1      33.736 -24.328 -15.108  0.00  0.00    +0.132 C 
ATOM      6  C   UNL     1      34.546 -22.771 -17.151  0.00  0.00    +0.019 C 
ATOM      7  C   UNL     1      33.186 -22.790 -16.852  0.00  0.00    +0.004 C 
ATOM      8  C   UNL     1      31.766 -24.793 -14.148  0.00  0.00    +0.063 C 
ATOM      9  C   UNL     1      35.411 -23.545 -16.390  0.00  0.00    +0.100 C 
ATOM     10  H   UNL     1      33.565 -25.646 -13.483  0.00  0.00    +0.154 HD
ENDROOT
BRANCH   6  11
ATOM     11  C   UNL     1      35.048 -21.956 -18.235  0.00  0.00    +0.001 C 
ATOM     12  C   UNL     1      34.628 -20.575 -20.194  0.00  0.00    +0.000 C 
ATOM     13  C   UNL     1      34.158 -21.368 -19.135  0.00  0.00    +0.000 C 
ATOM     14  C   UNL     1      36.022 -20.374 -20.342  0.00  0.00    +0.000 C 
ATOM     15  C   UNL     1      36.418 -21.758 -18.381  0.00  0.00    +0.000 C 
ATOM     16  C   UNL     1      36.903 -20.973 -19.427  0.00  0.00    +0.000 C 
ATOM     17  C   UNL     1      33.747 -19.976 -21.109  0.00  0.00    +0.000 C 
ATOM     18  C   UNL     1      36.492 -19.581 -21.401  0.00  0.00    +0.000 C 
ATOM     19  C   UNL     1      34.233 -19.191 -22.155  0.00  0.00    +0.000 C 
ATOM     20  C   UNL     1      35.603 -18.993 -22.301  0.00  0.00    +0.000 C 
ENDBRANCH   6  11
BRANCH   4  21
ATOM     21  C   UNL     1      30.199 -23.430 -15.476  0.00  0.00    +0.001 C 
ATOM     22  C   UNL     1      29.649 -22.375 -14.746  0.00  0.00    -0.000 C 
ATOM     23  C   UNL     1      29.464 -24.023 -16.504  0.00  0.00    -0.000 C 
ATOM     24  C   UNL     1      27.633 -22.508 -16.072  0.00  0.00    -0.011 C 
ATOM     25  C   UNL     1      28.367 -21.915 -15.044  0.00  0.00    -0.004 C 
ATOM     26  C   UNL     1      28.182 -23.563 -16.802  0.00  0.00    -0.004 C 
BRANCH  24  27
ATOM     27  C   UNL     1      26.262 -22.013 -16.391  0.00  0.00    +0.136 C 
BRANCH  27  29
ATOM     28  O   UNL     1      26.169 -22.076 -18.823  0.00  0.00    -0.250 OA
ATOM     29  C   UNL     1      26.139 -21.430 -17.784  0.00  0.00    +0.318 C 
BRANCH  29  30
ATOM     30  O   UNL     1      25.989 -20.080 -17.757  0.00  0.00    -0.480 OA
ATOM     31  H   UNL     1      25.134 -19.705 -17.662  0.00  0.00    +0.295 HD
ENDBRANCH  29  30
ENDBRANCH  27  29
ENDBRANCH  24  27
ENDBRANCH   4  21
TORSDOF 5
ENDMDL
MODEL 4
REMARK VINA RESULT:     -11.6      3.696      8.683
REMARK  Name = 11952989
REMARK  5 active torsions:
REMARK  status: ('A' for Active; 'I' for Inactive)
REMARK    1  A    between atoms: C_4  and  C_21
REMARK    2  A    between atoms: C_6  and  C_11
REMARK    3  A    between atoms: C_24  and  C_27
REMARK    4  A    between atoms: C_27  and  C_29
REMARK    5  A    between atoms: C_29  and  O_30
REMARK                            x       y       z     vdW  Elec       q    Type
REMARK                         _______ _______ _______ _____ _____    ______ ____
ROOT
ATOM      1  N   UNL     1      34.396 -17.362 -25.769  0.00  0.00    -0.297 N 
ATOM      2  N   UNL     1      33.415 -15.171 -25.576  0.00  0.00    -0.229 NA
ATOM      3  C   UNL     1      34.147 -16.568 -23.698  0.00  0.00    +0.033 C 
ATOM      4  C   UNL     1      34.735 -17.859 -23.627  0.00  0.00    +0.017 C 
ATOM      5  C   UNL     1      33.949 -16.288 -25.047  0.00  0.00    +0.132 C 
ATOM      6  C   UNL     1      33.195 -14.413 -23.265  0.00  0.00    +0.019 C 
ATOM      7  C   UNL     1      33.754 -15.589 -22.770  0.00  0.00    +0.004 C 
ATOM      8  C   UNL     1      34.877 -18.323 -24.917  0.00  0.00    +0.063 C 
ATOM      9  C   UNL     1      33.055 -14.264 -24.638  0.00  0.00    +0.100 C 
ATOM     10  H   UNL     1      34.377 -17.434 -26.752  0.00  0.00    +0.154 HD
ENDROOT
BRANCH   6  11
ATOM     11  C   UNL     1      32.769 -13.366 -22.363  0.00  0.00    +0.001 C 
ATOM     12  C   UNL     1      32.360 -11.008 -21.925  0.00  0.00    +0.000 C 
ATOM     13  C   UNL     1      32.770 -12.037 -22.788  0.00  0.00    +0.000 C 
ATOM     14  C   UNL     1      31.943 -11.332 -20.611  0.00  0.00    +0.000 C 
ATOM     15  C   UNL     1      32.360 -13.684 -21.071  0.00  0.00    +0.000 C 
ATOM     16  C   UNL     1      31.949 -12.675 -20.200  0.00  0.00    +0.000 C 
ATOM     17  C   UNL     1      32.354  -9.665 -22.336  0.00  0.00    +0.000 C 
ATOM     18  C   UNL     1      31.533 -10.302 -19.748  0.00  0.00    +0.000 C 
ATOM     19  C   UNL     1      31.944  -8.656 -21.464  0.00  0.00    +0.000 C 
ATOM     20  C   UNL     1      31.534  -8.973 -20.173  0.00  0.00    +0.000 C 
ENDBRANCH   6  11
BRANCH   4  21
ATOM     21  C   UNL     1      35.142 -18.625 -22.485  0.00  0.00    +0.001 C 
ATOM     22  C   UNL     1      36.485 -18.660 -22.109  0.00  0.00    -0.000 C 
ATOM     23  C   UNL     1      34.194 -19.336 -21.747  0.00  0.00    -0.000 C 
ATOM     24  C   UNL     1      35.932 -20.115 -20.261  0.00  0.00    -0.011 C 
ATOM     25  C   UNL     1      36.880 -19.405 -20.998  0.00  0.00    -0.004 C 
ATOM     26  C   UNL     1      34.589 -20.081 -20.636  0.00  0.00    -0.004 C 
BRANCH  24  27
ATOM     27  C   UNL     1      36.355 -20.910 -19.072  0.00  0.00    +0.136 C 
BRANCH  27  29
ATOM     28  O   UNL     1      34.927 -22.786 -19.681  0.00  0.00    -0.250 OA
ATOM     29  C   UNL     1      35.486 -22.125 -18.816  0.00  0.00    +0.318 C 
BRANCH  29  30
ATOM     30  O   UNL     1      35.391 -22.410 -17.490  0.00  0.00    -0.480 OA
ATOM     31  H   UNL     1      34.569 -22.676 -17.126  0.00  0.00    +0.295 HD
ENDBRANCH  29  30
ENDBRANCH  27  29
ENDBRANCH  24  27
ENDBRANCH   4  21
TORSDOF 5
ENDMDL
MODEL 5
REMARK VINA RESULT:     -11.5      6.975     11.963
REMARK  Name = 11952989
REMARK  5 active torsions:
REMARK  status: ('A' for Active; 'I' for Inactive)
REMARK    1  A    between atoms: C_4  and  C_21
REMARK    2  A    between atoms: C_6  and  C_11
REMARK    3  A    between atoms: C_24  and  C_27
REMARK    4  A    between atoms: C_27  and  C_29
REMARK    5  A    between atoms: C_29  and  O_30
REMARK                            x       y       z     vdW  Elec       q    Type
REMARK                         _______ _______ _______ _____ _____    ______ ____
ROOT
ATOM      1  N   UNL     1      32.140 -24.176 -15.461  0.00  0.00    -0.297 N 
ATOM      2  N   UNL     1      31.882 -22.740 -17.378  0.00  0.00    -0.229 NA
ATOM      3  C   UNL     1      34.022 -23.416 -16.391  0.00  0.00    +0.033 C 
ATOM      4  C   UNL     1      34.357 -24.241 -15.284  0.00  0.00    +0.017 C 
ATOM      5  C   UNL     1      32.633 -23.397 -16.475  0.00  0.00    +0.132 C 
ATOM      6  C   UNL     1      34.007 -21.976 -18.304  0.00  0.00    +0.019 C 
ATOM      7  C   UNL     1      34.737 -22.675 -17.346  0.00  0.00    +0.004 C 
ATOM      8  C   UNL     1      33.178 -24.694 -14.732  0.00  0.00    +0.063 C 
ATOM      9  C   UNL     1      32.621 -22.044 -18.272  0.00  0.00    +0.100 C 
ATOM     10  H   UNL     1      31.185 -24.340 -15.284  0.00  0.00    +0.154 HD
ENDROOT
BRANCH   6  11
ATOM     11  C   UNL     1      34.683 -21.192 -19.315  0.00  0.00    +0.001 C 
ATOM     12  C   UNL     1      34.580 -19.731 -21.257  0.00  0.00    +0.000 C 
ATOM     13  C   UNL     1      33.940 -20.495 -20.269  0.00  0.00    +0.000 C 
ATOM     14  C   UNL     1      35.995 -19.672 -21.279  0.00  0.00    +0.000 C 
ATOM     15  C   UNL     1      36.073 -21.135 -19.337  0.00  0.00    +0.000 C 
ATOM     16  C   UNL     1      36.726 -20.380 -20.311  0.00  0.00    +0.000 C 
ATOM     17  C   UNL     1      33.848 -19.023 -22.225  0.00  0.00    +0.000 C 
ATOM     18  C   UNL     1      36.634 -18.907 -22.268  0.00  0.00    +0.000 C 
ATOM     19  C   UNL     1      34.502 -18.268 -23.200  0.00  0.00    +0.000 C 
ATOM     20  C   UNL     1      35.892 -18.210 -23.222  0.00  0.00    +0.000 C 
ENDBRANCH   6  11
BRANCH   4  21
ATOM     21  C   UNL     1      35.642 -24.598 -14.756  0.00  0.00    +0.001 C 
ATOM     22  C   UNL     1      36.194 -25.846 -15.046  0.00  0.00    -0.000 C 
ATOM     23  C   UNL     1      36.342 -23.697 -13.953  0.00  0.00    -0.000 C 
ATOM     24  C   UNL     1      38.142 -25.291 -13.729  0.00  0.00    -0.011 C 
ATOM     25  C   UNL     1      37.443 -26.193 -14.532  0.00  0.00    -0.004 C 
ATOM     26  C   UNL     1      37.591 -24.043 -13.439  0.00  0.00    -0.004 C 
BRANCH  24  27
ATOM     27  C   UNL     1      39.480 -25.662 -13.183  0.00  0.00    +0.136 C 
BRANCH  27  29
ATOM     28  O   UNL     1      40.985 -26.862 -14.674  0.00  0.00    -0.250 OA
ATOM     29  C   UNL     1      40.550 -25.801 -14.247  0.00  0.00    +0.318 C 
BRANCH  29  30
ATOM     30  O   UNL     1      40.987 -24.592 -14.687  0.00  0.00    -0.480 OA
ATOM     31  H   UNL     1      40.537 -24.158 -15.387  0.00  0.00    +0.295 HD
ENDBRANCH  29  30
ENDBRANCH  27  29
ENDBRANCH  24  27
ENDBRANCH   4  21
TORSDOF 5
ENDMDL
MODEL 6
REMARK VINA RESULT:     -11.4      6.523     10.467
REMARK  Name = 11952989
REMARK  5 active torsions:
REMARK  status: ('A' for Active; 'I' for Inactive)
REMARK    1  A    between atoms: C_4  and  C_21
REMARK    2  A    between atoms: C_6  and  C_11
REMARK    3  A    between atoms: C_24  and  C_27
REMARK    4  A    between atoms: C_27  and  C_29
REMARK    5  A    between atoms: C_29  and  O_30
REMARK                            x       y       z     vdW  Elec       q    Type
REMARK                         _______ _______ _______ _____ _____    ______ ____
ROOT
ATOM      1  N   UNL     1      35.897 -24.220 -14.432  0.00  0.00    -0.297 N 
ATOM      2  N   UNL     1      37.324 -23.069 -15.994  0.00  0.00    -0.229 NA
ATOM      3  C   UNL     1      34.873 -23.099 -16.069  0.00  0.00    +0.033 C 
ATOM      4  C   UNL     1      33.890 -23.712 -15.247  0.00  0.00    +0.017 C 
ATOM      5  C   UNL     1      36.113 -23.435 -15.533  0.00  0.00    +0.132 C 
ATOM      6  C   UNL     1      36.089 -21.882 -17.734  0.00  0.00    +0.019 C 
ATOM      7  C   UNL     1      34.862 -22.289 -17.216  0.00  0.00    +0.004 C 
ATOM      8  C   UNL     1      34.550 -24.394 -14.248  0.00  0.00    +0.063 C 
ATOM      9  C   UNL     1      37.254 -22.290 -17.099  0.00  0.00    +0.100 C 
ATOM     10  H   UNL     1      36.602 -24.600 -13.858  0.00  0.00    +0.154 HD
ENDROOT
BRANCH   6  11
ATOM     11  C   UNL     1      36.148 -21.047 -18.914  0.00  0.00    +0.001 C 
ATOM     12  C   UNL     1      35.040 -20.040 -20.832  0.00  0.00    +0.000 C 
ATOM     13  C   UNL     1      35.001 -20.847 -19.683  0.00  0.00    +0.000 C 
ATOM     14  C   UNL     1      36.260 -19.427 -21.206  0.00  0.00    +0.000 C 
ATOM     15  C   UNL     1      37.347 -20.445 -19.282  0.00  0.00    +0.000 C 
ATOM     16  C   UNL     1      37.405 -19.640 -20.420  0.00  0.00    +0.000 C 
ATOM     17  C   UNL     1      33.895 -19.827 -21.618  0.00  0.00    +0.000 C 
ATOM     18  C   UNL     1      36.299 -18.621 -22.355  0.00  0.00    +0.000 C 
ATOM     19  C   UNL     1      33.954 -19.022 -22.756  0.00  0.00    +0.000 C 
ATOM     20  C   UNL     1      35.153 -18.420 -23.124  0.00  0.00    +0.000 C 
ENDBRANCH   6  11
BRANCH   4  21
ATOM     21  C   UNL     1      32.459 -23.689 -15.348  0.00  0.00    +0.001 C 
ATOM     22  C   UNL     1      31.680 -24.319 -14.377  0.00  0.00    -0.000 C 
ATOM     23  C   UNL     1      31.844 -23.038 -16.418  0.00  0.00    -0.000 C 
ATOM     24  C   UNL     1      29.676 -23.645 -15.546  0.00  0.00    -0.011 C 
ATOM     25  C   UNL     1      30.289 -24.297 -14.476  0.00  0.00    -0.004 C 
ATOM     26  C   UNL     1      30.454 -23.015 -16.517  0.00  0.00    -0.004 C 
BRANCH  24  27
ATOM     27  C   UNL     1      28.188 -23.619 -15.649  0.00  0.00    +0.136 C 
BRANCH  27  29
ATOM     28  O   UNL     1      27.526 -21.559 -16.765  0.00  0.00    -0.250 OA
ATOM     29  C   UNL     1      27.676 -22.773 -16.797  0.00  0.00    +0.318 C 
BRANCH  29  30
ATOM     30  O   UNL     1      27.394 -23.525 -17.894  0.00  0.00    -0.480 OA
ATOM     31  H   UNL     1      27.970 -23.507 -18.634  0.00  0.00    +0.295 HD
ENDBRANCH  29  30
ENDBRANCH  27  29
ENDBRANCH  24  27
ENDBRANCH   4  21
TORSDOF 5
ENDMDL
MODEL 7
REMARK VINA RESULT:     -11.3      7.410     12.090
REMARK  Name = 11952989
REMARK  5 active torsions:
REMARK  status: ('A' for Active; 'I' for Inactive)
REMARK    1  A    between atoms: C_4  and  C_21
REMARK    2  A    between atoms: C_6  and  C_11
REMARK    3  A    between atoms: C_24  and  C_27
REMARK    4  A    between atoms: C_27  and  C_29
REMARK    5  A    between atoms: C_29  and  O_30
REMARK                            x       y       z     vdW  Elec       q    Type
REMARK                         _______ _______ _______ _____ _____    ______ ____
ROOT
ATOM      1  N   UNL     1      32.092 -24.466 -14.866  0.00  0.00    -0.297 N 
ATOM      2  N   UNL     1      31.390 -23.103 -16.724  0.00  0.00    -0.229 NA
ATOM      3  C   UNL     1      33.717 -23.555 -16.096  0.00  0.00    +0.033 C 
ATOM      4  C   UNL     1      34.304 -24.320 -15.053  0.00  0.00    +0.017 C 
ATOM      5  C   UNL     1      32.337 -23.667 -15.951  0.00  0.00    +0.132 C 
ATOM      6  C   UNL     1      33.255 -22.165 -17.990  0.00  0.00    +0.019 C 
ATOM      7  C   UNL     1      34.194 -22.772 -17.159  0.00  0.00    +0.004 C 
ATOM      8  C   UNL     1      33.279 -24.869 -14.312  0.00  0.00    +0.063 C 
ATOM      9  C   UNL     1      31.906 -22.361 -17.732  0.00  0.00    +0.100 C 
ATOM     10  H   UNL     1      31.198 -24.714 -14.534  0.00  0.00    +0.154 HD
ENDROOT
BRANCH   6  11
ATOM     11  C   UNL     1      33.681 -21.345 -19.103  0.00  0.00    +0.001 C 
ATOM     12  C   UNL     1      35.465 -20.255 -20.348  0.00  0.00    +0.000 C 
ATOM     13  C   UNL     1      35.034 -21.050 -19.274  0.00  0.00    +0.000 C 
ATOM     14  C   UNL     1      34.508 -19.752 -21.263  0.00  0.00    +0.000 C 
ATOM     15  C   UNL     1      32.741 -20.850 -20.002  0.00  0.00    +0.000 C 
ATOM     16  C   UNL     1      33.151 -20.059 -21.076  0.00  0.00    +0.000 C 
ATOM     17  C   UNL     1      36.823 -19.948 -20.536  0.00  0.00    +0.000 C 
ATOM     18  C   UNL     1      34.939 -18.957 -22.338  0.00  0.00    +0.000 C 
ATOM     19  C   UNL     1      37.231 -19.156 -21.610  0.00  0.00    +0.000 C 
ATOM     20  C   UNL     1      36.292 -18.661 -22.509  0.00  0.00    +0.000 C 
ENDBRANCH   6  11
BRANCH   4  21
ATOM     21  C   UNL     1      35.685 -24.544 -14.739  0.00  0.00    +0.001 C 
ATOM     22  C   UNL     1      36.553 -23.461 -14.590  0.00  0.00    -0.000 C 
ATOM     23  C   UNL     1      36.164 -25.845 -14.581  0.00  0.00    -0.000 C 
ATOM     24  C   UNL     1      38.373 -24.980 -14.126  0.00  0.00    -0.011 C 
ATOM     25  C   UNL     1      37.895 -23.679 -14.284  0.00  0.00    -0.004 C 
ATOM     26  C   UNL     1      37.507 -26.064 -14.275  0.00  0.00    -0.004 C 
BRANCH  24  27
ATOM     27  C   UNL     1      39.809 -25.212 -13.797  0.00  0.00    +0.136 C 
BRANCH  27  29
ATOM     28  O   UNL     1      41.235 -27.051 -14.515  0.00  0.00    -0.250 OA
ATOM     29  C   UNL     1      40.524 -26.096 -14.799  0.00  0.00    +0.318 C 
BRANCH  29  30
ATOM     30  O   UNL     1      40.286 -25.706 -16.079  0.00  0.00    -0.480 OA
ATOM     31  H   UNL     1      39.773 -26.248 -16.646  0.00  0.00    +0.295 HD
ENDBRANCH  29  30
ENDBRANCH  27  29
ENDBRANCH  24  27
ENDBRANCH   4  21
TORSDOF 5
ENDMDL
MODEL 8
REMARK VINA RESULT:     -11.1      5.575     11.364
REMARK  Name = 11952989
REMARK  5 active torsions:
REMARK  status: ('A' for Active; 'I' for Inactive)
REMARK    1  A    between atoms: C_4  and  C_21
REMARK    2  A    between atoms: C_6  and  C_11
REMARK    3  A    between atoms: C_24  and  C_27
REMARK    4  A    between atoms: C_27  and  C_29
REMARK    5  A    between atoms: C_29  and  O_30
REMARK                            x       y       z     vdW  Elec       q    Type
REMARK                         _______ _______ _______ _____ _____    ______ ____
ROOT
ATOM      1  N   UNL     1      31.429 -10.271 -19.747  0.00  0.00    -0.297 N 
ATOM      2  N   UNL     1      31.666  -8.003 -20.523  0.00  0.00    -0.229 NA
ATOM      3  C   UNL     1      32.284 -10.008 -21.792  0.00  0.00    +0.033 C 
ATOM      4  C   UNL     1      32.215 -11.396 -21.498  0.00  0.00    +0.017 C 
ATOM      5  C   UNL     1      31.786  -9.334 -20.680  0.00  0.00    +0.132 C 
ATOM      6  C   UNL     1      32.610  -7.846 -22.769  0.00  0.00    +0.019 C 
ATOM      7  C   UNL     1      32.713  -9.231 -22.880  0.00  0.00    +0.004 C 
ATOM      8  C   UNL     1      31.684 -11.527 -20.233  0.00  0.00    +0.063 C 
ATOM      9  C   UNL     1      32.093  -7.304 -21.600  0.00  0.00    +0.100 C 
ATOM     10  H   UNL     1      31.045 -10.073 -18.861  0.00  0.00    +0.154 HD
ENDROOT
BRANCH   6  11
ATOM     11  C   UNL     1      33.035  -6.988 -23.854  0.00  0.00    +0.001 C 
ATOM     12  C   UNL     1      32.582  -5.143 -25.373  0.00  0.00    +0.000 C 
ATOM     13  C   UNL     1      32.186  -5.984 -24.321  0.00  0.00    +0.000 C 
ATOM     14  C   UNL     1      33.858  -5.323 -25.960  0.00  0.00    +0.000 C 
ATOM     15  C   UNL     1      34.288  -7.166 -24.431  0.00  0.00    +0.000 C 
ATOM     16  C   UNL     1      34.699  -6.339 -25.477  0.00  0.00    +0.000 C 
ATOM     17  C   UNL     1      31.742  -4.127 -25.856  0.00  0.00    +0.000 C 
ATOM     18  C   UNL     1      34.254  -4.482 -27.013  0.00  0.00    +0.000 C 
ATOM     19  C   UNL     1      32.153  -3.301 -26.903  0.00  0.00    +0.000 C 
ATOM     20  C   UNL     1      33.406  -3.478 -27.480  0.00  0.00    +0.000 C 
ENDBRANCH   6  11
BRANCH   4  21
ATOM     21  C   UNL     1      32.598 -12.527 -22.293  0.00  0.00    +0.001 C 
ATOM     22  C   UNL     1      32.407 -13.820 -21.805  0.00  0.00    -0.000 C 
ATOM     23  C   UNL     1      33.160 -12.336 -23.555  0.00  0.00    -0.000 C 
ATOM     24  C   UNL     1      33.341 -14.727 -23.840  0.00  0.00    -0.011 C 
ATOM     25  C   UNL     1      32.779 -14.919 -22.578  0.00  0.00    -0.004 C 
ATOM     26  C   UNL     1      33.532 -13.435 -24.329  0.00  0.00    -0.004 C 
BRANCH  24  27
ATOM     27  C   UNL     1      33.737 -15.904 -24.667  0.00  0.00    +0.136 C 
BRANCH  27  29
ATOM     28  O   UNL     1      34.642 -18.018 -23.866  0.00  0.00    -0.250 OA
ATOM     29  C   UNL     1      34.750 -16.805 -23.991  0.00  0.00    +0.318 C 
BRANCH  29  30
ATOM     30  O   UNL     1      35.819 -16.106 -23.526  0.00  0.00    -0.480 OA
ATOM     31  H   UNL     1      36.349 -15.611 -24.119  0.00  0.00    +0.295 HD
ENDBRANCH  29  30
ENDBRANCH  27  29
ENDBRANCH  24  27
ENDBRANCH   4  21
TORSDOF 5
ENDMDL
MODEL 9
REMARK VINA RESULT:     -11.0      4.621      7.327
REMARK  Name = 11952989
REMARK  5 active torsions:
REMARK  status: ('A' for Active; 'I' for Inactive)
REMARK    1  A    between atoms: C_4  and  C_21
REMARK    2  A    between atoms: C_6  and  C_11
REMARK    3  A    between atoms: C_24  and  C_27
REMARK    4  A    between atoms: C_27  and  C_29
REMARK    5  A    between atoms: C_29  and  O_30
REMARK                            x       y       z     vdW  Elec       q    Type
REMARK                         _______ _______ _______ _____ _____    ______ ____
ROOT
ATOM      1  N   UNL     1      31.539  -8.846 -20.358  0.00  0.00    -0.297 N 
ATOM      2  N   UNL     1      31.620 -11.252 -20.418  0.00  0.00    -0.229 NA
ATOM      3  C   UNL     1      32.423  -9.762 -22.192  0.00  0.00    +0.033 C 
ATOM      4  C   UNL     1      32.456  -8.348 -22.323  0.00  0.00    +0.017 C 
ATOM      5  C   UNL     1      31.847 -10.039 -20.956  0.00  0.00    +0.132 C 
ATOM      6  C   UNL     1      32.606 -12.133 -22.471  0.00  0.00    +0.019 C 
ATOM      7  C   UNL     1      32.819 -10.854 -22.980  0.00  0.00    +0.004 C 
ATOM      8  C   UNL     1      31.905  -7.811 -21.179  0.00  0.00    +0.063 C 
ATOM      9  C   UNL     1      32.020 -12.267 -21.220  0.00  0.00    +0.100 C 
ATOM     10  H   UNL     1      31.120  -8.746 -19.472  0.00  0.00    +0.154 HD
ENDROOT
BRANCH   6  11
ATOM     11  C   UNL     1      32.990 -13.301 -23.233  0.00  0.00    +0.001 C 
ATOM     12  C   UNL     1      34.029 -15.498 -23.329  0.00  0.00    +0.000 C 
ATOM     13  C   UNL     1      33.649 -14.358 -22.604  0.00  0.00    +0.000 C 
ATOM     14  C   UNL     1      33.737 -15.568 -24.713  0.00  0.00    +0.000 C 
ATOM     15  C   UNL     1      32.703 -13.369 -24.593  0.00  0.00    +0.000 C 
ATOM     16  C   UNL     1      33.074 -14.495 -25.330  0.00  0.00    +0.000 C 
ATOM     17  C   UNL     1      34.693 -16.572 -22.712  0.00  0.00    +0.000 C 
ATOM     18  C   UNL     1      34.118 -16.709 -25.438  0.00  0.00    +0.000 C 
ATOM     19  C   UNL     1      35.063 -17.697 -23.450  0.00  0.00    +0.000 C 
ATOM     20  C   UNL     1      34.777 -17.766 -24.809  0.00  0.00    +0.000 C 
ENDBRANCH   6  11
BRANCH   4  21
ATOM     21  C   UNL     1      32.944  -7.532 -23.397  0.00  0.00    +0.001 C 
ATOM     22  C   UNL     1      34.285  -7.604 -23.775  0.00  0.00    -0.000 C 
ATOM     23  C   UNL     1      32.078  -6.667 -24.067  0.00  0.00    -0.000 C 
ATOM     24  C   UNL     1      33.893  -5.947 -25.489  0.00  0.00    -0.011 C 
ATOM     25  C   UNL     1      34.759  -6.812 -24.820  0.00  0.00    -0.004 C 
ATOM     26  C   UNL     1      32.552  -5.874 -25.112  0.00  0.00    -0.004 C 
BRANCH  24  27
ATOM     27  C   UNL     1      34.400  -5.102 -26.608  0.00  0.00    +0.136 C 
BRANCH  27  29
ATOM     28  O   UNL     1      33.170  -3.002 -26.540  0.00  0.00    -0.250 OA
ATOM     29  C   UNL     1      33.399  -4.071 -27.090  0.00  0.00    +0.318 C 
BRANCH  29  30
ATOM     30  O   UNL     1      32.767  -4.470 -28.225  0.00  0.00    -0.480 OA
ATOM     31  H   UNL     1      32.213  -5.226 -28.212  0.00  0.00    +0.295 HD
ENDBRANCH  29  30
ENDBRANCH  27  29
ENDBRANCH  24  27
ENDBRANCH   4  21
TORSDOF 5
ENDMDL
