MODEL 1
REMARK VINA RESULT:      -9.3      0.000      0.000
REMARK  Name = 6604901
REMARK  5 active torsions:
REMARK  status: ('A' for Active; 'I' for Inactive)
REMARK    1  A    between atoms: C_2  and  O_24
REMARK    2  A    between atoms: C_3  and  N_6
REMARK    3  A    between atoms: C_4  and  O_26
REMARK    4  A    between atoms: C_5  and  C_20
REMARK    5  A    between atoms: N_19  and  C_22
REMARK                            x       y       z     vdW  Elec       q    Type
REMARK                         _______ _______ _______ _____ _____    ______ ____
ROOT
ATOM      1  O   UNL     1      33.767 -16.822 -21.610  0.00  0.00    -0.326 OA
ATOM      2  C   UNL     1      35.442 -17.977 -22.838  0.00  0.00    +0.187 C 
ATOM      3  C   UNL     1      34.814 -17.798 -21.465  0.00  0.00    +0.225 C 
ATOM      4  C   UNL     1      35.268 -16.600 -23.439  0.00  0.00    +0.178 C 
ATOM      5  C   UNL     1      33.927 -16.167 -22.873  0.00  0.00    +0.222 C 
ENDROOT
BRANCH   3   6
ATOM      6  N   UNL     1      34.247 -19.028 -20.914  0.00  0.00    -0.247 N 
ATOM      7  N   UNL     1      32.721 -20.562 -20.372  0.00  0.00    -0.242 NA
ATOM      8  N   UNL     1      36.237 -20.083 -20.003  0.00  0.00    -0.228 NA
ATOM      9  N   UNL     1      35.708 -22.227 -18.961  0.00  0.00    -0.229 NA
ATOM     10  C   UNL     1      34.923 -20.024 -20.267  0.00  0.00    +0.152 C 
ATOM     11  C   UNL     1      32.928 -19.398 -20.951  0.00  0.00    +0.223 C 
ATOM     12  C   UNL     1      33.960 -20.965 -19.939  0.00  0.00    +0.140 C 
ATOM     13  C   UNL     1      34.393 -22.100 -19.262  0.00  0.00    +0.143 C 
ATOM     14  C   UNL     1      36.537 -21.225 -19.345  0.00  0.00    +0.253 C 
ATOM     15  N   UNL     1      33.483 -23.106 -18.893  0.00  0.00    -0.342 N 
ATOM     16  H   UNL     1      33.801 -23.906 -18.413  0.00  0.00    +0.144 HD
ATOM     17  H   UNL     1      32.528 -23.013 -19.113  0.00  0.00    +0.144 HD
ENDBRANCH   3   6
BRANCH   5  20
ATOM     18  O   UNL     1      33.900 -14.267 -21.436  0.00  0.00    -0.272 OA
ATOM     19  N   UNL     1      33.856 -13.942 -23.740  0.00  0.00    -0.302 N 
ATOM     20  C   UNL     1      33.902 -14.703 -22.584  0.00  0.00    +0.252 C 
ATOM     21  H   UNL     1      33.862 -14.407 -24.608  0.00  0.00    +0.150 HD
BRANCH  19  22
ATOM     22  C   UNL     1      33.801 -12.498 -23.735  0.00  0.00    +0.090 C 
ATOM     23  C   UNL     1      33.862 -11.940 -25.146  0.00  0.00    +0.023 C 
ENDBRANCH  19  22
ENDBRANCH   5  20
BRANCH   2  24
ATOM     24  O   UNL     1      36.810 -18.326 -22.725  0.00  0.00    -0.378 OA
ATOM     25  H   UNL     1      37.359 -17.552 -22.923  0.00  0.00    +0.211 HD
ENDBRANCH   2  24
BRANCH   4  26
ATOM     26  O   UNL     1      35.235 -16.671 -24.853  0.00  0.00    -0.379 OA
ATOM     27  H   UNL     1      35.595 -17.524 -25.142  0.00  0.00    +0.211 HD
ENDBRANCH   4  26
TORSDOF 5
ENDMDL
MODEL 2
REMARK VINA RESULT:      -8.9      1.512      2.872
REMARK  Name = 6604901
REMARK  5 active torsions:
REMARK  status: ('A' for Active; 'I' for Inactive)
REMARK    1  A    between atoms: C_2  and  O_24
REMARK    2  A    between atoms: C_3  and  N_6
REMARK    3  A    between atoms: C_4  and  O_26
REMARK    4  A    between atoms: C_5  and  C_20
REMARK    5  A    between atoms: N_19  and  C_22
REMARK                            x       y       z     vdW  Elec       q    Type
REMARK                         _______ _______ _______ _____ _____    ______ ____
ROOT
ATOM      1  O   UNL     1      34.595 -17.426 -23.492  0.00  0.00    -0.326 OA
ATOM      2  C   UNL     1      34.329 -16.031 -21.586  0.00  0.00    +0.187 C 
ATOM      3  C   UNL     1      34.154 -17.443 -22.123  0.00  0.00    +0.225 C 
ATOM      4  C   UNL     1      34.101 -15.199 -22.828  0.00  0.00    +0.178 C 
ATOM      5  C   UNL     1      34.713 -16.064 -23.915  0.00  0.00    +0.222 C 
ENDROOT
BRANCH   3   6
ATOM      6  N   UNL     1      34.917 -18.450 -21.388  0.00  0.00    -0.247 N 
ATOM      7  N   UNL     1      36.676 -19.512 -20.521  0.00  0.00    -0.242 NA
ATOM      8  N   UNL     1      33.131 -19.900 -20.604  0.00  0.00    -0.228 NA
ATOM      9  N   UNL     1      34.009 -21.763 -19.295  0.00  0.00    -0.229 NA
ATOM     10  C   UNL     1      34.416 -19.534 -20.722  0.00  0.00    +0.152 C 
ATOM     11  C   UNL     1      36.278 -18.482 -21.238  0.00  0.00    +0.223 C 
ATOM     12  C   UNL     1      35.522 -20.179 -20.192  0.00  0.00    +0.140 C 
ATOM     13  C   UNL     1      35.284 -21.334 -19.454  0.00  0.00    +0.143 C 
ATOM     14  C   UNL     1      33.026 -21.030 -19.871  0.00  0.00    +0.253 C 
ATOM     15  N   UNL     1      36.348 -22.050 -18.879  0.00  0.00    -0.342 N 
ATOM     16  H   UNL     1      36.169 -22.867 -18.359  0.00  0.00    +0.144 HD
ATOM     17  H   UNL     1      37.274 -21.736 -18.996  0.00  0.00    +0.144 HD
ENDBRANCH   3   6
BRANCH   5  20
ATOM     18  O   UNL     1      33.838 -16.911 -25.962  0.00  0.00    -0.272 OA
ATOM     19  N   UNL     1      33.428 -14.692 -25.390  0.00  0.00    -0.302 N 
ATOM     20  C   UNL     1      33.949 -15.960 -25.193  0.00  0.00    +0.252 C 
ATOM     21  H   UNL     1      33.584 -14.009 -24.699  0.00  0.00    +0.150 HD
BRANCH  19  22
ATOM     22  C   UNL     1      32.667 -14.323 -26.562  0.00  0.00    +0.090 C 
ATOM     23  C   UNL     1      33.305 -13.149 -27.284  0.00  0.00    +0.023 C 
ENDBRANCH  19  22
ENDBRANCH   5  20
BRANCH   2  24
ATOM     24  O   UNL     1      33.368 -15.749 -20.586  0.00  0.00    -0.378 OA
ATOM     25  H   UNL     1      32.486 -15.704 -20.988  0.00  0.00    +0.211 HD
ENDBRANCH   2  24
BRANCH   4  26
ATOM     26  O   UNL     1      34.764 -13.951 -22.723  0.00  0.00    -0.379 OA
ATOM     27  H   UNL     1      34.294 -13.290 -23.253  0.00  0.00    +0.211 HD
ENDBRANCH   4  26
TORSDOF 5
ENDMDL
MODEL 3
REMARK VINA RESULT:      -8.7      2.972      8.441
REMARK  Name = 6604901
REMARK  5 active torsions:
REMARK  status: ('A' for Active; 'I' for Inactive)
REMARK    1  A    between atoms: C_2  and  O_24
REMARK    2  A    between atoms: C_3  and  N_6
REMARK    3  A    between atoms: C_4  and  O_26
REMARK    4  A    between atoms: C_5  and  C_20
REMARK    5  A    between atoms: N_19  and  C_22
REMARK                            x       y       z     vdW  Elec       q    Type
REMARK                         _______ _______ _______ _____ _____    ______ ____
ROOT
ATOM      1  O   UNL     1      34.098 -14.473 -22.983  0.00  0.00    -0.326 OA
ATOM      2  C   UNL     1      33.476 -14.588 -25.273  0.00  0.00    +0.187 C 
ATOM      3  C   UNL     1      33.178 -13.919 -23.941  0.00  0.00    +0.225 C 
ATOM      4  C   UNL     1      33.951 -15.955 -24.834  0.00  0.00    +0.178 C 
ATOM      5  C   UNL     1      34.699 -15.641 -23.551  0.00  0.00    +0.222 C 
ENDROOT
BRANCH   3   6
ATOM      6  N   UNL     1      33.331 -12.466 -23.965  0.00  0.00    -0.247 N 
ATOM      7  N   UNL     1      34.050 -10.454 -24.608  0.00  0.00    -0.242 NA
ATOM      8  N   UNL     1      31.865 -11.817 -22.140  0.00  0.00    -0.228 NA
ATOM      9  N   UNL     1      31.836  -9.395 -21.841  0.00  0.00    -0.229 NA
ATOM     10  C   UNL     1      32.723 -11.563 -23.139  0.00  0.00    +0.152 C 
ATOM     11  C   UNL     1      34.119 -11.751 -24.830  0.00  0.00    +0.223 C 
ATOM     12  C   UNL     1      33.182 -10.322 -23.554  0.00  0.00    +0.140 C 
ATOM     13  C   UNL     1      32.706  -9.212 -22.864  0.00  0.00    +0.143 C 
ATOM     14  C   UNL     1      31.475 -10.668 -21.547  0.00  0.00    +0.253 C 
ATOM     15  N   UNL     1      33.117  -7.916 -23.220  0.00  0.00    -0.342 N 
ATOM     16  H   UNL     1      32.774  -7.137 -22.724  0.00  0.00    +0.144 HD
ATOM     17  H   UNL     1      33.749  -7.786 -23.963  0.00  0.00    +0.144 HD
ENDBRANCH   3   6
BRANCH   5  20
ATOM     18  O   UNL     1      33.914 -16.546 -21.492  0.00  0.00    -0.272 OA
ATOM     19  N   UNL     1      35.160 -17.898 -22.920  0.00  0.00    -0.302 N 
ATOM     20  C   UNL     1      34.530 -16.726 -22.539  0.00  0.00    +0.252 C 
ATOM     21  H   UNL     1      35.626 -17.921 -23.786  0.00  0.00    +0.150 HD
BRANCH  19  22
ATOM     22  C   UNL     1      35.167 -19.092 -22.104  0.00  0.00    +0.090 C 
ATOM     23  C   UNL     1      36.275 -19.042 -21.066  0.00  0.00    +0.023 C 
ENDBRANCH  19  22
ENDBRANCH   5  20
BRANCH   2  24
ATOM     24  O   UNL     1      32.307 -14.673 -26.067  0.00  0.00    -0.378 OA
ATOM     25  H   UNL     1      32.540 -14.990 -26.954  0.00  0.00    +0.211 HD
ENDBRANCH   2  24
BRANCH   4  26
ATOM     26  O   UNL     1      34.808 -16.525 -25.808  0.00  0.00    -0.379 OA
ATOM     27  H   UNL     1      35.091 -17.404 -25.514  0.00  0.00    +0.211 HD
ENDBRANCH   4  26
TORSDOF 5
ENDMDL
MODEL 4
REMARK VINA RESULT:      -8.7      5.047      8.539
REMARK  Name = 6604901
REMARK  5 active torsions:
REMARK  status: ('A' for Active; 'I' for Inactive)
REMARK    1  A    between atoms: C_2  and  O_24
REMARK    2  A    between atoms: C_3  and  N_6
REMARK    3  A    between atoms: C_4  and  O_26
REMARK    4  A    between atoms: C_5  and  C_20
REMARK    5  A    between atoms: N_19  and  C_22
REMARK                            x       y       z     vdW  Elec       q    Type
REMARK                         _______ _______ _______ _____ _____    ______ ____
ROOT
ATOM      1  O   UNL     1      32.310 -22.576 -17.582  0.00  0.00    -0.326 OA
ATOM      2  C   UNL     1      34.158 -23.257 -16.252  0.00  0.00    +0.187 C 
ATOM      3  C   UNL     1      33.653 -23.084 -17.676  0.00  0.00    +0.225 C 
ATOM      4  C   UNL     1      32.882 -23.588 -15.510  0.00  0.00    +0.178 C 
ATOM      5  C   UNL     1      31.856 -22.735 -16.234  0.00  0.00    +0.222 C 
ENDROOT
BRANCH   3   6
ATOM      6  N   UNL     1      34.457 -22.164 -18.477  0.00  0.00    -0.247 N 
ATOM      7  N   UNL     1      36.256 -21.092 -19.245  0.00  0.00    -0.242 NA
ATOM      8  N   UNL     1      32.744 -21.143 -19.865  0.00  0.00    -0.228 NA
ATOM      9  N   UNL     1      33.702 -19.496 -21.391  0.00  0.00    -0.229 NA
ATOM     10  C   UNL     1      34.007 -21.312 -19.447  0.00  0.00    +0.152 C 
ATOM     11  C   UNL     1      35.814 -21.994 -18.393  0.00  0.00    +0.223 C 
ATOM     12  C   UNL     1      35.138 -20.658 -19.910  0.00  0.00    +0.140 C 
ATOM     13  C   UNL     1      34.952 -19.719 -20.920  0.00  0.00    +0.143 C 
ATOM     14  C   UNL     1      32.689 -20.211 -20.842  0.00  0.00    +0.253 C 
ATOM     15  N   UNL     1      36.044 -19.011 -21.451  0.00  0.00    -0.342 N 
ATOM     16  H   UNL     1      35.901 -18.348 -22.165  0.00  0.00    +0.144 HD
ATOM     17  H   UNL     1      36.952 -19.175 -21.108  0.00  0.00    +0.144 HD
ENDBRANCH   3   6
BRANCH   5  20
ATOM     18  O   UNL     1      30.397 -24.604 -16.005  0.00  0.00    -0.272 OA
ATOM     19  N   UNL     1      29.542 -22.595 -16.813  0.00  0.00    -0.302 N 
ATOM     20  C   UNL     1      30.535 -23.426 -16.322  0.00  0.00    +0.252 C 
ATOM     21  H   UNL     1      29.776 -21.665 -17.034  0.00  0.00    +0.150 HD
BRANCH  19  22
ATOM     22  C   UNL     1      28.178 -23.029 -17.017  0.00  0.00    +0.090 C 
ATOM     23  C   UNL     1      27.232 -22.340 -16.048  0.00  0.00    +0.023 C 
ENDBRANCH  19  22
ENDBRANCH   5  20
BRANCH   2  24
ATOM     24  O   UNL     1      35.095 -24.315 -16.175  0.00  0.00    -0.378 OA
ATOM     25  H   UNL     1      35.260 -24.668 -17.064  0.00  0.00    +0.211 HD
ENDBRANCH   2  24
BRANCH   4  26
ATOM     26  O   UNL     1      32.989 -23.223 -14.145  0.00  0.00    -0.379 OA
ATOM     27  H   UNL     1      32.155 -22.824 -13.851  0.00  0.00    +0.211 HD
ENDBRANCH   4  26
TORSDOF 5
ENDMDL
MODEL 5
REMARK VINA RESULT:      -8.7      8.064     11.267
REMARK  Name = 6604901
REMARK  5 active torsions:
REMARK  status: ('A' for Active; 'I' for Inactive)
REMARK    1  A    between atoms: C_2  and  O_24
REMARK    2  A    between atoms: C_3  and  N_6
REMARK    3  A    between atoms: C_4  and  O_26
REMARK    4  A    between atoms: C_5  and  C_20
REMARK    5  A    between atoms: N_19  and  C_22
REMARK                            x       y       z     vdW  Elec       q    Type
REMARK                         _______ _______ _______ _____ _____    ______ ____
ROOT
ATOM      1  O   UNL     1      35.787 -25.254 -14.859  0.00  0.00    -0.326 OA
ATOM      2  C   UNL     1      35.459 -24.322 -12.697  0.00  0.00    +0.187 C 
ATOM      3  C   UNL     1      35.323 -24.067 -14.190  0.00  0.00    +0.225 C 
ATOM      4  C   UNL     1      36.659 -25.241 -12.649  0.00  0.00    +0.178 C 
ATOM      5  C   UNL     1      36.486 -26.067 -13.911  0.00  0.00    +0.222 C 
ENDROOT
BRANCH   3   6
ATOM      6  N   UNL     1      33.954 -23.783 -14.616  0.00  0.00    -0.247 N 
ATOM      7  N   UNL     1      31.739 -23.551 -14.498  0.00  0.00    -0.242 NA
ATOM      8  N   UNL     1      34.312 -23.168 -16.939  0.00  0.00    -0.228 NA
ATOM      9  N   UNL     1      32.209 -22.604 -18.042  0.00  0.00    -0.229 NA
ATOM     10  C   UNL     1      33.547 -23.382 -15.858  0.00  0.00    +0.152 C 
ATOM     11  C   UNL     1      32.831 -23.870 -13.835  0.00  0.00    +0.223 C 
ATOM     12  C   UNL     1      32.172 -23.244 -15.764  0.00  0.00    +0.140 C 
ATOM     13  C   UNL     1      31.500 -22.838 -16.912  0.00  0.00    +0.143 C 
ATOM     14  C   UNL     1      33.552 -22.780 -17.986  0.00  0.00    +0.253 C 
ATOM     15  N   UNL     1      30.104 -22.670 -16.905  0.00  0.00    -0.342 N 
ATOM     16  H   UNL     1      29.639 -22.382 -17.724  0.00  0.00    +0.144 HD
ATOM     17  H   UNL     1      29.591 -22.840 -16.083  0.00  0.00    +0.144 HD
ENDBRANCH   3   6
BRANCH   5  20
ATOM     18  O   UNL     1      38.072 -27.525 -14.926  0.00  0.00    -0.272 OA
ATOM     19  N   UNL     1      38.642 -25.293 -14.590  0.00  0.00    -0.302 N 
ATOM     20  C   UNL     1      37.802 -26.392 -14.537  0.00  0.00    +0.252 C 
ATOM     21  H   UNL     1      38.311 -24.433 -14.244  0.00  0.00    +0.150 HD
BRANCH  19  22
ATOM     22  C   UNL     1      39.983 -25.349 -15.128  0.00  0.00    +0.090 C 
ATOM     23  C   UNL     1      40.898 -26.170 -14.236  0.00  0.00    +0.023 C 
ENDBRANCH  19  22
ENDBRANCH   5  20
BRANCH   2  24
ATOM     24  O   UNL     1      35.699 -23.114 -11.999  0.00  0.00    -0.378 OA
ATOM     25  H   UNL     1      36.096 -22.466 -12.602  0.00  0.00    +0.211 HD
ENDBRANCH   2  24
BRANCH   4  26
ATOM     26  O   UNL     1      36.621 -26.053 -11.488  0.00  0.00    -0.379 OA
ATOM     27  H   UNL     1      36.368 -26.956 -11.735  0.00  0.00    +0.211 HD
ENDBRANCH   4  26
TORSDOF 5
ENDMDL
MODEL 6
REMARK VINA RESULT:      -8.6      8.141     10.750
REMARK  Name = 6604901
REMARK  5 active torsions:
REMARK  status: ('A' for Active; 'I' for Inactive)
REMARK    1  A    between atoms: C_2  and  O_24
REMARK    2  A    between atoms: C_3  and  N_6
REMARK    3  A    between atoms: C_4  and  O_26
REMARK    4  A    between atoms: C_5  and  C_20
REMARK    5  A    between atoms: N_19  and  C_22
REMARK                            x       y       z     vdW  Elec       q    Type
REMARK                         _______ _______ _______ _____ _____    ______ ____
ROOT
ATOM      1  O   UNL     1      35.777 -23.816 -15.815  0.00  0.00    -0.326 OA
ATOM      2  C   UNL     1      34.626 -24.227 -13.776  0.00  0.00    +0.187 C 
ATOM      3  C   UNL     1      34.729 -23.297 -14.975  0.00  0.00    +0.225 C 
ATOM      4  C   UNL     1      36.055 -24.697 -13.626  0.00  0.00    +0.178 C 
ATOM      5  C   UNL     1      36.521 -24.783 -15.068  0.00  0.00    +0.222 C 
ENDROOT
BRANCH   3   6
ATOM      6  N   UNL     1      33.496 -23.202 -15.753  0.00  0.00    -0.247 N 
ATOM      7  N   UNL     1      32.158 -23.032 -17.530  0.00  0.00    -0.242 NA
ATOM      8  N   UNL     1      31.830 -23.275 -13.986  0.00  0.00    -0.228 NA
ATOM      9  N   UNL     1      29.567 -23.137 -14.893  0.00  0.00    -0.229 NA
ATOM     10  C   UNL     1      32.218 -23.196 -15.268  0.00  0.00    +0.152 C 
ATOM     11  C   UNL     1      33.407 -23.101 -17.117  0.00  0.00    +0.223 C 
ATOM     12  C   UNL     1      31.405 -23.090 -16.385  0.00  0.00    +0.140 C 
ATOM     13  C   UNL     1      30.031 -23.062 -16.163  0.00  0.00    +0.143 C 
ATOM     14  C   UNL     1      30.482 -23.238 -13.897  0.00  0.00    +0.253 C 
ATOM     15  N   UNL     1      29.133 -22.959 -17.239  0.00  0.00    -0.342 N 
ATOM     16  H   UNL     1      28.163 -22.940 -17.071  0.00  0.00    +0.144 HD
ATOM     17  H   UNL     1      29.473 -22.905 -18.162  0.00  0.00    +0.144 HD
ENDBRANCH   3   6
BRANCH   5  20
ATOM     18  O   UNL     1      38.292 -23.268 -15.559  0.00  0.00    -0.272 OA
ATOM     19  N   UNL     1      38.812 -25.442 -14.909  0.00  0.00    -0.302 N 
ATOM     20  C   UNL     1      37.956 -24.395 -15.203  0.00  0.00    +0.252 C 
ATOM     21  H   UNL     1      38.422 -26.303 -14.634  0.00  0.00    +0.150 HD
BRANCH  19  22
ATOM     22  C   UNL     1      40.252 -25.332 -14.988  0.00  0.00    +0.090 C 
ATOM     23  C   UNL     1      40.930 -26.432 -14.189  0.00  0.00    +0.023 C 
ENDBRANCH  19  22
ENDBRANCH   5  20
BRANCH   2  24
ATOM     24  O   UNL     1      34.185 -23.523 -12.629  0.00  0.00    -0.378 OA
ATOM     25  H   UNL     1      33.737 -24.136 -12.025  0.00  0.00    +0.211 HD
ENDBRANCH   2  24
BRANCH   4  26
ATOM     26  O   UNL     1      36.101 -25.962 -12.989  0.00  0.00    -0.379 OA
ATOM     27  H   UNL     1      35.728 -26.635 -13.580  0.00  0.00    +0.211 HD
ENDBRANCH   4  26
TORSDOF 5
ENDMDL
MODEL 7
REMARK VINA RESULT:      -8.6      8.855     10.343
REMARK  Name = 6604901
REMARK  5 active torsions:
REMARK  status: ('A' for Active; 'I' for Inactive)
REMARK    1  A    between atoms: C_2  and  O_24
REMARK    2  A    between atoms: C_3  and  N_6
REMARK    3  A    between atoms: C_4  and  O_26
REMARK    4  A    between atoms: C_5  and  C_20
REMARK    5  A    between atoms: N_19  and  C_22
REMARK                            x       y       z     vdW  Elec       q    Type
REMARK                         _______ _______ _______ _____ _____    ______ ____
ROOT
ATOM      1  O   UNL     1      33.744 -23.516 -15.746  0.00  0.00    -0.326 OA
ATOM      2  C   UNL     1      33.829 -23.965 -13.414  0.00  0.00    +0.187 C 
ATOM      3  C   UNL     1      34.385 -24.360 -14.773  0.00  0.00    +0.225 C 
ATOM      4  C   UNL     1      32.425 -23.530 -13.769  0.00  0.00    +0.178 C 
ATOM      5  C   UNL     1      32.622 -22.878 -15.126  0.00  0.00    +0.222 C 
ENDROOT
BRANCH   3   6
ATOM      6  N   UNL     1      35.834 -24.201 -14.884  0.00  0.00    -0.247 N 
ATOM      7  N   UNL     1      37.807 -23.202 -15.177  0.00  0.00    -0.242 NA
ATOM      8  N   UNL     1      36.577 -26.484 -14.512  0.00  0.00    -0.228 NA
ATOM      9  N   UNL     1      39.010 -26.655 -14.619  0.00  0.00    -0.229 NA
ATOM     10  C   UNL     1      36.779 -25.182 -14.760  0.00  0.00    +0.152 C 
ATOM     11  C   UNL     1      36.502 -23.031 -15.134  0.00  0.00    +0.223 C 
ATOM     12  C   UNL     1      37.994 -24.542 -14.944  0.00  0.00    +0.140 C 
ATOM     13  C   UNL     1      39.138 -25.329 -14.866  0.00  0.00    +0.143 C 
ATOM     14  C   UNL     1      37.756 -27.143 -14.460  0.00  0.00    +0.253 C 
ATOM     15  N   UNL     1      40.412 -24.762 -15.038  0.00  0.00    -0.342 N 
ATOM     16  H   UNL     1      41.216 -25.329 -14.981  0.00  0.00    +0.144 HD
ATOM     17  H   UNL     1      40.503 -23.798 -15.217  0.00  0.00    +0.144 HD
ENDBRANCH   3   6
BRANCH   5  20
ATOM     18  O   UNL     1      31.426 -22.703 -17.179  0.00  0.00    -0.272 OA
ATOM     19  N   UNL     1      30.454 -23.843 -15.398  0.00  0.00    -0.302 N 
ATOM     20  C   UNL     1      31.457 -23.126 -16.026  0.00  0.00    +0.252 C 
ATOM     21  H   UNL     1      30.594 -24.129 -14.466  0.00  0.00    +0.150 HD
BRANCH  19  22
ATOM     22  C   UNL     1      29.209 -24.193 -16.044  0.00  0.00    +0.090 C 
ATOM     23  C   UNL     1      28.167 -23.104 -15.855  0.00  0.00    +0.023 C 
ENDBRANCH  19  22
ENDBRANCH   5  20
BRANCH   2  24
ATOM     24  O   UNL     1      33.824 -25.072 -12.531  0.00  0.00    -0.378 OA
ATOM     25  H   UNL     1      34.710 -25.464 -12.497  0.00  0.00    +0.211 HD
ENDBRANCH   2  24
BRANCH   4  26
ATOM     26  O   UNL     1      31.932 -22.604 -12.816  0.00  0.00    -0.379 OA
ATOM     27  H   UNL     1      31.084 -22.248 -13.122  0.00  0.00    +0.211 HD
ENDBRANCH   4  26
TORSDOF 5
ENDMDL
MODEL 8
REMARK VINA RESULT:      -8.4      1.889      7.280
REMARK  Name = 6604901
REMARK  5 active torsions:
REMARK  status: ('A' for Active; 'I' for Inactive)
REMARK    1  A    between atoms: C_2  and  O_24
REMARK    2  A    between atoms: C_3  and  N_6
REMARK    3  A    between atoms: C_4  and  O_26
REMARK    4  A    between atoms: C_5  and  C_20
REMARK    5  A    between atoms: N_19  and  C_22
REMARK                            x       y       z     vdW  Elec       q    Type
REMARK                         _______ _______ _______ _____ _____    ______ ____
ROOT
ATOM      1  O   UNL     1      33.742 -18.299 -21.304  0.00  0.00    -0.326 OA
ATOM      2  C   UNL     1      36.033 -18.165 -21.922  0.00  0.00    +0.187 C 
ATOM      3  C   UNL     1      34.613 -17.819 -22.344  0.00  0.00    +0.225 C 
ATOM      4  C   UNL     1      35.819 -19.439 -21.136  0.00  0.00    +0.178 C 
ATOM      5  C   UNL     1      34.485 -19.182 -20.459  0.00  0.00    +0.222 C 
ENDROOT
BRANCH   3   6
ATOM      6  N   UNL     1      34.389 -16.387 -22.533  0.00  0.00    -0.247 N 
ATOM      7  N   UNL     1      34.237 -14.217 -22.042  0.00  0.00    -0.242 NA
ATOM      8  N   UNL     1      33.809 -16.319 -24.891  0.00  0.00    -0.228 NA
ATOM      9  N   UNL     1      33.346 -14.038 -25.627  0.00  0.00    -0.229 NA
ATOM     10  C   UNL     1      34.029 -15.759 -23.693  0.00  0.00    +0.152 C 
ATOM     11  C   UNL     1      34.500 -15.418 -21.570  0.00  0.00    +0.223 C 
ATOM     12  C   UNL     1      33.941 -14.415 -23.367  0.00  0.00    +0.140 C 
ATOM     13  C   UNL     1      33.584 -13.542 -24.389  0.00  0.00    +0.143 C 
ATOM     14  C   UNL     1      33.471 -15.377 -25.799  0.00  0.00    +0.253 C 
ATOM     15  N   UNL     1      33.474 -12.161 -24.148  0.00  0.00    -0.342 N 
ATOM     16  H   UNL     1      33.220 -11.552 -24.879  0.00  0.00    +0.144 HD
ATOM     17  H   UNL     1      33.648 -11.803 -23.248  0.00  0.00    +0.144 HD
ENDBRANCH   3   6
BRANCH   5  20
ATOM     18  O   UNL     1      32.552 -20.520 -20.842  0.00  0.00    -0.272 OA
ATOM     19  N   UNL     1      34.330 -21.421 -19.639  0.00  0.00    -0.302 N 
ATOM     20  C   UNL     1      33.675 -20.432 -20.354  0.00  0.00    +0.252 C 
ATOM     21  H   UNL     1      35.232 -21.232 -19.295  0.00  0.00    +0.150 HD
BRANCH  19  22
ATOM     22  C   UNL     1      33.750 -22.719 -19.374  0.00  0.00    +0.090 C 
ATOM     23  C   UNL     1      33.295 -22.832 -17.930  0.00  0.00    +0.023 C 
ENDBRANCH  19  22
ENDBRANCH   5  20
BRANCH   2  24
ATOM     24  O   UNL     1      36.856 -18.382 -23.053  0.00  0.00    -0.378 OA
ATOM     25  H   UNL     1      37.524 -19.053 -22.843  0.00  0.00    +0.211 HD
ENDBRANCH   2  24
BRANCH   4  26
ATOM     26  O   UNL     1      36.856 -19.621 -20.187  0.00  0.00    -0.379 OA
ATOM     27  H   UNL     1      37.232 -20.509 -20.286  0.00  0.00    +0.211 HD
ENDBRANCH   4  26
TORSDOF 5
ENDMDL
MODEL 9
REMARK VINA RESULT:      -8.4      7.561      9.400
REMARK  Name = 6604901
REMARK  5 active torsions:
REMARK  status: ('A' for Active; 'I' for Inactive)
REMARK    1  A    between atoms: C_2  and  O_24
REMARK    2  A    between atoms: C_3  and  N_6
REMARK    3  A    between atoms: C_4  and  O_26
REMARK    4  A    between atoms: C_5  and  C_20
REMARK    5  A    between atoms: N_19  and  C_22
REMARK                            x       y       z     vdW  Elec       q    Type
REMARK                         _______ _______ _______ _____ _____    ______ ____
ROOT
ATOM      1  O   UNL     1      33.906 -23.478 -15.519  0.00  0.00    -0.326 OA
ATOM      2  C   UNL     1      35.287 -22.836 -17.344  0.00  0.00    +0.187 C 
ATOM      3  C   UNL     1      35.114 -22.763 -15.835  0.00  0.00    +0.225 C 
ATOM      4  C   UNL     1      33.851 -22.878 -17.818  0.00  0.00    +0.178 C 
ATOM      5  C   UNL     1      33.175 -23.695 -16.731  0.00  0.00    +0.222 C 
ENDROOT
BRANCH   3   6
ATOM      6  N   UNL     1      36.225 -23.347 -15.086  0.00  0.00    -0.247 N 
ATOM      7  N   UNL     1      37.997 -23.467 -13.738  0.00  0.00    -0.242 NA
ATOM      8  N   UNL     1      36.012 -25.688 -15.699  0.00  0.00    -0.228 NA
ATOM      9  N   UNL     1      37.733 -27.047 -14.627  0.00  0.00    -0.229 NA
ATOM     10  C   UNL     1      36.590 -24.664 -15.055  0.00  0.00    +0.152 C 
ATOM     11  C   UNL     1      37.101 -22.669 -14.280  0.00  0.00    +0.223 C 
ATOM     12  C   UNL     1      37.690 -24.717 -14.214  0.00  0.00    +0.140 C 
ATOM     13  C   UNL     1      38.265 -25.966 -14.007  0.00  0.00    +0.143 C 
ATOM     14  C   UNL     1      36.655 -26.844 -15.422  0.00  0.00    +0.253 C 
ATOM     15  N   UNL     1      39.382 -26.112 -13.167  0.00  0.00    -0.342 N 
ATOM     16  H   UNL     1      39.782 -27.002 -13.028  0.00  0.00    +0.144 HD
ATOM     17  H   UNL     1      39.767 -25.325 -12.718  0.00  0.00    +0.144 HD
ENDBRANCH   3   6
BRANCH   5  20
ATOM     18  O   UNL     1      31.200 -22.468 -17.248  0.00  0.00    -0.272 OA
ATOM     19  N   UNL     1      31.289 -23.683 -15.264  0.00  0.00    -0.302 N 
ATOM     20  C   UNL     1      31.787 -23.213 -16.468  0.00  0.00    +0.252 C 
ATOM     21  H   UNL     1      31.857 -24.277 -14.722  0.00  0.00    +0.150 HD
BRANCH  19  22
ATOM     22  C   UNL     1      29.976 -23.342 -14.766  0.00  0.00    +0.090 C 
ATOM     23  C   UNL     1      28.924 -24.309 -15.284  0.00  0.00    +0.023 C 
ENDBRANCH  19  22
ENDBRANCH   5  20
BRANCH   2  24
ATOM     24  O   UNL     1      35.963 -21.691 -17.830  0.00  0.00    -0.378 OA
ATOM     25  H   UNL     1      35.593 -21.438 -18.690  0.00  0.00    +0.211 HD
ENDBRANCH   2  24
BRANCH   4  26
ATOM     26  O   UNL     1      33.759 -23.517 -19.079  0.00  0.00    -0.379 OA
ATOM     27  H   UNL     1      34.247 -24.355 -19.053  0.00  0.00    +0.211 HD
ENDBRANCH   4  26
TORSDOF 5
ENDMDL
