MODEL 1
REMARK VINA RESULT:      -8.4      0.000      0.000
REMARK  Name = 24199
REMARK  5 active torsions:
REMARK  status: ('A' for Active; 'I' for Inactive)
REMARK    1  A    between atoms: C_1  and  C_2
REMARK    2  A    between atoms: C_1  and  C_8
REMARK    3  A    between atoms: C_1  and  O_14
REMARK    4  A    between atoms: C_1  and  C_16
REMARK    5  A    between atoms: C_16  and  N_18
REMARK                            x       y       z     vdW  Elec       q    Type
REMARK                         _______ _______ _______ _____ _____    ______ ____
ROOT
ATOM      1  C   UNL     1      35.301 -23.486 -15.583  0.00  0.00    +0.088 C 
ENDROOT
BRANCH   1   2
ATOM      2  C   UNL     1      36.563 -23.584 -14.728  0.00  0.00    +0.027 C 
ATOM      3  C   UNL     1      36.239 -23.322 -13.251  0.00  0.00    +0.003 C 
ATOM      4  C   UNL     1      37.234 -24.953 -14.906  0.00  0.00    +0.003 C 
ATOM      5  C   UNL     1      37.476 -23.467 -12.367  0.00  0.00    +0.000 C 
ATOM      6  C   UNL     1      38.469 -25.096 -14.020  0.00  0.00    +0.000 C 
ATOM      7  C   UNL     1      38.144 -24.826 -12.554  0.00  0.00    +0.000 C 
ENDBRANCH   1   2
BRANCH   1   8
ATOM      8  C   UNL     1      35.573 -22.713 -16.878  0.00  0.00    -0.000 C 
ATOM      9  C   UNL     1      34.638 -22.769 -17.885  0.00  0.00    -0.002 C 
ATOM     10  C   UNL     1      36.740 -21.993 -16.980  0.00  0.00    -0.002 C 
ATOM     11  C   UNL     1      34.886 -22.064 -19.063  0.00  0.00    -0.000 C 
ATOM     12  C   UNL     1      36.987 -21.288 -18.159  0.00  0.00    -0.000 C 
ATOM     13  C   UNL     1      36.060 -21.324 -19.200  0.00  0.00    -0.000 C 
ENDBRANCH   1   8
BRANCH   1  14
ATOM     14  O   UNL     1      34.916 -24.830 -15.906  0.00  0.00    -0.385 OA
ATOM     15  H   UNL     1      33.956 -24.868 -16.034  0.00  0.00    +0.211 HD
ENDBRANCH   1  14
BRANCH   1  16
ATOM     16  C   UNL     1      34.126 -22.818 -14.832  0.00  0.00    -0.046 C 
BRANCH  16  18
ATOM     17  N   UNL     1      29.995 -24.017 -14.845  0.00  0.00    +0.384 N 
ATOM     18  N   UNL     1      32.899 -23.613 -14.861  0.00  0.00    +0.386 N 
ATOM     19  C   UNL     1      30.869 -24.283 -13.619  0.00  0.00    -0.097 C 
ATOM     20  C   UNL     1      30.838 -24.143 -16.117  0.00  0.00    -0.097 C 
ATOM     21  C   UNL     1      32.127 -23.417 -13.629  0.00  0.00    -0.100 C 
ATOM     22  C   UNL     1      32.096 -23.281 -16.042  0.00  0.00    -0.100 C 
ATOM     23  C   UNL     1      28.888 -25.075 -14.891  0.00  0.00    -0.096 C 
ATOM     24  C   UNL     1      29.316 -22.650 -14.760  0.00  0.00    -0.096 C 
ATOM     25  H   UNL     1      33.155 -24.599 -14.920  0.00  0.00    -0.080 HD
ENDBRANCH  16  18
ENDBRANCH   1  16
TORSDOF 5
ENDMDL
MODEL 2
REMARK VINA RESULT:      -8.2      9.742     13.005
REMARK  Name = 24199
REMARK  5 active torsions:
REMARK  status: ('A' for Active; 'I' for Inactive)
REMARK    1  A    between atoms: C_1  and  C_2
REMARK    2  A    between atoms: C_1  and  C_8
REMARK    3  A    between atoms: C_1  and  O_14
REMARK    4  A    between atoms: C_1  and  C_16
REMARK    5  A    between atoms: C_16  and  N_18
REMARK                            x       y       z     vdW  Elec       q    Type
REMARK                         _______ _______ _______ _____ _____    ______ ____
ROOT
ATOM      1  C   UNL     1      33.209 -13.424 -23.147  0.00  0.00    +0.088 C 
ENDROOT
BRANCH   1   2
ATOM      2  C   UNL     1      32.231 -12.407 -22.562  0.00  0.00    +0.027 C 
ATOM      3  C   UNL     1      32.067 -12.620 -21.051  0.00  0.00    +0.003 C 
ATOM      4  C   UNL     1      32.689 -10.975 -22.867  0.00  0.00    +0.003 C 
ATOM      5  C   UNL     1      31.134 -11.581 -20.433  0.00  0.00    +0.000 C 
ATOM      6  C   UNL     1      31.755  -9.939 -22.245  0.00  0.00    +0.000 C 
ATOM      7  C   UNL     1      31.589 -10.159 -20.745  0.00  0.00    +0.000 C 
ENDBRANCH   1   2
BRANCH   1   8
ATOM      8  C   UNL     1      33.285 -13.298 -24.672  0.00  0.00    -0.000 C 
ATOM      9  C   UNL     1      33.902 -12.193 -25.210  0.00  0.00    -0.002 C 
ATOM     10  C   UNL     1      32.736 -14.297 -25.442  0.00  0.00    -0.002 C 
ATOM     11  C   UNL     1      33.972 -12.079 -26.599  0.00  0.00    -0.000 C 
ATOM     12  C   UNL     1      32.806 -14.182 -26.831  0.00  0.00    -0.000 C 
ATOM     13  C   UNL     1      33.424 -13.074 -27.409  0.00  0.00    -0.000 C 
ENDBRANCH   1   8
BRANCH   1  14
ATOM     14  O   UNL     1      34.495 -13.130 -22.583  0.00  0.00    -0.385 OA
ATOM     15  H   UNL     1      34.382 -12.573 -21.797  0.00  0.00    +0.211 HD
ENDBRANCH   1  14
BRANCH   1  16
ATOM     16  C   UNL     1      32.844 -14.880 -22.777  0.00  0.00    -0.046 C 
BRANCH  16  18
ATOM     17  N   UNL     1      35.411 -18.207 -21.859  0.00  0.00    +0.384 N 
ATOM     18  N   UNL     1      34.011 -15.701 -22.455  0.00  0.00    +0.386 N 
ATOM     19  C   UNL     1      35.069 -17.178 -20.780  0.00  0.00    -0.097 C 
ATOM     20  C   UNL     1      35.506 -17.514 -23.220  0.00  0.00    -0.097 C 
ATOM     21  C   UNL     1      33.837 -16.360 -21.157  0.00  0.00    -0.100 C 
ATOM     22  C   UNL     1      34.258 -16.685 -23.514  0.00  0.00    -0.100 C 
ATOM     23  C   UNL     1      36.778 -18.818 -21.530  0.00  0.00    -0.096 C 
ATOM     24  C   UNL     1      34.395 -19.348 -21.884  0.00  0.00    -0.096 C 
ATOM     25  H   UNL     1      34.826 -15.092 -22.393  0.00  0.00    -0.080 HD
ENDBRANCH  16  18
ENDBRANCH   1  16
TORSDOF 5
ENDMDL
MODEL 3
REMARK VINA RESULT:      -8.1      9.967     13.475
REMARK  Name = 24199
REMARK  5 active torsions:
REMARK  status: ('A' for Active; 'I' for Inactive)
REMARK    1  A    between atoms: C_1  and  C_2
REMARK    2  A    between atoms: C_1  and  C_8
REMARK    3  A    between atoms: C_1  and  O_14
REMARK    4  A    between atoms: C_1  and  C_16
REMARK    5  A    between atoms: C_16  and  N_18
REMARK                            x       y       z     vdW  Elec       q    Type
REMARK                         _______ _______ _______ _____ _____    ______ ____
ROOT
ATOM      1  C   UNL     1      32.884 -13.139 -23.185  0.00  0.00    +0.088 C 
ENDROOT
BRANCH   1   2
ATOM      2  C   UNL     1      33.178 -12.303 -24.429  0.00  0.00    +0.027 C 
ATOM      3  C   UNL     1      34.450 -11.466 -24.232  0.00  0.00    +0.003 C 
ATOM      4  C   UNL     1      33.300 -13.200 -25.669  0.00  0.00    +0.003 C 
ATOM      5  C   UNL     1      34.795 -10.661 -25.482  0.00  0.00    +0.000 C 
ATOM      6  C   UNL     1      33.648 -12.392 -26.917  0.00  0.00    +0.000 C 
ATOM      7  C   UNL     1      34.907 -11.556 -26.714  0.00  0.00    +0.000 C 
ENDBRANCH   1   2
BRANCH   1   8
ATOM      8  C   UNL     1      32.299 -12.272 -22.066  0.00  0.00    -0.000 C 
ATOM      9  C   UNL     1      31.837 -11.016 -22.381  0.00  0.00    -0.002 C 
ATOM     10  C   UNL     1      32.258 -12.785 -20.791  0.00  0.00    -0.002 C 
ATOM     11  C   UNL     1      31.303 -10.226 -21.362  0.00  0.00    -0.000 C 
ATOM     12  C   UNL     1      31.724 -11.995 -19.771  0.00  0.00    -0.000 C 
ATOM     13  C   UNL     1      31.246 -10.716 -20.057  0.00  0.00    -0.000 C 
ENDBRANCH   1   8
BRANCH   1  14
ATOM     14  O   UNL     1      31.919 -14.127 -23.572  0.00  0.00    -0.385 OA
ATOM     15  H   UNL     1      31.361 -13.772 -24.281  0.00  0.00    +0.211 HD
ENDBRANCH   1  14
BRANCH   1  16
ATOM     16  C   UNL     1      34.136 -13.874 -22.653  0.00  0.00    -0.046 C 
BRANCH  16  18
ATOM     17  N   UNL     1      34.944 -18.090 -22.386  0.00  0.00    +0.384 N 
ATOM     18  N   UNL     1      33.996 -15.329 -22.663  0.00  0.00    +0.386 N 
ATOM     19  C   UNL     1      34.687 -17.441 -23.746  0.00  0.00    -0.097 C 
ATOM     20  C   UNL     1      34.095 -17.398 -21.316  0.00  0.00    -0.097 C 
ATOM     21  C   UNL     1      34.862 -15.925 -23.686  0.00  0.00    -0.100 C 
ATOM     22  C   UNL     1      34.291 -15.884 -21.339  0.00  0.00    -0.100 C 
ATOM     23  C   UNL     1      34.523 -19.561 -22.463  0.00  0.00    -0.096 C 
ATOM     24  C   UNL     1      36.429 -18.058 -22.025  0.00  0.00    -0.096 C 
ATOM     25  H   UNL     1      33.030 -15.559 -22.894  0.00  0.00    -0.080 HD
ENDBRANCH  16  18
ENDBRANCH   1  16
TORSDOF 5
ENDMDL
MODEL 4
REMARK VINA RESULT:      -7.9      1.809      5.782
REMARK  Name = 24199
REMARK  5 active torsions:
REMARK  status: ('A' for Active; 'I' for Inactive)
REMARK    1  A    between atoms: C_1  and  C_2
REMARK    2  A    between atoms: C_1  and  C_8
REMARK    3  A    between atoms: C_1  and  O_14
REMARK    4  A    between atoms: C_1  and  C_16
REMARK    5  A    between atoms: C_16  and  N_18
REMARK                            x       y       z     vdW  Elec       q    Type
REMARK                         _______ _______ _______ _____ _____    ______ ____
ROOT
ATOM      1  C   UNL     1      33.117 -23.490 -15.607  0.00  0.00    +0.088 C 
ENDROOT
BRANCH   1   2
ATOM      2  C   UNL     1      31.680 -23.881 -15.949  0.00  0.00    +0.027 C 
ATOM      3  C   UNL     1      31.096 -24.799 -14.867  0.00  0.00    +0.003 C 
ATOM      4  C   UNL     1      30.807 -22.632 -16.136  0.00  0.00    +0.003 C 
ATOM      5  C   UNL     1      29.641 -25.162 -15.158  0.00  0.00    +0.000 C 
ATOM      6  C   UNL     1      29.353 -22.998 -16.425  0.00  0.00    +0.000 C 
ATOM      7  C   UNL     1      28.780 -23.917 -15.352  0.00  0.00    +0.000 C 
ENDBRANCH   1   2
BRANCH   1   8
ATOM      8  C   UNL     1      33.856 -22.978 -16.847  0.00  0.00    -0.000 C 
ATOM      9  C   UNL     1      33.202 -22.995 -18.056  0.00  0.00    -0.002 C 
ATOM     10  C   UNL     1      35.145 -22.520 -16.701  0.00  0.00    -0.002 C 
ATOM     11  C   UNL     1      33.875 -22.527 -19.185  0.00  0.00    -0.000 C 
ATOM     12  C   UNL     1      35.818 -22.053 -17.831  0.00  0.00    -0.000 C 
ATOM     13  C   UNL     1      35.183 -22.057 -19.072  0.00  0.00    -0.000 C 
ENDBRANCH   1   8
BRANCH   1  14
ATOM     14  O   UNL     1      33.037 -22.438 -14.635  0.00  0.00    -0.385 OA
ATOM     15  H   UNL     1      32.150 -22.428 -14.244  0.00  0.00    +0.211 HD
ENDBRANCH   1  14
BRANCH   1  16
ATOM     16  C   UNL     1      33.918 -24.657 -14.986  0.00  0.00    -0.046 C 
BRANCH  16  18
ATOM     17  N   UNL     1      37.462 -24.575 -12.550  0.00  0.00    +0.384 N 
ATOM     18  N   UNL     1      35.113 -24.217 -14.268  0.00  0.00    +0.386 N 
ATOM     19  C   UNL     1      36.172 -23.918 -12.055  0.00  0.00    -0.097 C 
ATOM     20  C   UNL     1      37.567 -24.423 -14.069  0.00  0.00    -0.097 C 
ATOM     21  C   UNL     1      34.955 -24.424 -12.825  0.00  0.00    -0.100 C 
ATOM     22  C   UNL     1      36.302 -24.912 -14.770  0.00  0.00    -0.100 C 
ATOM     23  C   UNL     1      38.651 -23.855 -11.906  0.00  0.00    -0.096 C 
ATOM     24  C   UNL     1      37.536 -26.043 -12.131  0.00  0.00    -0.096 C 
ATOM     25  H   UNL     1      35.238 -23.218 -14.432  0.00  0.00    -0.080 HD
ENDBRANCH  16  18
ENDBRANCH   1  16
TORSDOF 5
ENDMDL
MODEL 5
REMARK VINA RESULT:      -7.7      0.972      4.290
REMARK  Name = 24199
REMARK  5 active torsions:
REMARK  status: ('A' for Active; 'I' for Inactive)
REMARK    1  A    between atoms: C_1  and  C_2
REMARK    2  A    between atoms: C_1  and  C_8
REMARK    3  A    between atoms: C_1  and  O_14
REMARK    4  A    between atoms: C_1  and  C_16
REMARK    5  A    between atoms: C_16  and  N_18
REMARK                            x       y       z     vdW  Elec       q    Type
REMARK                         _______ _______ _______ _____ _____    ______ ____
ROOT
ATOM      1  C   UNL     1      35.090 -23.467 -15.354  0.00  0.00    +0.088 C 
ENDROOT
BRANCH   1   2
ATOM      2  C   UNL     1      35.522 -23.158 -16.787  0.00  0.00    +0.027 C 
ATOM      3  C   UNL     1      34.307 -22.801 -17.654  0.00  0.00    +0.003 C 
ATOM      4  C   UNL     1      36.561 -22.029 -16.808  0.00  0.00    +0.003 C 
ATOM      5  C   UNL     1      34.719 -22.435 -19.079  0.00  0.00    +0.000 C 
ATOM      6  C   UNL     1      36.969 -21.665 -18.234  0.00  0.00    +0.000 C 
ATOM      7  C   UNL     1      35.759 -21.318 -19.095  0.00  0.00    +0.000 C 
ENDBRANCH   1   2
BRANCH   1   8
ATOM      8  C   UNL     1      36.225 -24.133 -14.569  0.00  0.00    -0.000 C 
ATOM      9  C   UNL     1      36.726 -25.328 -15.026  0.00  0.00    -0.002 C 
ATOM     10  C   UNL     1      36.697 -23.507 -13.440  0.00  0.00    -0.002 C 
ATOM     11  C   UNL     1      37.761 -25.934 -14.312  0.00  0.00    -0.000 C 
ATOM     12  C   UNL     1      37.731 -24.113 -12.725  0.00  0.00    -0.000 C 
ATOM     13  C   UNL     1      38.263 -25.326 -13.162  0.00  0.00    -0.000 C 
ENDBRANCH   1   8
BRANCH   1  14
ATOM     14  O   UNL     1      34.764 -22.212 -14.743  0.00  0.00    -0.385 OA
ATOM     15  H   UNL     1      35.553 -21.848 -14.312  0.00  0.00    +0.211 HD
ENDBRANCH   1  14
BRANCH   1  16
ATOM     16  C   UNL     1      33.836 -24.370 -15.294  0.00  0.00    -0.046 C 
BRANCH  16  18
ATOM     17  N   UNL     1      29.675 -23.292 -15.141  0.00  0.00    +0.384 N 
ATOM     18  N   UNL     1      32.589 -23.615 -15.181  0.00  0.00    +0.386 N 
ATOM     19  C   UNL     1      30.531 -22.884 -16.340  0.00  0.00    -0.097 C 
ATOM     20  C   UNL     1      30.525 -23.267 -13.868  0.00  0.00    -0.097 C 
ATOM     21  C   UNL     1      31.811 -23.712 -16.422  0.00  0.00    -0.100 C 
ATOM     22  C   UNL     1      31.805 -24.082 -14.034  0.00  0.00    -0.100 C 
ATOM     23  C   UNL     1      28.540 -22.274 -14.986  0.00  0.00    -0.096 C 
ATOM     24  C   UNL     1      29.032 -24.663 -15.354  0.00  0.00    -0.096 C 
ATOM     25  H   UNL     1      32.819 -22.634 -15.029  0.00  0.00    -0.080 HD
ENDBRANCH  16  18
ENDBRANCH   1  16
TORSDOF 5
ENDMDL
MODEL 6
REMARK VINA RESULT:      -7.6      1.933      6.375
REMARK  Name = 24199
REMARK  5 active torsions:
REMARK  status: ('A' for Active; 'I' for Inactive)
REMARK    1  A    between atoms: C_1  and  C_2
REMARK    2  A    between atoms: C_1  and  C_8
REMARK    3  A    between atoms: C_1  and  O_14
REMARK    4  A    between atoms: C_1  and  C_16
REMARK    5  A    between atoms: C_16  and  N_18
REMARK                            x       y       z     vdW  Elec       q    Type
REMARK                         _______ _______ _______ _____ _____    ______ ____
ROOT
ATOM      1  C   UNL     1      34.130 -23.241 -16.414  0.00  0.00    +0.088 C 
ENDROOT
BRANCH   1   2
ATOM      2  C   UNL     1      34.410 -22.180 -17.477  0.00  0.00    +0.027 C 
ATOM      3  C   UNL     1      35.894 -22.184 -17.869  0.00  0.00    +0.003 C 
ATOM      4  C   UNL     1      33.518 -22.394 -18.707  0.00  0.00    +0.003 C 
ATOM      5  C   UNL     1      36.190 -21.167 -18.969  0.00  0.00    +0.000 C 
ATOM      6  C   UNL     1      33.818 -21.377 -19.806  0.00  0.00    +0.000 C 
ATOM      7  C   UNL     1      35.295 -21.379 -20.187  0.00  0.00    +0.000 C 
ENDBRANCH   1   2
BRANCH   1   8
ATOM      8  C   UNL     1      32.680 -23.159 -15.925  0.00  0.00    -0.000 C 
ATOM      9  C   UNL     1      31.680 -23.011 -16.856  0.00  0.00    -0.002 C 
ATOM     10  C   UNL     1      32.438 -23.238 -14.574  0.00  0.00    -0.002 C 
ATOM     11  C   UNL     1      30.360 -22.938 -16.411  0.00  0.00    -0.000 C 
ATOM     12  C   UNL     1      31.117 -23.164 -14.128  0.00  0.00    -0.000 C 
ATOM     13  C   UNL     1      30.079 -23.014 -15.047  0.00  0.00    -0.000 C 
ENDBRANCH   1   8
BRANCH   1  14
ATOM     14  O   UNL     1      34.348 -24.515 -17.037  0.00  0.00    -0.385 OA
ATOM     15  H   UNL     1      33.743 -24.613 -17.789  0.00  0.00    +0.211 HD
ENDBRANCH   1  14
BRANCH   1  16
ATOM     16  C   UNL     1      35.081 -23.132 -15.200  0.00  0.00    -0.046 C 
BRANCH  16  18
ATOM     17  N   UNL     1      38.677 -25.325 -14.330  0.00  0.00    +0.384 N 
ATOM     18  N   UNL     1      36.259 -23.989 -15.314  0.00  0.00    +0.386 N 
ATOM     19  C   UNL     1      38.728 -24.090 -15.230  0.00  0.00    -0.097 C 
ATOM     20  C   UNL     1      37.355 -26.067 -14.546  0.00  0.00    -0.097 C 
ATOM     21  C   UNL     1      37.484 -23.222 -15.062  0.00  0.00    -0.100 C 
ATOM     22  C   UNL     1      36.158 -25.130 -14.400  0.00  0.00    -0.100 C 
ATOM     23  C   UNL     1      39.826 -26.260 -14.722  0.00  0.00    -0.096 C 
ATOM     24  C   UNL     1      38.872 -24.952 -12.860  0.00  0.00    -0.096 C 
ATOM     25  H   UNL     1      36.304 -24.351 -16.267  0.00  0.00    -0.080 HD
ENDBRANCH  16  18
ENDBRANCH   1  16
TORSDOF 5
ENDMDL
MODEL 7
REMARK VINA RESULT:      -7.4     11.762     14.975
REMARK  Name = 24199
REMARK  5 active torsions:
REMARK  status: ('A' for Active; 'I' for Inactive)
REMARK    1  A    between atoms: C_1  and  C_2
REMARK    2  A    between atoms: C_1  and  C_8
REMARK    3  A    between atoms: C_1  and  O_14
REMARK    4  A    between atoms: C_1  and  C_16
REMARK    5  A    between atoms: C_16  and  N_18
REMARK                            x       y       z     vdW  Elec       q    Type
REMARK                         _______ _______ _______ _____ _____    ______ ____
ROOT
ATOM      1  C   UNL     1      33.176 -12.782 -23.277  0.00  0.00    +0.088 C 
ENDROOT
BRANCH   1   2
ATOM      2  C   UNL     1      32.850 -13.158 -24.721  0.00  0.00    +0.027 C 
ATOM      3  C   UNL     1      33.665 -12.303 -25.701  0.00  0.00    +0.003 C 
ATOM      4  C   UNL     1      33.099 -14.653 -24.962  0.00  0.00    +0.003 C 
ATOM      5  C   UNL     1      33.396 -12.696 -27.152  0.00  0.00    +0.000 C 
ATOM      6  C   UNL     1      32.832 -15.043 -26.414  0.00  0.00    +0.000 C 
ATOM      7  C   UNL     1      33.637 -14.185 -27.385  0.00  0.00    +0.000 C 
ENDBRANCH   1   2
BRANCH   1   8
ATOM      8  C   UNL     1      33.393 -14.033 -22.419  0.00  0.00    -0.000 C 
ATOM      9  C   UNL     1      34.586 -14.706 -22.530  0.00  0.00    -0.002 C 
ATOM     10  C   UNL     1      32.386 -14.431 -21.571  0.00  0.00    -0.002 C 
ATOM     11  C   UNL     1      34.784 -15.844 -21.748  0.00  0.00    -0.000 C 
ATOM     12  C   UNL     1      32.584 -15.570 -20.790  0.00  0.00    -0.000 C 
ATOM     13  C   UNL     1      33.783 -16.276 -20.878  0.00  0.00    -0.000 C 
ENDBRANCH   1   8
BRANCH   1  14
ATOM     14  O   UNL     1      34.388 -12.017 -23.314  0.00  0.00    -0.385 OA
ATOM     15  H   UNL     1      34.458 -11.565 -24.169  0.00  0.00    +0.211 HD
ENDBRANCH   1  14
BRANCH   1  16
ATOM     16  C   UNL     1      32.077 -11.909 -22.628  0.00  0.00    -0.046 C 
BRANCH  16  18
ATOM     17  N   UNL     1      32.075  -7.608 -22.549  0.00  0.00    +0.384 N 
ATOM     18  N   UNL     1      32.476 -10.511 -22.464  0.00  0.00    +0.386 N 
ATOM     19  C   UNL     1      32.889  -8.358 -23.605  0.00  0.00    -0.097 C 
ATOM     20  C   UNL     1      32.071  -8.403 -21.241  0.00  0.00    -0.097 C 
ATOM     21  C   UNL     1      32.423  -9.804 -23.749  0.00  0.00    -0.100 C 
ATOM     22  C   UNL     1      31.632  -9.848 -21.466  0.00  0.00    -0.100 C 
ATOM     23  C   UNL     1      32.744  -6.254 -22.292  0.00  0.00    -0.096 C 
ATOM     24  C   UNL     1      30.653  -7.329 -23.036  0.00  0.00    -0.096 C 
ATOM     25  H   UNL     1      33.439 -10.488 -22.131  0.00  0.00    -0.080 HD
ENDBRANCH  16  18
ENDBRANCH   1  16
TORSDOF 5
ENDMDL
MODEL 8
REMARK VINA RESULT:      -7.4      1.861      5.723
REMARK  Name = 24199
REMARK  5 active torsions:
REMARK  status: ('A' for Active; 'I' for Inactive)
REMARK    1  A    between atoms: C_1  and  C_2
REMARK    2  A    between atoms: C_1  and  C_8
REMARK    3  A    between atoms: C_1  and  O_14
REMARK    4  A    between atoms: C_1  and  C_16
REMARK    5  A    between atoms: C_16  and  N_18
REMARK                            x       y       z     vdW  Elec       q    Type
REMARK                         _______ _______ _______ _____ _____    ______ ____
ROOT
ATOM      1  C   UNL     1      34.186 -23.173 -15.607  0.00  0.00    +0.088 C 
ENDROOT
BRANCH   1   2
ATOM      2  C   UNL     1      32.698 -22.946 -15.343  0.00  0.00    +0.027 C 
ATOM      3  C   UNL     1      31.847 -23.617 -16.430  0.00  0.00    +0.003 C 
ATOM      4  C   UNL     1      32.310 -23.459 -13.950  0.00  0.00    +0.003 C 
ATOM      5  C   UNL     1      30.353 -23.450 -16.160  0.00  0.00    +0.000 C 
ATOM      6  C   UNL     1      30.815 -23.293 -13.684  0.00  0.00    +0.000 C 
ATOM      7  C   UNL     1      29.973 -23.953 -14.770  0.00  0.00    +0.000 C 
ENDBRANCH   1   2
BRANCH   1   8
ATOM      8  C   UNL     1      34.567 -22.729 -17.023  0.00  0.00    -0.000 C 
ATOM      9  C   UNL     1      33.662 -22.924 -18.039  0.00  0.00    -0.002 C 
ATOM     10  C   UNL     1      35.800 -22.151 -17.220  0.00  0.00    -0.002 C 
ATOM     11  C   UNL     1      34.008 -22.518 -19.327  0.00  0.00    -0.000 C 
ATOM     12  C   UNL     1      36.147 -21.746 -18.510  0.00  0.00    -0.000 C 
ATOM     13  C   UNL     1      35.251 -21.929 -19.563  0.00  0.00    -0.000 C 
ENDBRANCH   1   8
BRANCH   1  14
ATOM     14  O   UNL     1      34.899 -22.375 -14.652  0.00  0.00    -0.385 OA
ATOM     15  H   UNL     1      34.680 -21.440 -14.786  0.00  0.00    +0.211 HD
ENDBRANCH   1  14
BRANCH   1  16
ATOM     16  C   UNL     1      34.606 -24.648 -15.409  0.00  0.00    -0.046 C 
BRANCH  16  18
ATOM     17  N   UNL     1      38.475 -25.581 -13.778  0.00  0.00    +0.384 N 
ATOM     18  N   UNL     1      36.048 -24.816 -15.235  0.00  0.00    +0.386 N 
ATOM     19  C   UNL     1      38.045 -24.124 -13.954  0.00  0.00    -0.097 C 
ATOM     20  C   UNL     1      37.890 -26.431 -14.908  0.00  0.00    -0.097 C 
ATOM     21  C   UNL     1      36.532 -24.001 -14.115  0.00  0.00    -0.100 C 
ATOM     22  C   UNL     1      36.381 -26.230 -15.036  0.00  0.00    -0.100 C 
ATOM     23  C   UNL     1      40.003 -25.649 -13.861  0.00  0.00    -0.096 C 
ATOM     24  C   UNL     1      38.068 -26.120 -12.407  0.00  0.00    -0.096 C 
ATOM     25  H   UNL     1      36.515 -24.497 -16.083  0.00  0.00    -0.080 HD
ENDBRANCH  16  18
ENDBRANCH   1  16
TORSDOF 5
ENDMDL
MODEL 9
REMARK VINA RESULT:      -7.3     15.374     17.933
REMARK  Name = 24199
REMARK  5 active torsions:
REMARK  status: ('A' for Active; 'I' for Inactive)
REMARK    1  A    between atoms: C_1  and  C_2
REMARK    2  A    between atoms: C_1  and  C_8
REMARK    3  A    between atoms: C_1  and  O_14
REMARK    4  A    between atoms: C_1  and  C_16
REMARK    5  A    between atoms: C_16  and  N_18
REMARK                            x       y       z     vdW  Elec       q    Type
REMARK                         _______ _______ _______ _____ _____    ______ ____
ROOT
ATOM      1  C   UNL     1      32.499  -8.886 -22.942  0.00  0.00    +0.088 C 
ENDROOT
BRANCH   1   2
ATOM      2  C   UNL     1      32.398  -9.687 -21.645  0.00  0.00    +0.027 C 
ATOM      3  C   UNL     1      32.276  -8.750 -20.437  0.00  0.00    +0.003 C 
ATOM      4  C   UNL     1      31.215 -10.664 -21.702  0.00  0.00    +0.003 C 
ATOM      5  C   UNL     1      32.119  -9.528 -19.132  0.00  0.00    +0.000 C 
ATOM      6  C   UNL     1      31.061 -11.439 -20.395  0.00  0.00    +0.000 C 
ATOM      7  C   UNL     1      30.948 -10.504 -19.196  0.00  0.00    +0.000 C 
ENDBRANCH   1   2
BRANCH   1   8
ATOM      8  C   UNL     1      33.471  -9.549 -23.923  0.00  0.00    -0.000 C 
ATOM      9  C   UNL     1      34.606  -8.862 -24.288  0.00  0.00    -0.002 C 
ATOM     10  C   UNL     1      33.171 -10.804 -24.398  0.00  0.00    -0.002 C 
ATOM     11  C   UNL     1      35.492  -9.466 -25.180  0.00  0.00    -0.000 C 
ATOM     12  C   UNL     1      34.058 -11.407 -25.292  0.00  0.00    -0.000 C 
ATOM     13  C   UNL     1      35.218 -10.738 -25.682  0.00  0.00    -0.000 C 
ENDBRANCH   1   8
BRANCH   1  14
ATOM     14  O   UNL     1      31.185  -8.867 -23.517  0.00  0.00    -0.385 OA
ATOM     15  H   UNL     1      30.571  -9.338 -22.933  0.00  0.00    +0.211 HD
ENDBRANCH   1  14
BRANCH   1  16
ATOM     16  C   UNL     1      32.939  -7.424 -22.703  0.00  0.00    -0.046 C 
BRANCH  16  18
ATOM     17  N   UNL     1      31.236  -3.759 -24.177  0.00  0.00    +0.384 N 
ATOM     18  N   UNL     1      32.055  -6.446 -23.335  0.00  0.00    +0.386 N 
ATOM     19  C   UNL     1      30.604  -4.476 -22.983  0.00  0.00    -0.097 C 
ATOM     20  C   UNL     1      31.808  -4.791 -25.153  0.00  0.00    -0.097 C 
ATOM     21  C   UNL     1      31.573  -5.471 -22.350  0.00  0.00    -0.100 C 
ATOM     22  C   UNL     1      32.737  -5.775 -24.446  0.00  0.00    -0.100 C 
ATOM     23  C   UNL     1      30.143  -2.963 -24.899  0.00  0.00    -0.096 C 
ATOM     24  C   UNL     1      32.305  -2.764 -23.728  0.00  0.00    -0.096 C 
ATOM     25  H   UNL     1      31.246  -6.940 -23.712  0.00  0.00    -0.080 HD
ENDBRANCH  16  18
ENDBRANCH   1  16
TORSDOF 5
ENDMDL
