MODEL 1
REMARK VINA RESULT:      -9.5      0.000      0.000
REMARK  Name = 447835
REMARK  5 active torsions:
REMARK  status: ('A' for Active; 'I' for Inactive)
REMARK    1  A    between atoms: C_3  and  C_22
REMARK    2  A    between atoms: C_10  and  C_14
REMARK    3  A    between atoms: C_11  and  O_20
REMARK    4  A    between atoms: C_22  and  C_24
REMARK    5  A    between atoms: C_24  and  O_25
REMARK                            x       y       z     vdW  Elec       q    Type
REMARK                         _______ _______ _______ _____ _____    ______ ____
ROOT
ATOM      1  O   UNL     1      35.857 -18.356 -23.840  0.00  0.00    -0.267 OA
ATOM      2  N   UNL     1      34.331 -16.812 -23.198  0.00  0.00    -0.279 N 
ATOM      3  C   UNL     1      33.433 -15.009 -24.198  0.00  0.00    +0.003 A 
ATOM      4  C   UNL     1      33.226 -14.879 -22.805  0.00  0.00    +0.017 A 
ATOM      5  C   UNL     1      33.785 -16.008 -22.191  0.00  0.00    +0.066 A 
ATOM      6  C   UNL     1      34.097 -16.191 -24.410  0.00  0.00    +0.041 A 
ATOM      7  C   UNL     1      32.606 -13.892 -22.011  0.00  0.00    +0.038 C 
ATOM      8  C   UNL     1      33.742 -16.160 -20.792  0.00  0.00    +0.021 C 
ATOM      9  C   UNL     1      34.522 -16.748 -25.717  0.00  0.00    +0.050 C 
ATOM     10  C   UNL     1      34.976 -18.058 -23.039  0.00  0.00    +0.264 C 
ATOM     11  C   UNL     1      32.560 -14.048 -20.625  0.00  0.00    +0.139 C 
ATOM     12  C   UNL     1      33.122 -15.168 -20.026  0.00  0.00    +0.038 C 
ENDROOT
BRANCH  10  14
ATOM     13  I   UNL     1      33.691 -22.231 -18.445  0.00  0.00    -0.043 I 
ATOM     14  C   UNL     1      34.677 -19.029 -21.969  0.00  0.00    +0.057 C 
ATOM     15  C   UNL     1      35.715 -19.573 -21.217  0.00  0.00    +0.005 C 
ATOM     16  C   UNL     1      33.358 -19.399 -21.718  0.00  0.00    +0.005 C 
ATOM     17  C   UNL     1      35.432 -20.491 -20.206  0.00  0.00    +0.006 C 
ATOM     18  C   UNL     1      33.075 -20.316 -20.707  0.00  0.00    +0.006 C 
ATOM     19  C   UNL     1      34.112 -20.863 -19.951  0.00  0.00    +0.030 C 
ENDBRANCH  10  14
BRANCH  11  20
ATOM     20  O   UNL     1      31.961 -13.095 -19.857  0.00  0.00    -0.471 OA
ATOM     21  C   UNL     1      31.632 -11.862 -20.494  0.00  0.00    +0.252 C 
ENDBRANCH  11  20
BRANCH   3  22
ATOM     22  C   UNL     1      33.006 -14.049 -25.238  0.00  0.00    +0.137 C 
BRANCH  22  24
ATOM     23  O   UNL     1      34.247 -12.316 -24.092  0.00  0.00    -0.250 OA
ATOM     24  C   UNL     1      33.762 -12.743 -25.132  0.00  0.00    +0.318 C 
BRANCH  24  25
ATOM     25  O   UNL     1      33.809 -12.067 -26.307  0.00  0.00    -0.480 OA
ATOM     26  H   UNL     1      33.924 -11.137 -26.309  0.00  0.00    +0.295 HD
ENDBRANCH  24  25
ENDBRANCH  22  24
ENDBRANCH   3  22
TORSDOF 5
ENDMDL
MODEL 2
REMARK VINA RESULT:      -9.0      7.892     12.140
REMARK  Name = 447835
REMARK  5 active torsions:
REMARK  status: ('A' for Active; 'I' for Inactive)
REMARK    1  A    between atoms: C_3  and  C_22
REMARK    2  A    between atoms: C_10  and  C_14
REMARK    3  A    between atoms: C_11  and  O_20
REMARK    4  A    between atoms: C_22  and  C_24
REMARK    5  A    between atoms: C_24  and  O_25
REMARK                            x       y       z     vdW  Elec       q    Type
REMARK                         _______ _______ _______ _____ _____    ______ ____
ROOT
ATOM      1  O   UNL     1      34.287 -24.066 -11.809  0.00  0.00    -0.267 OA
ATOM      2  N   UNL     1      35.512 -23.932 -13.708  0.00  0.00    -0.279 N 
ATOM      3  C   UNL     1      37.683 -24.275 -14.182  0.00  0.00    +0.003 A 
ATOM      4  C   UNL     1      37.130 -23.499 -15.227  0.00  0.00    +0.017 A 
ATOM      5  C   UNL     1      35.776 -23.294 -14.925  0.00  0.00    +0.066 A 
ATOM      6  C   UNL     1      36.681 -24.531 -13.279  0.00  0.00    +0.041 A 
ATOM      7  C   UNL     1      37.668 -22.951 -16.410  0.00  0.00    +0.038 C 
ATOM      8  C   UNL     1      34.955 -22.540 -15.785  0.00  0.00    +0.021 C 
ATOM      9  C   UNL     1      36.794 -25.314 -12.026  0.00  0.00    +0.050 C 
ATOM     10  C   UNL     1      34.272 -24.004 -13.034  0.00  0.00    +0.264 C 
ATOM     11  C   UNL     1      36.850 -22.210 -17.263  0.00  0.00    +0.139 C 
ATOM     12  C   UNL     1      35.512 -22.007 -16.952  0.00  0.00    +0.038 C 
ENDROOT
BRANCH  10  14
ATOM     13  I   UNL     1      28.610 -23.974 -15.882  0.00  0.00    -0.043 I 
ATOM     14  C   UNL     1      32.954 -23.997 -13.696  0.00  0.00    +0.057 C 
ATOM     15  C   UNL     1      32.271 -25.195 -13.892  0.00  0.00    +0.005 C 
ATOM     16  C   UNL     1      32.400 -22.793 -14.124  0.00  0.00    +0.005 C 
ATOM     17  C   UNL     1      31.025 -25.188 -14.519  0.00  0.00    +0.006 C 
ATOM     18  C   UNL     1      31.154 -22.786 -14.750  0.00  0.00    +0.006 C 
ATOM     19  C   UNL     1      30.466 -23.984 -14.948  0.00  0.00    +0.030 C 
ENDBRANCH  10  14
BRANCH  11  20
ATOM     20  O   UNL     1      37.369 -21.681 -18.406  0.00  0.00    -0.471 OA
ATOM     21  C   UNL     1      36.443 -21.257 -19.404  0.00  0.00    +0.252 C 
ENDBRANCH  11  20
BRANCH   3  22
ATOM     22  C   UNL     1      39.085 -24.735 -14.083  0.00  0.00    +0.137 C 
BRANCH  22  24
ATOM     23  O   UNL     1      38.737 -27.042 -14.725  0.00  0.00    -0.250 OA
ATOM     24  C   UNL     1      39.320 -25.981 -14.908  0.00  0.00    +0.318 C 
BRANCH  24  25
ATOM     25  O   UNL     1      40.283 -25.814 -15.850  0.00  0.00    -0.480 OA
ATOM     26  H   UNL     1      41.171 -26.039 -15.656  0.00  0.00    +0.295 HD
ENDBRANCH  24  25
ENDBRANCH  22  24
ENDBRANCH   3  22
TORSDOF 5
ENDMDL
MODEL 3
REMARK VINA RESULT:      -8.9      5.753      9.903
REMARK  Name = 447835
REMARK  5 active torsions:
REMARK  status: ('A' for Active; 'I' for Inactive)
REMARK    1  A    between atoms: C_3  and  C_22
REMARK    2  A    between atoms: C_10  and  C_14
REMARK    3  A    between atoms: C_11  and  O_20
REMARK    4  A    between atoms: C_22  and  C_24
REMARK    5  A    between atoms: C_24  and  O_25
REMARK                            x       y       z     vdW  Elec       q    Type
REMARK                         _______ _______ _______ _____ _____    ______ ____
ROOT
ATOM      1  O   UNL     1      31.522  -8.975 -20.330  0.00  0.00    -0.267 OA
ATOM      2  N   UNL     1      32.356  -9.843 -22.247  0.00  0.00    -0.279 N 
ATOM      3  C   UNL     1      32.653 -11.940 -23.001  0.00  0.00    +0.003 A 
ATOM      4  C   UNL     1      33.484 -11.086 -23.762  0.00  0.00    +0.017 A 
ATOM      5  C   UNL     1      33.290  -9.782 -23.288  0.00  0.00    +0.066 A 
ATOM      6  C   UNL     1      31.975 -11.162 -22.096  0.00  0.00    +0.041 A 
ATOM      7  C   UNL     1      34.389 -11.313 -24.820  0.00  0.00    +0.038 C 
ATOM      8  C   UNL     1      33.996  -8.701 -23.850  0.00  0.00    +0.021 C 
ATOM      9  C   UNL     1      30.986 -11.624 -21.093  0.00  0.00    +0.050 C 
ATOM     10  C   UNL     1      31.846  -8.762 -21.494  0.00  0.00    +0.264 C 
ATOM     11  C   UNL     1      35.083 -10.239 -25.378  0.00  0.00    +0.139 C 
ATOM     12  C   UNL     1      34.888  -8.951 -24.898  0.00  0.00    +0.038 C 
ENDROOT
BRANCH  10  14
ATOM     13  I   UNL     1      31.142  -2.853 -23.674  0.00  0.00    -0.043 I 
ATOM     14  C   UNL     1      31.683  -7.387 -22.002  0.00  0.00    +0.057 C 
ATOM     15  C   UNL     1      32.107  -6.309 -21.230  0.00  0.00    +0.005 C 
ATOM     16  C   UNL     1      31.103  -7.173 -23.250  0.00  0.00    +0.005 C 
ATOM     17  C   UNL     1      31.952  -5.008 -21.710  0.00  0.00    +0.006 C 
ATOM     18  C   UNL     1      30.948  -5.873 -23.730  0.00  0.00    +0.006 C 
ATOM     19  C   UNL     1      31.374  -4.790 -22.960  0.00  0.00    +0.030 C 
ENDBRANCH  10  14
BRANCH  11  20
ATOM     20  O   UNL     1      35.957 -10.458 -26.400  0.00  0.00    -0.471 OA
ATOM     21  C   UNL     1      35.531 -11.335 -27.442  0.00  0.00    +0.252 C 
ENDBRANCH  11  20
BRANCH   3  22
ATOM     22  C   UNL     1      32.530 -13.406 -23.156  0.00  0.00    +0.137 C 
BRANCH  22  24
ATOM     23  O   UNL     1      33.340 -14.543 -21.179  0.00  0.00    -0.250 OA
ATOM     24  C   UNL     1      33.553 -14.140 -22.316  0.00  0.00    +0.318 C 
BRANCH  24  25
ATOM     25  O   UNL     1      34.750 -14.270 -22.940  0.00  0.00    -0.480 OA
ATOM     26  H   UNL     1      35.504 -13.828 -22.602  0.00  0.00    +0.295 HD
ENDBRANCH  24  25
ENDBRANCH  22  24
ENDBRANCH   3  22
TORSDOF 5
ENDMDL
MODEL 4
REMARK VINA RESULT:      -8.6      5.525      9.641
REMARK  Name = 447835
REMARK  5 active torsions:
REMARK  status: ('A' for Active; 'I' for Inactive)
REMARK    1  A    between atoms: C_3  and  C_22
REMARK    2  A    between atoms: C_10  and  C_14
REMARK    3  A    between atoms: C_11  and  O_20
REMARK    4  A    between atoms: C_22  and  C_24
REMARK    5  A    between atoms: C_24  and  O_25
REMARK                            x       y       z     vdW  Elec       q    Type
REMARK                         _______ _______ _______ _____ _____    ______ ____
ROOT
ATOM      1  O   UNL     1      33.010  -8.111 -20.844  0.00  0.00    -0.267 OA
ATOM      2  N   UNL     1      32.689  -9.940 -22.138  0.00  0.00    -0.279 N 
ATOM      3  C   UNL     1      32.091 -12.064 -21.703  0.00  0.00    +0.003 A 
ATOM      4  C   UNL     1      32.702 -12.039 -22.978  0.00  0.00    +0.017 A 
ATOM      5  C   UNL     1      33.067 -10.712 -23.242  0.00  0.00    +0.066 A 
ATOM      6  C   UNL     1      32.090 -10.779 -21.218  0.00  0.00    +0.041 A 
ATOM      7  C   UNL     1      32.974 -13.039 -23.935  0.00  0.00    +0.038 C 
ATOM      8  C   UNL     1      33.711 -10.371 -24.447  0.00  0.00    +0.021 C 
ATOM      9  C   UNL     1      31.547 -10.322 -19.917  0.00  0.00    +0.050 C 
ATOM     10  C   UNL     1      32.844  -8.545 -21.979  0.00  0.00    +0.264 C 
ATOM     11  C   UNL     1      33.607 -12.696 -25.131  0.00  0.00    +0.139 C 
ATOM     12  C   UNL     1      33.971 -11.379 -25.381  0.00  0.00    +0.038 C 
ENDROOT
BRANCH  10  14
ATOM     13  I   UNL     1      32.798  -4.347 -26.727  0.00  0.00    -0.043 I 
ATOM     14  C   UNL     1      32.833  -7.567 -23.083  0.00  0.00    +0.057 C 
ATOM     15  C   UNL     1      31.633  -6.982 -23.479  0.00  0.00    +0.005 C 
ATOM     16  C   UNL     1      34.023  -7.236 -23.727  0.00  0.00    +0.005 C 
ATOM     17  C   UNL     1      31.623  -6.058 -24.524  0.00  0.00    +0.006 C 
ATOM     18  C   UNL     1      34.013  -6.311 -24.771  0.00  0.00    +0.006 C 
ATOM     19  C   UNL     1      32.813  -5.722 -25.170  0.00  0.00    +0.030 C 
ENDBRANCH  10  14
BRANCH  11  20
ATOM     20  O   UNL     1      33.871 -13.661 -26.056  0.00  0.00    -0.471 OA
ATOM     21  C   UNL     1      32.907 -14.702 -26.199  0.00  0.00    +0.252 C 
ENDBRANCH  11  20
BRANCH   3  22
ATOM     22  C   UNL     1      31.548 -13.256 -21.017  0.00  0.00    +0.137 C 
BRANCH  22  24
ATOM     23  O   UNL     1      33.735 -14.199 -20.587  0.00  0.00    -0.250 OA
ATOM     24  C   UNL     1      32.573 -14.366 -20.937  0.00  0.00    +0.318 C 
BRANCH  24  25
ATOM     25  O   UNL     1      32.081 -15.565 -21.336  0.00  0.00    -0.480 OA
ATOM     26  H   UNL     1      31.201 -15.805 -21.124  0.00  0.00    +0.295 HD
ENDBRANCH  24  25
ENDBRANCH  22  24
ENDBRANCH   3  22
TORSDOF 5
ENDMDL
MODEL 5
REMARK VINA RESULT:      -8.0      7.378     11.327
REMARK  Name = 447835
REMARK  5 active torsions:
REMARK  status: ('A' for Active; 'I' for Inactive)
REMARK    1  A    between atoms: C_3  and  C_22
REMARK    2  A    between atoms: C_10  and  C_14
REMARK    3  A    between atoms: C_11  and  O_20
REMARK    4  A    between atoms: C_22  and  C_24
REMARK    5  A    between atoms: C_24  and  O_25
REMARK                            x       y       z     vdW  Elec       q    Type
REMARK                         _______ _______ _______ _____ _____    ______ ____
ROOT
ATOM      1  O   UNL     1      37.659 -23.058 -16.838  0.00  0.00    -0.267 OA
ATOM      2  N   UNL     1      35.671 -23.034 -15.754  0.00  0.00    -0.279 N 
ATOM      3  C   UNL     1      35.048 -23.499 -13.644  0.00  0.00    +0.003 A 
ATOM      4  C   UNL     1      33.894 -23.559 -14.459  0.00  0.00    +0.017 A 
ATOM      5  C   UNL     1      34.291 -23.264 -15.770  0.00  0.00    +0.066 A 
ATOM      6  C   UNL     1      36.109 -23.172 -14.451  0.00  0.00    +0.041 A 
ATOM      7  C   UNL     1      32.538 -23.839 -14.190  0.00  0.00    +0.038 C 
ATOM      8  C   UNL     1      33.352 -23.255 -16.820  0.00  0.00    +0.021 C 
ATOM      9  C   UNL     1      37.520 -22.993 -14.033  0.00  0.00    +0.050 C 
ATOM     10  C   UNL     1      36.491 -22.683 -16.850  0.00  0.00    +0.264 C 
ATOM     11  C   UNL     1      31.609 -23.823 -15.232  0.00  0.00    +0.139 C 
ATOM     12  C   UNL     1      32.014 -23.536 -16.528  0.00  0.00    +0.038 C 
ENDROOT
BRANCH  10  14
ATOM     13  I   UNL     1      34.562 -19.346 -21.882  0.00  0.00    -0.043 I 
ATOM     14  C   UNL     1      36.041 -21.906 -18.021  0.00  0.00    +0.057 C 
ATOM     15  C   UNL     1      34.763 -22.104 -18.534  0.00  0.00    +0.005 C 
ATOM     16  C   UNL     1      36.899 -20.979 -18.608  0.00  0.00    +0.005 C 
ATOM     17  C   UNL     1      34.338 -21.370 -19.642  0.00  0.00    +0.006 C 
ATOM     18  C   UNL     1      36.475 -20.244 -19.714  0.00  0.00    +0.006 C 
ATOM     19  C   UNL     1      35.194 -20.440 -20.232  0.00  0.00    +0.030 C 
ENDBRANCH  10  14
BRANCH  11  20
ATOM     20  O   UNL     1      30.299 -24.093 -14.972  0.00  0.00    -0.471 OA
ATOM     21  C   UNL     1      29.913 -25.466 -14.941  0.00  0.00    +0.252 C 
ENDBRANCH  11  20
BRANCH   3  22
ATOM     22  C   UNL     1      35.102 -23.738 -12.186  0.00  0.00    +0.137 C 
BRANCH  22  24
ATOM     23  O   UNL     1      37.029 -24.555 -10.971  0.00  0.00    -0.250 OA
ATOM     24  C   UNL     1      36.175 -24.744 -11.828  0.00  0.00    +0.318 C 
BRANCH  24  25
ATOM     25  O   UNL     1      36.118 -25.866 -12.588  0.00  0.00    -0.480 OA
ATOM     26  H   UNL     1      35.370 -26.427 -12.541  0.00  0.00    +0.295 HD
ENDBRANCH  24  25
ENDBRANCH  22  24
ENDBRANCH   3  22
TORSDOF 5
ENDMDL
MODEL 6
REMARK VINA RESULT:      -7.9      7.426     10.901
REMARK  Name = 447835
REMARK  5 active torsions:
REMARK  status: ('A' for Active; 'I' for Inactive)
REMARK    1  A    between atoms: C_3  and  C_22
REMARK    2  A    between atoms: C_10  and  C_14
REMARK    3  A    between atoms: C_11  and  O_20
REMARK    4  A    between atoms: C_22  and  C_24
REMARK    5  A    between atoms: C_24  and  O_25
REMARK                            x       y       z     vdW  Elec       q    Type
REMARK                         _______ _______ _______ _____ _____    ______ ____
ROOT
ATOM      1  O   UNL     1      31.979 -25.643 -13.510  0.00  0.00    -0.267 OA
ATOM      2  N   UNL     1      31.934 -24.005 -15.072  0.00  0.00    -0.279 N 
ATOM      3  C   UNL     1      30.276 -22.919 -16.134  0.00  0.00    +0.003 A 
ATOM      4  C   UNL     1      31.460 -22.743 -16.887  0.00  0.00    +0.017 A 
ATOM      5  C   UNL     1      32.488 -23.419 -16.216  0.00  0.00    +0.066 A 
ATOM      6  C   UNL     1      30.591 -23.680 -15.037  0.00  0.00    +0.041 A 
ATOM      7  C   UNL     1      31.746 -22.061 -18.088  0.00  0.00    +0.038 C 
ATOM      8  C   UNL     1      33.797 -23.433 -16.734  0.00  0.00    +0.021 C 
ATOM      9  C   UNL     1      29.667 -24.113 -13.962  0.00  0.00    +0.050 C 
ATOM     10  C   UNL     1      32.608 -24.764 -14.090  0.00  0.00    +0.264 C 
ATOM     11  C   UNL     1      33.046 -22.072 -18.596  0.00  0.00    +0.139 C 
ATOM     12  C   UNL     1      34.056 -22.750 -17.927  0.00  0.00    +0.038 C 
ENDROOT
BRANCH  10  14
ATOM     13  I   UNL     1      38.691 -24.002 -12.479  0.00  0.00    -0.043 I 
ATOM     14  C   UNL     1      34.024 -24.586 -13.715  0.00  0.00    +0.057 C 
ATOM     15  C   UNL     1      35.022 -25.194 -14.472  0.00  0.00    +0.005 C 
ATOM     16  C   UNL     1      34.355 -23.812 -12.605  0.00  0.00    +0.005 C 
ATOM     17  C   UNL     1      36.361 -25.026 -14.118  0.00  0.00    +0.006 C 
ATOM     18  C   UNL     1      35.694 -23.644 -12.251  0.00  0.00    +0.006 C 
ATOM     19  C   UNL     1      36.697 -24.251 -13.008  0.00  0.00    +0.030 C 
ENDBRANCH  10  14
BRANCH  11  20
ATOM     20  O   UNL     1      33.323 -21.413 -19.756  0.00  0.00    -0.471 OA
ATOM     21  C   UNL     1      34.657 -20.939 -19.930  0.00  0.00    +0.252 C 
ENDBRANCH  11  20
BRANCH   3  22
ATOM     22  C   UNL     1      28.942 -22.375 -16.466  0.00  0.00    +0.137 C 
BRANCH  22  24
ATOM     23  O   UNL     1      28.278 -24.597 -17.158  0.00  0.00    -0.250 OA
ATOM     24  C   UNL     1      28.100 -23.387 -17.213  0.00  0.00    +0.318 C 
BRANCH  24  25
ATOM     25  O   UNL     1      27.151 -22.809 -17.991  0.00  0.00    -0.480 OA
ATOM     26  H   UNL     1      27.328 -22.633 -18.894  0.00  0.00    +0.295 HD
ENDBRANCH  24  25
ENDBRANCH  22  24
ENDBRANCH   3  22
TORSDOF 5
ENDMDL
MODEL 7
REMARK VINA RESULT:      -7.8      4.376      7.440
REMARK  Name = 447835
REMARK  5 active torsions:
REMARK  status: ('A' for Active; 'I' for Inactive)
REMARK    1  A    between atoms: C_3  and  C_22
REMARK    2  A    between atoms: C_10  and  C_14
REMARK    3  A    between atoms: C_11  and  O_20
REMARK    4  A    between atoms: C_22  and  C_24
REMARK    5  A    between atoms: C_24  and  O_25
REMARK                            x       y       z     vdW  Elec       q    Type
REMARK                         _______ _______ _______ _____ _____    ______ ____
ROOT
ATOM      1  O   UNL     1      30.579 -12.008 -20.767  0.00  0.00    -0.267 OA
ATOM      2  N   UNL     1      32.060 -10.444 -21.461  0.00  0.00    -0.279 N 
ATOM      3  C   UNL     1      32.370  -8.272 -20.965  0.00  0.00    +0.003 A 
ATOM      4  C   UNL     1      33.023  -8.533 -22.193  0.00  0.00    +0.017 A 
ATOM      5  C   UNL     1      32.828  -9.889 -22.491  0.00  0.00    +0.066 A 
ATOM      6  C   UNL     1      31.801  -9.447 -20.540  0.00  0.00    +0.041 A 
ATOM      7  C   UNL     1      33.768  -7.727 -23.078  0.00  0.00    +0.038 C 
ATOM      8  C   UNL     1      33.358 -10.449 -23.669  0.00  0.00    +0.021 C 
ATOM      9  C   UNL     1      31.020  -9.656 -19.297  0.00  0.00    +0.050 C 
ATOM     10  C   UNL     1      31.642 -11.787 -21.337  0.00  0.00    +0.264 C 
ATOM     11  C   UNL     1      34.297  -8.287 -24.242  0.00  0.00    +0.139 C 
ATOM     12  C   UNL     1      34.093  -9.629 -24.532  0.00  0.00    +0.038 C 
ENDROOT
BRANCH  10  14
ATOM     13  I   UNL     1      34.846 -16.781 -23.567  0.00  0.00    -0.043 I 
ATOM     14  C   UNL     1      32.387 -12.951 -21.855  0.00  0.00    +0.057 C 
ATOM     15  C   UNL     1      33.097 -13.765 -20.978  0.00  0.00    +0.005 C 
ATOM     16  C   UNL     1      32.378 -13.226 -23.221  0.00  0.00    +0.005 C 
ATOM     17  C   UNL     1      33.803 -14.864 -21.469  0.00  0.00    +0.006 C 
ATOM     18  C   UNL     1      33.082 -14.325 -23.712  0.00  0.00    +0.006 C 
ATOM     19  C   UNL     1      33.795 -15.145 -22.835  0.00  0.00    +0.030 C 
ENDBRANCH  10  14
BRANCH  11  20
ATOM     20  O   UNL     1      35.017  -7.509 -25.098  0.00  0.00    -0.471 OA
ATOM     21  C   UNL     1      34.443  -6.261 -25.480  0.00  0.00    +0.252 C 
ENDBRANCH  11  20
BRANCH   3  22
ATOM     22  C   UNL     1      32.315  -6.972 -20.264  0.00  0.00    +0.137 C 
BRANCH  22  24
ATOM     23  O   UNL     1      30.301  -5.911 -21.086  0.00  0.00    -0.250 OA
ATOM     24  C   UNL     1      31.525  -5.949 -21.052  0.00  0.00    +0.318 C 
BRANCH  24  25
ATOM     25  O   UNL     1      32.315  -5.101 -21.755  0.00  0.00    -0.480 OA
ATOM     26  H   UNL     1      32.590  -5.327 -22.622  0.00  0.00    +0.295 HD
ENDBRANCH  24  25
ENDBRANCH  22  24
ENDBRANCH   3  22
TORSDOF 5
ENDMDL
MODEL 8
REMARK VINA RESULT:      -7.7      3.764      6.878
REMARK  Name = 447835
REMARK  5 active torsions:
REMARK  status: ('A' for Active; 'I' for Inactive)
REMARK    1  A    between atoms: C_3  and  C_22
REMARK    2  A    between atoms: C_10  and  C_14
REMARK    3  A    between atoms: C_11  and  O_20
REMARK    4  A    between atoms: C_22  and  C_24
REMARK    5  A    between atoms: C_24  and  O_25
REMARK                            x       y       z     vdW  Elec       q    Type
REMARK                         _______ _______ _______ _____ _____    ______ ____
ROOT
ATOM      1  O   UNL     1      30.673 -11.623 -20.978  0.00  0.00    -0.267 OA
ATOM      2  N   UNL     1      32.379 -10.668 -22.120  0.00  0.00    -0.279 N 
ATOM      3  C   UNL     1      33.021  -8.540 -22.457  0.00  0.00    +0.003 A 
ATOM      4  C   UNL     1      33.626  -9.338 -23.456  0.00  0.00    +0.017 A 
ATOM      5  C   UNL     1      33.224 -10.662 -23.235  0.00  0.00    +0.066 A 
ATOM      6  C   UNL     1      32.277  -9.370 -21.657  0.00  0.00    +0.041 A 
ATOM      7  C   UNL     1      34.487  -9.044 -24.534  0.00  0.00    +0.038 C 
ATOM      8  C   UNL     1      33.662 -11.697 -24.084  0.00  0.00    +0.021 C 
ATOM      9  C   UNL     1      31.472  -8.978 -20.475  0.00  0.00    +0.050 C 
ATOM     10  C   UNL     1      31.758 -11.790 -21.526  0.00  0.00    +0.264 C 
ATOM     11  C   UNL     1      34.924 -10.072 -25.369  0.00  0.00    +0.139 C 
ATOM     12  C   UNL     1      34.515 -11.380 -25.146  0.00  0.00    +0.038 C 
ENDROOT
BRANCH  10  14
ATOM     13  I   UNL     1      34.152 -17.658 -21.526  0.00  0.00    -0.043 I 
ATOM     14  C   UNL     1      32.315 -13.156 -21.525  0.00  0.00    +0.057 C 
ATOM     15  C   UNL     1      32.664 -13.762 -20.322  0.00  0.00    +0.005 C 
ATOM     16  C   UNL     1      32.490 -13.833 -22.730  0.00  0.00    +0.005 C 
ATOM     17  C   UNL     1      33.191 -15.053 -20.321  0.00  0.00    +0.006 C 
ATOM     18  C   UNL     1      33.016 -15.124 -22.731  0.00  0.00    +0.006 C 
ATOM     19  C   UNL     1      33.367 -15.735 -21.526  0.00  0.00    +0.030 C 
ENDBRANCH  10  14
BRANCH  11  20
ATOM     20  O   UNL     1      35.757  -9.789 -26.410  0.00  0.00    -0.471 OA
ATOM     21  C   UNL     1      35.928 -10.803 -27.398  0.00  0.00    +0.252 C 
ENDBRANCH  11  20
BRANCH   3  22
ATOM     22  C   UNL     1      33.168  -7.077 -22.300  0.00  0.00    +0.137 C 
BRANCH  22  24
ATOM     23  O   UNL     1      31.258  -6.662 -23.726  0.00  0.00    -0.250 OA
ATOM     24  C   UNL     1      31.924  -6.342 -22.750  0.00  0.00    +0.318 C 
BRANCH  24  25
ATOM     25  O   UNL     1      31.646  -5.260 -21.981  0.00  0.00    -0.480 OA
ATOM     26  H   UNL     1      32.343  -4.728 -21.652  0.00  0.00    +0.295 HD
ENDBRANCH  24  25
ENDBRANCH  22  24
ENDBRANCH   3  22
TORSDOF 5
ENDMDL
MODEL 9
REMARK VINA RESULT:      -6.8      6.133      9.279
REMARK  Name = 447835
REMARK  5 active torsions:
REMARK  status: ('A' for Active; 'I' for Inactive)
REMARK    1  A    between atoms: C_3  and  C_22
REMARK    2  A    between atoms: C_10  and  C_14
REMARK    3  A    between atoms: C_11  and  O_20
REMARK    4  A    between atoms: C_22  and  C_24
REMARK    5  A    between atoms: C_24  and  O_25
REMARK                            x       y       z     vdW  Elec       q    Type
REMARK                         _______ _______ _______ _____ _____    ______ ____
ROOT
ATOM      1  O   UNL     1      37.474 -21.438 -16.595  0.00  0.00    -0.267 OA
ATOM      2  N   UNL     1      35.440 -22.317 -17.060  0.00  0.00    -0.279 N 
ATOM      3  C   UNL     1      34.040 -22.147 -18.811  0.00  0.00    +0.003 A 
ATOM      4  C   UNL     1      33.292 -22.609 -17.703  0.00  0.00    +0.017 A 
ATOM      5  C   UNL     1      34.173 -22.715 -16.619  0.00  0.00    +0.066 A 
ATOM      6  C   UNL     1      35.338 -21.985 -18.398  0.00  0.00    +0.041 A 
ATOM      7  C   UNL     1      31.934 -22.948 -17.531  0.00  0.00    +0.038 C 
ATOM      8  C   UNL     1      33.714 -23.146 -15.359  0.00  0.00    +0.021 C 
ATOM      9  C   UNL     1      36.482 -21.524 -19.222  0.00  0.00    +0.050 C 
ATOM     10  C   UNL     1      36.636 -22.286 -16.309  0.00  0.00    +0.264 C 
ATOM     11  C   UNL     1      31.483 -23.380 -16.283  0.00  0.00    +0.139 C 
ATOM     12  C   UNL     1      32.363 -23.476 -15.213  0.00  0.00    +0.038 C 
ENDROOT
BRANCH  10  14
ATOM     13  I   UNL     1      37.973 -26.193 -11.500  0.00  0.00    -0.043 I 
ATOM     14  C   UNL     1      36.948 -23.196 -15.189  0.00  0.00    +0.057 C 
ATOM     15  C   UNL     1      37.150 -24.551 -15.434  0.00  0.00    +0.005 C 
ATOM     16  C   UNL     1      37.037 -22.694 -13.893  0.00  0.00    +0.005 C 
ATOM     17  C   UNL     1      37.444 -25.411 -14.376  0.00  0.00    +0.006 C 
ATOM     18  C   UNL     1      37.332 -23.553 -12.835  0.00  0.00    +0.006 C 
ATOM     19  C   UNL     1      37.536 -24.912 -13.077  0.00  0.00    +0.030 C 
ENDBRANCH  10  14
BRANCH  11  20
ATOM     20  O   UNL     1      30.171 -23.708 -16.116  0.00  0.00    -0.471 OA
ATOM     21  C   UNL     1      29.889 -24.911 -15.405  0.00  0.00    +0.252 C 
ENDBRANCH  11  20
BRANCH   3  22
ATOM     22  C   UNL     1      33.519 -21.891 -20.171  0.00  0.00    +0.137 C 
BRANCH  22  24
ATOM     23  O   UNL     1      32.126 -19.927 -19.926  0.00  0.00    -0.250 OA
ATOM     24  C   UNL     1      33.152 -20.435 -20.361  0.00  0.00    +0.318 C 
BRANCH  24  25
ATOM     25  O   UNL     1      34.061 -19.757 -21.104  0.00  0.00    -0.480 OA
ATOM     26  H   UNL     1      33.814 -19.397 -21.933  0.00  0.00    +0.295 HD
ENDBRANCH  24  25
ENDBRANCH  22  24
ENDBRANCH   3  22
TORSDOF 5
ENDMDL
