MODEL 1
REMARK VINA RESULT:      -9.8      0.000      0.000
REMARK  Name = 10237
REMARK  1 active torsions:
REMARK  status: ('A' for Active; 'I' for Inactive)
REMARK    1  A    between atoms: C_4  and  C_20
REMARK                            x       y       z     vdW  Elec       q    Type
REMARK                         _______ _______ _______ _____ _____    ______ ____
ROOT
ATOM      1  O   UNL     1      31.784  -6.320 -24.662  0.00  0.00    -0.435 OA
ATOM      2  O   UNL     1      31.906  -5.104 -22.585  0.00  0.00    -0.435 OA
ATOM      3  N   UNL     1      31.614 -11.375 -21.105  0.00  0.00    +0.392 N 
ATOM      4  C   UNL     1      31.925 -10.744 -22.407  0.00  0.00    +0.010 C 
ATOM      5  C   UNL     1      31.905  -9.222 -22.397  0.00  0.00    -0.039 C 
ATOM      6  C   UNL     1      32.318 -10.720 -19.996  0.00  0.00    -0.072 C 
ATOM      7  C   UNL     1      31.983  -8.503 -21.176  0.00  0.00    -0.027 C 
ATOM      8  C   UNL     1      31.995  -9.231 -19.857  0.00  0.00    +0.003 C 
ATOM      9  C   UNL     1      31.836  -8.524 -23.615  0.00  0.00    +0.034 C 
ATOM     10  C   UNL     1      30.172 -11.463 -20.868  0.00  0.00    -0.100 C 
ATOM     11  C   UNL     1      31.980  -7.099 -21.182  0.00  0.00    +0.035 C 
ATOM     12  C   UNL     1      31.844  -7.145 -23.580  0.00  0.00    +0.176 C 
ATOM     13  C   UNL     1      31.915  -6.452 -22.397  0.00  0.00    +0.176 C 
ATOM     14  C   UNL     1      31.824  -5.027 -24.022  0.00  0.00    +0.429 C 
ATOM     15  H   UNL     1      31.961 -12.333 -21.151  0.00  0.00    -0.079 HD
ENDROOT
BRANCH   4  20
ATOM     16  O   UNL     1      33.443 -10.888 -24.307  0.00  0.00    -0.446 OA
ATOM     17  O   UNL     1      33.944 -15.028 -25.778  0.00  0.00    -0.434 OA
ATOM     18  O   UNL     1      33.823 -16.664 -24.011  0.00  0.00    -0.435 OA
ATOM     19  O   UNL     1      33.790 -11.957 -26.330  0.00  0.00    -0.245 OA
ATOM     20  C   UNL     1      33.284 -11.258 -22.909  0.00  0.00    +0.177 C 
ATOM     21  C   UNL     1      33.391 -12.734 -22.956  0.00  0.00    +0.025 C 
ATOM     22  C   UNL     1      33.601 -13.137 -24.262  0.00  0.00    +0.112 C 
ATOM     23  C   UNL     1      33.630 -11.969 -25.125  0.00  0.00    +0.344 C 
ATOM     24  C   UNL     1      33.322 -13.667 -21.924  0.00  0.00    +0.003 C 
ATOM     25  C   UNL     1      33.738 -14.463 -24.564  0.00  0.00    +0.182 C 
ATOM     26  C   UNL     1      33.668 -15.391 -23.551  0.00  0.00    +0.177 C 
ATOM     27  C   UNL     1      33.463 -15.027 -22.226  0.00  0.00    +0.040 C 
ATOM     28  C   UNL     1      33.996 -16.426 -25.424  0.00  0.00    +0.429 C 
ENDBRANCH   4  20
TORSDOF 1
ENDMDL
MODEL 2
REMARK VINA RESULT:      -9.6     12.546     15.689
REMARK  Name = 10237
REMARK  1 active torsions:
REMARK  status: ('A' for Active; 'I' for Inactive)
REMARK    1  A    between atoms: C_4  and  C_20
REMARK                            x       y       z     vdW  Elec       q    Type
REMARK                         _______ _______ _______ _____ _____    ______ ____
ROOT
ATOM      1  O   UNL     1      34.622 -23.177 -19.284  0.00  0.00    -0.435 OA
ATOM      2  O   UNL     1      32.647 -21.810 -19.460  0.00  0.00    -0.435 OA
ATOM      3  N   UNL     1      32.679 -24.355 -13.534  0.00  0.00    +0.392 N 
ATOM      4  C   UNL     1      33.787 -24.267 -14.511  0.00  0.00    +0.010 C 
ATOM      5  C   UNL     1      33.423 -23.596 -15.827  0.00  0.00    -0.039 C 
ATOM      6  C   UNL     1      31.930 -23.096 -13.440  0.00  0.00    -0.072 C 
ATOM      7  C   UNL     1      32.264 -22.785 -15.932  0.00  0.00    -0.027 C 
ATOM      8  C   UNL     1      31.318 -22.644 -14.767  0.00  0.00    +0.003 C 
ATOM      9  C   UNL     1      34.262 -23.762 -16.943  0.00  0.00    +0.034 C 
ATOM     10  C   UNL     1      31.804 -25.499 -13.797  0.00  0.00    -0.100 C 
ATOM     11  C   UNL     1      31.947 -22.158 -17.148  0.00  0.00    +0.035 C 
ATOM     12  C   UNL     1      33.923 -23.124 -18.118  0.00  0.00    +0.176 C 
ATOM     13  C   UNL     1      32.798 -22.343 -18.217  0.00  0.00    +0.176 C 
ATOM     14  C   UNL     1      33.806 -22.342 -20.132  0.00  0.00    +0.429 C 
ATOM     15  H   UNL     1      33.102 -24.516 -12.620  0.00  0.00    -0.079 HD
ENDROOT
BRANCH   4  20
ATOM     16  O   UNL     1      35.509 -22.567 -14.789  0.00  0.00    -0.446 OA
ATOM     17  O   UNL     1      39.584 -24.277 -14.948  0.00  0.00    -0.434 OA
ATOM     18  O   UNL     1      39.824 -26.237 -13.564  0.00  0.00    -0.435 OA
ATOM     19  O   UNL     1      37.517 -22.113 -15.846  0.00  0.00    -0.245 OA
ATOM     20  C   UNL     1      34.982 -23.554 -13.859  0.00  0.00    +0.177 C 
ATOM     21  C   UNL     1      36.154 -24.429 -13.626  0.00  0.00    +0.025 C 
ATOM     22  C   UNL     1      37.230 -23.957 -14.356  0.00  0.00    +0.112 C 
ATOM     23  C   UNL     1      36.825 -22.777 -15.100  0.00  0.00    +0.344 C 
ATOM     24  C   UNL     1      36.278 -25.558 -12.820  0.00  0.00    +0.003 C 
ATOM     25  C   UNL     1      38.437 -24.598 -14.302  0.00  0.00    +0.182 C 
ATOM     26  C   UNL     1      38.567 -25.716 -13.511  0.00  0.00    +0.177 C 
ATOM     27  C   UNL     1      37.512 -26.218 -12.760  0.00  0.00    +0.040 C 
ATOM     28  C   UNL     1      40.462 -25.321 -14.479  0.00  0.00    +0.429 C 
ENDBRANCH   4  20
TORSDOF 1
ENDMDL
MODEL 3
REMARK VINA RESULT:      -9.4      9.661     13.496
REMARK  Name = 10237
REMARK  1 active torsions:
REMARK  status: ('A' for Active; 'I' for Inactive)
REMARK    1  A    between atoms: C_4  and  C_20
REMARK                            x       y       z     vdW  Elec       q    Type
REMARK                         _______ _______ _______ _____ _____    ______ ____
ROOT
ATOM      1  O   UNL     1      36.887 -18.952 -21.534  0.00  0.00    -0.435 OA
ATOM      2  O   UNL     1      34.666 -18.181 -22.059  0.00  0.00    -0.435 OA
ATOM      3  N   UNL     1      34.039 -23.304 -18.191  0.00  0.00    +0.392 N 
ATOM      4  C   UNL     1      35.240 -22.479 -18.449  0.00  0.00    +0.010 C 
ATOM      5  C   UNL     1      35.027 -21.335 -19.430  0.00  0.00    -0.039 C 
ATOM      6  C   UNL     1      32.842 -22.480 -17.984  0.00  0.00    -0.072 C 
ATOM      7  C   UNL     1      33.721 -20.875 -19.736  0.00  0.00    -0.027 C 
ATOM      8  C   UNL     1      32.511 -21.569 -19.167  0.00  0.00    +0.003 C 
ATOM      9  C   UNL     1      36.142 -20.712 -20.017  0.00  0.00    +0.034 C 
ATOM     10  C   UNL     1      33.837 -24.319 -19.225  0.00  0.00    -0.100 C 
ATOM     11  C   UNL     1      33.539 -19.808 -20.631  0.00  0.00    +0.035 C 
ATOM     12  C   UNL     1      35.925 -19.662 -20.884  0.00  0.00    +0.176 C 
ATOM     13  C   UNL     1      34.659 -19.222 -21.182  0.00  0.00    +0.176 C 
ATOM     14  C   UNL     1      36.081 -18.015 -22.278  0.00  0.00    +0.429 C 
ATOM     15  H   UNL     1      34.206 -23.806 -17.318  0.00  0.00    -0.079 HD
ENDROOT
BRANCH   4  20
ATOM     16  O   UNL     1      37.236 -22.052 -17.119  0.00  0.00    -0.446 OA
ATOM     17  O   UNL     1      37.477 -24.624 -13.530  0.00  0.00    -0.434 OA
ATOM     18  O   UNL     1      35.310 -25.127 -12.600  0.00  0.00    -0.435 OA
ATOM     19  O   UNL     1      38.880 -23.079 -15.855  0.00  0.00    -0.245 OA
ATOM     20  C   UNL     1      35.785 -21.945 -17.114  0.00  0.00    +0.177 C 
ATOM     21  C   UNL     1      35.411 -22.763 -15.939  0.00  0.00    +0.025 C 
ATOM     22  C   UNL     1      36.555 -23.265 -15.345  0.00  0.00    +0.112 C 
ATOM     23  C   UNL     1      37.717 -22.820 -16.093  0.00  0.00    +0.344 C 
ATOM     24  C   UNL     1      34.152 -23.042 -15.411  0.00  0.00    +0.003 C 
ATOM     25  C   UNL     1      36.468 -24.052 -14.230  0.00  0.00    +0.182 C 
ATOM     26  C   UNL     1      35.228 -24.335 -13.705  0.00  0.00    +0.177 C 
ATOM     27  C   UNL     1      34.057 -23.847 -14.268  0.00  0.00    +0.040 C 
ATOM     28  C   UNL     1      36.738 -25.307 -12.496  0.00  0.00    +0.429 C 
ENDBRANCH   4  20
TORSDOF 1
ENDMDL
MODEL 4
REMARK VINA RESULT:      -9.0     10.602     14.875
REMARK  Name = 10237
REMARK  1 active torsions:
REMARK  status: ('A' for Active; 'I' for Inactive)
REMARK    1  A    between atoms: C_4  and  C_20
REMARK                            x       y       z     vdW  Elec       q    Type
REMARK                         _______ _______ _______ _____ _____    ______ ____
ROOT
ATOM      1  O   UNL     1      37.669 -22.788 -12.754  0.00  0.00    -0.435 OA
ATOM      2  O   UNL     1      36.902 -24.624 -11.396  0.00  0.00    -0.435 OA
ATOM      3  N   UNL     1      32.184 -23.245 -15.573  0.00  0.00    +0.392 N 
ATOM      4  C   UNL     1      33.605 -22.833 -15.611  0.00  0.00    +0.010 C 
ATOM      5  C   UNL     1      34.447 -23.345 -14.450  0.00  0.00    -0.039 C 
ATOM      6  C   UNL     1      32.034 -24.665 -15.232  0.00  0.00    -0.072 C 
ATOM      7  C   UNL     1      34.001 -24.429 -13.652  0.00  0.00    -0.027 C 
ATOM      8  C   UNL     1      32.642 -25.040 -13.880  0.00  0.00    +0.003 C 
ATOM      9  C   UNL     1      35.692 -22.749 -14.185  0.00  0.00    +0.034 C 
ATOM     10  C   UNL     1      31.385 -22.382 -14.703  0.00  0.00    -0.100 C 
ATOM     11  C   UNL     1      34.794 -24.902 -12.594  0.00  0.00    +0.035 C 
ATOM     12  C   UNL     1      36.447 -23.246 -13.143  0.00  0.00    +0.176 C 
ATOM     13  C   UNL     1      36.010 -24.293 -12.370  0.00  0.00    +0.176 C 
ATOM     14  C   UNL     1      37.950 -23.667 -11.645  0.00  0.00    +0.429 C 
ATOM     15  H   UNL     1      31.817 -23.128 -16.517  0.00  0.00    -0.079 HD
ENDROOT
BRANCH   4  20
ATOM     16  O   UNL     1      35.672 -23.175 -16.854  0.00  0.00    -0.446 OA
ATOM     17  O   UNL     1      36.135 -20.327 -20.206  0.00  0.00    -0.434 OA
ATOM     18  O   UNL     1      34.028 -19.729 -21.215  0.00  0.00    -0.435 OA
ATOM     19  O   UNL     1      37.392 -22.068 -17.937  0.00  0.00    -0.245 OA
ATOM     20  C   UNL     1      34.223 -23.265 -16.951  0.00  0.00    +0.177 C 
ATOM     21  C   UNL     1      33.921 -22.352 -18.076  0.00  0.00    +0.025 C 
ATOM     22  C   UNL     1      35.101 -21.817 -18.561  0.00  0.00    +0.112 C 
ATOM     23  C   UNL     1      36.216 -22.332 -17.786  0.00  0.00    +0.344 C 
ATOM     24  C   UNL     1      32.697 -22.018 -18.651  0.00  0.00    +0.003 C 
ATOM     25  C   UNL     1      35.083 -20.943 -19.613  0.00  0.00    +0.182 C 
ATOM     26  C   UNL     1      33.878 -20.605 -20.183  0.00  0.00    +0.177 C 
ATOM     27  C   UNL     1      32.673 -21.124 -19.728  0.00  0.00    +0.040 C 
ATOM     28  C   UNL     1      35.461 -19.556 -21.222  0.00  0.00    +0.429 C 
ENDBRANCH   4  20
TORSDOF 1
ENDMDL
MODEL 5
REMARK VINA RESULT:      -8.8      4.187      9.600
REMARK  Name = 10237
REMARK  1 active torsions:
REMARK  status: ('A' for Active; 'I' for Inactive)
REMARK    1  A    between atoms: C_4  and  C_20
REMARK                            x       y       z     vdW  Elec       q    Type
REMARK                         _______ _______ _______ _____ _____    ______ ____
ROOT
ATOM      1  O   UNL     1      32.316 -20.536 -19.323  0.00  0.00    -0.435 OA
ATOM      2  O   UNL     1      34.228 -21.995 -19.466  0.00  0.00    -0.435 OA
ATOM      3  N   UNL     1      35.174 -17.201 -23.676  0.00  0.00    +0.392 N 
ATOM      4  C   UNL     1      34.209 -17.274 -22.556  0.00  0.00    +0.010 C 
ATOM      5  C   UNL     1      34.258 -18.569 -21.757  0.00  0.00    -0.039 C 
ATOM      6  C   UNL     1      36.506 -17.677 -23.283  0.00  0.00    -0.072 C 
ATOM      7  C   UNL     1      35.385 -19.427 -21.834  0.00  0.00    -0.027 C 
ATOM      8  C   UNL     1      36.519 -19.121 -22.778  0.00  0.00    +0.003 C 
ATOM      9  C   UNL     1      33.184 -18.902 -20.914  0.00  0.00    +0.034 C 
ATOM     10  C   UNL     1      34.677 -17.879 -24.874  0.00  0.00    -0.100 C 
ATOM     11  C   UNL     1      35.425 -20.611 -21.080  0.00  0.00    +0.035 C 
ATOM     12  C   UNL     1      33.263 -20.069 -20.183  0.00  0.00    +0.176 C 
ATOM     13  C   UNL     1      34.352 -20.900 -20.263  0.00  0.00    +0.176 C 
ATOM     14  C   UNL     1      32.935 -21.759 -18.872  0.00  0.00    +0.429 C 
ATOM     15  H   UNL     1      35.272 -16.215 -23.918  0.00  0.00    -0.079 HD
ENDROOT
BRANCH   4  20
ATOM     16  O   UNL     1      33.587 -16.231 -20.444  0.00  0.00    -0.446 OA
ATOM     17  O   UNL     1      31.312 -12.480 -21.001  0.00  0.00    -0.434 OA
ATOM     18  O   UNL     1      31.995 -11.262 -22.966  0.00  0.00    -0.435 OA
ATOM     19  O   UNL     1      31.890 -15.081 -19.369  0.00  0.00    -0.245 OA
ATOM     20  C   UNL     1      34.416 -16.065 -21.629  0.00  0.00    +0.177 C 
ATOM     21  C   UNL     1      33.922 -14.786 -22.186  0.00  0.00    +0.025 C 
ATOM     22  C   UNL     1      32.920 -14.288 -21.373  0.00  0.00    +0.112 C 
ATOM     23  C   UNL     1      32.699 -15.204 -20.268  0.00  0.00    +0.344 C 
ATOM     24  C   UNL     1      34.330 -14.092 -23.323  0.00  0.00    +0.003 C 
ATOM     25  C   UNL     1      32.305 -13.105 -21.678  0.00  0.00    +0.182 C 
ATOM     26  C   UNL     1      32.699 -12.415 -22.801  0.00  0.00    +0.177 C 
ATOM     27  C   UNL     1      33.704 -12.879 -23.640  0.00  0.00    +0.040 C 
ATOM     28  C   UNL     1      31.116 -11.310 -21.822  0.00  0.00    +0.429 C 
ENDBRANCH   4  20
TORSDOF 1
ENDMDL
MODEL 6
REMARK VINA RESULT:      -8.8      1.236      1.636
REMARK  Name = 10237
REMARK  1 active torsions:
REMARK  status: ('A' for Active; 'I' for Inactive)
REMARK    1  A    between atoms: C_4  and  C_20
REMARK                            x       y       z     vdW  Elec       q    Type
REMARK                         _______ _______ _______ _____ _____    ______ ____
ROOT
ATOM      1  O   UNL     1      31.582  -6.273 -24.767  0.00  0.00    -0.435 OA
ATOM      2  O   UNL     1      31.729  -4.857 -22.824  0.00  0.00    -0.435 OA
ATOM      3  N   UNL     1      31.649 -10.957 -20.732  0.00  0.00    +0.392 N 
ATOM      4  C   UNL     1      31.906 -10.450 -22.098  0.00  0.00    +0.010 C 
ATOM      5  C   UNL     1      31.846  -8.935 -22.235  0.00  0.00    -0.039 C 
ATOM      6  C   UNL     1      32.366 -10.180 -19.714  0.00  0.00    -0.072 C 
ATOM      7  C   UNL     1      31.938  -8.098 -21.094  0.00  0.00    -0.027 C 
ATOM      8  C   UNL     1      32.007  -8.693 -19.711  0.00  0.00    +0.003 C 
ATOM      9  C   UNL     1      31.723  -8.361 -23.513  0.00  0.00    +0.034 C 
ATOM     10  C   UNL     1      30.218 -11.057 -20.444  0.00  0.00    -0.100 C 
ATOM     11  C   UNL     1      31.897  -6.702 -21.236  0.00  0.00    +0.035 C 
ATOM     12  C   UNL     1      31.695  -6.986 -23.613  0.00  0.00    +0.176 C 
ATOM     13  C   UNL     1      31.779  -6.179 -22.506  0.00  0.00    +0.176 C 
ATOM     14  C   UNL     1      31.604  -4.923 -24.259  0.00  0.00    +0.429 C 
ATOM     15  H   UNL     1      32.021 -11.907 -20.694  0.00  0.00    -0.079 HD
ENDROOT
BRANCH   4  20
ATOM     16  O   UNL     1      33.917  -9.943 -23.377  0.00  0.00    -0.446 OA
ATOM     17  O   UNL     1      34.256 -12.378 -27.053  0.00  0.00    -0.434 OA
ATOM     18  O   UNL     1      33.338 -14.591 -26.790  0.00  0.00    -0.435 OA
ATOM     19  O   UNL     1      34.737  -9.694 -25.527  0.00  0.00    -0.245 OA
ATOM     20  C   UNL     1      33.265 -10.977 -22.588  0.00  0.00    +0.177 C 
ATOM     21  C   UNL     1      33.165 -12.097 -23.551  0.00  0.00    +0.025 C 
ATOM     22  C   UNL     1      33.723 -11.715 -24.758  0.00  0.00    +0.112 C 
ATOM     23  C   UNL     1      34.198 -10.347 -24.655  0.00  0.00    +0.344 C 
ATOM     24  C   UNL     1      32.633 -13.374 -23.383  0.00  0.00    +0.003 C 
ATOM     25  C   UNL     1      33.756 -12.586 -25.812  0.00  0.00    +0.182 C 
ATOM     26  C   UNL     1      33.229 -13.848 -25.655  0.00  0.00    +0.177 C 
ATOM     27  C   UNL     1      32.665 -14.270 -24.458  0.00  0.00    +0.040 C 
ATOM     28  C   UNL     1      33.988 -13.653 -27.673  0.00  0.00    +0.429 C 
ENDBRANCH   4  20
TORSDOF 1
ENDMDL
MODEL 7
REMARK VINA RESULT:      -7.6      2.379      4.193
REMARK  Name = 10237
REMARK  1 active torsions:
REMARK  status: ('A' for Active; 'I' for Inactive)
REMARK    1  A    between atoms: C_4  and  C_20
REMARK                            x       y       z     vdW  Elec       q    Type
REMARK                         _______ _______ _______ _____ _____    ______ ____
ROOT
ATOM      1  O   UNL     1      30.015  -4.026 -21.785  0.00  0.00    -0.435 OA
ATOM      2  O   UNL     1      30.579  -2.707 -23.721  0.00  0.00    -0.435 OA
ATOM      3  N   UNL     1      34.242  -8.012 -23.900  0.00  0.00    +0.392 N 
ATOM      4  C   UNL     1      33.028  -7.752 -23.096  0.00  0.00    +0.010 C 
ATOM      5  C   UNL     1      32.410  -6.377 -23.304  0.00  0.00    -0.039 C 
ATOM      6  C   UNL     1      34.084  -7.571 -25.291  0.00  0.00    -0.072 C 
ATOM      7  C   UNL     1      32.735  -5.600 -24.445  0.00  0.00    -0.027 C 
ATOM      8  C   UNL     1      33.769  -6.081 -25.431  0.00  0.00    +0.003 C 
ATOM      9  C   UNL     1      31.486  -5.885 -22.366  0.00  0.00    +0.034 C 
ATOM     10  C   UNL     1      35.443  -7.454 -23.278  0.00  0.00    -0.100 C 
ATOM     11  C   UNL     1      32.146  -4.339 -24.634  0.00  0.00    +0.035 C 
ATOM     12  C   UNL     1      30.922  -4.646 -22.589  0.00  0.00    +0.176 C 
ATOM     13  C   UNL     1      31.243  -3.895 -23.692  0.00  0.00    +0.176 C 
ATOM     14  C   UNL     1      29.803  -2.796 -22.509  0.00  0.00    +0.429 C 
ATOM     15  H   UNL     1      34.370  -9.025 -23.924  0.00  0.00    -0.079 HD
ENDROOT
BRANCH   4  20
ATOM     16  O   UNL     1      31.179  -9.048 -22.180  0.00  0.00    -0.446 OA
ATOM     17  O   UNL     1      32.172 -13.331 -21.702  0.00  0.00    -0.434 OA
ATOM     18  O   UNL     1      33.677 -14.132 -23.407  0.00  0.00    -0.435 OA
ATOM     19  O   UNL     1      30.661 -10.775 -20.730  0.00  0.00    -0.245 OA
ATOM     20  C   UNL     1      31.990  -8.852 -23.372  0.00  0.00    +0.177 C 
ATOM     21  C   UNL     1      32.575 -10.195 -23.583  0.00  0.00    +0.025 C 
ATOM     22  C   UNL     1      32.118 -11.054 -22.601  0.00  0.00    +0.112 C 
ATOM     23  C   UNL     1      31.235 -10.330 -21.704  0.00  0.00    +0.344 C 
ATOM     24  C   UNL     1      33.443 -10.644 -24.577  0.00  0.00    +0.003 C 
ATOM     25  C   UNL     1      32.517 -12.362 -22.584  0.00  0.00    +0.182 C 
ATOM     26  C   UNL     1      33.376 -12.812 -23.560  0.00  0.00    +0.177 C 
ATOM     27  C   UNL     1      33.854 -11.983 -24.566  0.00  0.00    +0.040 C 
ATOM     28  C   UNL     1      32.912 -14.453 -22.226  0.00  0.00    +0.429 C 
ENDBRANCH   4  20
TORSDOF 1
ENDMDL
MODEL 8
REMARK VINA RESULT:      -7.2     10.408     15.030
REMARK  Name = 10237
REMARK  1 active torsions:
REMARK  status: ('A' for Active; 'I' for Inactive)
REMARK    1  A    between atoms: C_4  and  C_20
REMARK                            x       y       z     vdW  Elec       q    Type
REMARK                         _______ _______ _______ _____ _____    ______ ____
ROOT
ATOM      1  O   UNL     1      40.135 -24.387 -14.946  0.00  0.00    -0.435 OA
ATOM      2  O   UNL     1      39.308 -26.388 -13.890  0.00  0.00    -0.435 OA
ATOM      3  N   UNL     1      34.175 -22.992 -15.819  0.00  0.00    +0.392 N 
ATOM      4  C   UNL     1      35.590 -22.843 -16.225  0.00  0.00    +0.010 C 
ATOM      5  C   UNL     1      36.548 -23.825 -15.564  0.00  0.00    -0.039 C 
ATOM      6  C   UNL     1      33.757 -24.399 -15.797  0.00  0.00    -0.072 C 
ATOM      7  C   UNL     1      36.065 -25.006 -14.947  0.00  0.00    -0.027 C 
ATOM      8  C   UNL     1      34.585 -25.272 -14.852  0.00  0.00    +0.003 C 
ATOM      9  C   UNL     1      37.929 -23.566 -15.591  0.00  0.00    +0.034 C 
ATOM     10  C   UNL     1      33.891 -22.312 -14.555  0.00  0.00    -0.100 C 
ATOM     11  C   UNL     1      36.960 -25.912 -14.355  0.00  0.00    +0.035 C 
ATOM     12  C   UNL     1      38.779 -24.482 -15.007  0.00  0.00    +0.176 C 
ATOM     13  C   UNL     1      38.308 -25.623 -14.406  0.00  0.00    +0.176 C 
ATOM     14  C   UNL     1      40.464 -25.599 -14.236  0.00  0.00    +0.429 C 
ATOM     15  H   UNL     1      33.612 -22.528 -16.532  0.00  0.00    -0.079 HD
ENDROOT
BRANCH   4  20
ATOM     16  O   UNL     1      36.910 -22.276 -18.192  0.00  0.00    -0.446 OA
ATOM     17  O   UNL     1      34.870 -19.378 -20.837  0.00  0.00    -0.434 OA
ATOM     18  O   UNL     1      32.474 -19.652 -20.843  0.00  0.00    -0.435 OA
ATOM     19  O   UNL     1      37.495 -20.532 -19.597  0.00  0.00    -0.245 OA
ATOM     20  C   UNL     1      35.693 -22.943 -17.755  0.00  0.00    +0.177 C 
ATOM     21  C   UNL     1      34.642 -22.195 -18.481  0.00  0.00    +0.025 C 
ATOM     22  C   UNL     1      35.231 -21.212 -19.256  0.00  0.00    +0.112 C 
ATOM     23  C   UNL     1      36.671 -21.256 -19.073  0.00  0.00    +0.344 C 
ATOM     24  C   UNL     1      33.260 -22.367 -18.477  0.00  0.00    +0.003 C 
ATOM     25  C   UNL     1      34.462 -20.386 -20.028  0.00  0.00    +0.182 C 
ATOM     26  C   UNL     1      33.096 -20.548 -20.027  0.00  0.00    +0.177 C 
ATOM     27  C   UNL     1      32.467 -21.525 -19.266  0.00  0.00    +0.040 C 
ATOM     28  C   UNL     1      33.605 -18.913 -21.352  0.00  0.00    +0.429 C 
ENDBRANCH   4  20
TORSDOF 1
ENDMDL
MODEL 9
REMARK VINA RESULT:      -7.1     13.683     16.376
REMARK  Name = 10237
REMARK  1 active torsions:
REMARK  status: ('A' for Active; 'I' for Inactive)
REMARK    1  A    between atoms: C_4  and  C_20
REMARK                            x       y       z     vdW  Elec       q    Type
REMARK                         _______ _______ _______ _____ _____    ______ ____
ROOT
ATOM      1  O   UNL     1      37.756 -26.253 -13.896  0.00  0.00    -0.435 OA
ATOM      2  O   UNL     1      39.641 -24.810 -14.307  0.00  0.00    -0.435 OA
ATOM      3  N   UNL     1      34.675 -22.464 -17.689  0.00  0.00    +0.392 N 
ATOM      4  C   UNL     1      34.661 -23.444 -16.581  0.00  0.00    +0.010 C 
ATOM      5  C   UNL     1      36.031 -23.775 -16.006  0.00  0.00    -0.039 C 
ATOM      6  C   UNL     1      35.556 -21.325 -17.402  0.00  0.00    -0.072 C 
ATOM      7  C   UNL     1      37.141 -22.925 -16.241  0.00  0.00    -0.027 C 
ATOM      8  C   UNL     1      37.009 -21.723 -17.140  0.00  0.00    +0.003 C 
ATOM      9  C   UNL     1      36.187 -24.924 -15.212  0.00  0.00    +0.034 C 
ATOM     10  C   UNL     1      34.987 -23.091 -18.974  0.00  0.00    -0.100 C 
ATOM     11  C   UNL     1      38.396 -23.233 -15.692  0.00  0.00    +0.035 C 
ATOM     12  C   UNL     1      37.433 -25.190 -14.683  0.00  0.00    +0.176 C 
ATOM     13  C   UNL     1      38.507 -24.367 -14.916  0.00  0.00    +0.176 C 
ATOM     14  C   UNL     1      39.158 -26.006 -13.662  0.00  0.00    +0.429 C 
ATOM     15  H   UNL     1      33.728 -22.092 -17.768  0.00  0.00    -0.079 HD
ENDROOT
BRANCH   4  20
ATOM     16  O   UNL     1      33.930 -23.746 -14.277  0.00  0.00    -0.446 OA
ATOM     17  O   UNL     1      29.746 -25.148 -13.986  0.00  0.00    -0.434 OA
ATOM     18  O   UNL     1      28.349 -24.278 -15.748  0.00  0.00    -0.435 OA
ATOM     19  O   UNL     1      32.672 -25.107 -12.891  0.00  0.00    -0.245 OA
ATOM     20  C   UNL     1      33.722 -22.943 -15.472  0.00  0.00    +0.177 C 
ATOM     21  C   UNL     1      32.285 -23.158 -15.754  0.00  0.00    +0.025 C 
ATOM     22  C   UNL     1      31.749 -23.996 -14.793  0.00  0.00    +0.112 C 
ATOM     23  C   UNL     1      32.790 -24.377 -13.855  0.00  0.00    +0.344 C 
ATOM     24  C   UNL     1      31.490 -22.645 -16.777  0.00  0.00    +0.003 C 
ATOM     25  C   UNL     1      30.427 -24.343 -14.836  0.00  0.00    +0.182 C 
ATOM     26  C   UNL     1      29.636 -23.843 -15.845  0.00  0.00    +0.177 C 
ATOM     27  C   UNL     1      30.135 -22.995 -16.825  0.00  0.00    +0.040 C 
ATOM     28  C   UNL     1      28.427 -25.106 -14.569  0.00  0.00    +0.429 C 
ENDBRANCH   4  20
TORSDOF 1
ENDMDL
