MODEL 1
REMARK VINA RESULT:     -10.2      0.000      0.000
REMARK  Name = 11963512
REMARK  10 active torsions:
REMARK  status: ('A' for Active; 'I' for Inactive)
REMARK    1  A    between atoms: C_1  and  N_7
REMARK    2  A    between atoms: C_4  and  C_17
REMARK    3  A    between atoms: N_7  and  C_9
REMARK    4  A    between atoms: C_9  and  C_10
REMARK    5  A    between atoms: C_10  and  C_11
REMARK    6  A    between atoms: C_11  and  C_12
REMARK    7  A    between atoms: C_12  and  C_14
REMARK    8  A    between atoms: C_14  and  O_15
REMARK    9  A    between atoms: C_18  and  C_19
REMARK   10  A    between atoms: C_22  and  N_27
REMARK                            x       y       z     vdW  Elec       q    Type
REMARK                         _______ _______ _______ _____ _____    ______ ____
ROOT
ATOM      1  C   UNL     1      33.377 -12.926 -23.250  0.00  0.00    +0.048 C 
ATOM      2  C   UNL     1      32.584 -13.153 -22.120  0.00  0.00    +0.015 C 
ATOM      3  C   UNL     1      34.216 -13.945 -23.716  0.00  0.00    +0.015 C 
ATOM      4  C   UNL     1      33.469 -15.392 -21.932  0.00  0.00    +0.000 C 
ATOM      5  C   UNL     1      32.630 -14.382 -21.463  0.00  0.00    +0.001 C 
ATOM      6  C   UNL     1      34.262 -15.174 -23.059  0.00  0.00    +0.001 C 
ENDROOT
BRANCH   1   7
ATOM      7  N   UNL     1      33.331 -11.690 -23.911  0.00  0.00    -0.306 N 
ATOM      8  C   UNL     1      33.972 -11.535 -25.218  0.00  0.00    +0.112 C 
BRANCH   7   9
ATOM      9  C   UNL     1      32.647 -10.556 -23.339  0.00  0.00    +0.091 C 
BRANCH   9  10
ATOM     10  C   UNL     1      33.503  -9.294 -23.428  0.00  0.00    +0.022 C 
BRANCH  10  11
ATOM     11  C   UNL     1      33.080  -8.217 -22.421  0.00  0.00    +0.013 C 
BRANCH  11  12
ATOM     12  C   UNL     1      31.975  -8.699 -21.484  0.00  0.00    +0.109 C 
BRANCH  12  14
ATOM     13  O   UNL     1      32.054  -9.483 -19.200  0.00  0.00    -0.250 OA
ATOM     14  C   UNL     1      32.386  -8.650 -20.034  0.00  0.00    +0.314 C 
BRANCH  14  15
ATOM     15  O   UNL     1      33.175  -7.584 -19.751  0.00  0.00    -0.480 OA
ATOM     16  H   UNL     1      32.975  -6.744 -20.114  0.00  0.00    +0.295 HD
ENDBRANCH  14  15
ENDBRANCH  12  14
ENDBRANCH  11  12
ENDBRANCH  10  11
ENDBRANCH   9  10
ENDBRANCH   7   9
ENDBRANCH   1   7
BRANCH   4  17
ATOM     17  C   UNL     1      33.517 -16.675 -21.247  0.00  0.00    +0.000 C 
ATOM     18  C   UNL     1      34.191 -17.766 -21.679  0.00  0.00    +0.000 C 
BRANCH  18  19
ATOM     19  C   UNL     1      34.255 -19.059 -20.975  0.00  0.00    +0.000 C 
ATOM     20  C   UNL     1      33.079 -19.670 -20.570  0.00  0.00    +0.002 C 
ATOM     21  C   UNL     1      35.490 -19.639 -20.735  0.00  0.00    +0.002 C 
ATOM     22  C   UNL     1      34.376 -21.492 -19.656  0.00  0.00    +0.143 C 
ATOM     23  C   UNL     1      33.140 -20.896 -19.905  0.00  0.00    +0.024 C 
ATOM     24  C   UNL     1      35.550 -20.865 -20.070  0.00  0.00    +0.024 C 
BRANCH  22  27
ATOM     25  O   UNL     1      35.018 -22.798 -17.866  0.00  0.00    -0.126 OA
ATOM     26  O   UNL     1      33.913 -23.747 -19.510  0.00  0.00    -0.126 OA
ATOM     27  N   UNL     1      34.439 -22.740 -18.979  0.00  0.00    +0.058 N 
ENDBRANCH  22  27
ENDBRANCH  18  19
ENDBRANCH   4  17
TORSDOF 10
ENDMDL
MODEL 2
REMARK VINA RESULT:     -10.1      5.321     12.640
REMARK  Name = 11963512
REMARK  10 active torsions:
REMARK  status: ('A' for Active; 'I' for Inactive)
REMARK    1  A    between atoms: C_1  and  N_7
REMARK    2  A    between atoms: C_4  and  C_17
REMARK    3  A    between atoms: N_7  and  C_9
REMARK    4  A    between atoms: C_9  and  C_10
REMARK    5  A    between atoms: C_10  and  C_11
REMARK    6  A    between atoms: C_11  and  C_12
REMARK    7  A    between atoms: C_12  and  C_14
REMARK    8  A    between atoms: C_14  and  O_15
REMARK    9  A    between atoms: C_18  and  C_19
REMARK   10  A    between atoms: C_22  and  N_27
REMARK                            x       y       z     vdW  Elec       q    Type
REMARK                         _______ _______ _______ _____ _____    ______ ____
ROOT
ATOM      1  C   UNL     1      35.068 -23.260 -16.582  0.00  0.00    +0.048 C 
ATOM      2  C   UNL     1      36.112 -22.468 -17.072  0.00  0.00    +0.015 C 
ATOM      3  C   UNL     1      33.836 -23.258 -17.245  0.00  0.00    +0.015 C 
ATOM      4  C   UNL     1      34.695 -21.686 -18.865  0.00  0.00    +0.000 C 
ATOM      5  C   UNL     1      35.926 -21.683 -18.209  0.00  0.00    +0.001 C 
ATOM      6  C   UNL     1      33.650 -22.473 -18.383  0.00  0.00    +0.001 C 
ENDROOT
BRANCH   1   7
ATOM      7  N   UNL     1      35.254 -24.049 -15.438  0.00  0.00    -0.306 N 
ATOM      8  C   UNL     1      34.096 -24.495 -14.661  0.00  0.00    +0.112 C 
BRANCH   7   9
ATOM      9  C   UNL     1      36.571 -24.452 -15.007  0.00  0.00    +0.091 C 
BRANCH   9  10
ATOM     10  C   UNL     1      36.710 -25.972 -15.007  0.00  0.00    +0.022 C 
BRANCH  10  11
ATOM     11  C   UNL     1      37.923 -26.458 -14.205  0.00  0.00    +0.013 C 
BRANCH  11  12
ATOM     12  C   UNL     1      39.069 -25.449 -14.215  0.00  0.00    +0.109 C 
BRANCH  12  14
ATOM     13  O   UNL     1      41.193 -26.591 -14.056  0.00  0.00    -0.250 OA
ATOM     14  C   UNL     1      40.350 -26.037 -14.751  0.00  0.00    +0.314 C 
BRANCH  14  15
ATOM     15  O   UNL     1      40.467 -25.894 -16.095  0.00  0.00    -0.480 OA
ATOM     16  H   UNL     1      40.201 -26.587 -16.665  0.00  0.00    +0.295 HD
ENDBRANCH  14  15
ENDBRANCH  12  14
ENDBRANCH  11  12
ENDBRANCH  10  11
ENDBRANCH   9  10
ENDBRANCH   7   9
ENDBRANCH   1   7
BRANCH   4  17
ATOM     17  C   UNL     1      34.502 -20.867 -20.052  0.00  0.00    +0.000 C 
ATOM     18  C   UNL     1      35.148 -19.708 -20.315  0.00  0.00    +0.000 C 
BRANCH  18  19
ATOM     19  C   UNL     1      34.967 -18.889 -21.526  0.00  0.00    +0.000 C 
ATOM     20  C   UNL     1      34.933 -19.509 -22.765  0.00  0.00    +0.002 C 
ATOM     21  C   UNL     1      34.830 -17.516 -21.403  0.00  0.00    +0.002 C 
ATOM     22  C   UNL     1      34.620 -17.350 -23.804  0.00  0.00    +0.143 C 
ATOM     23  C   UNL     1      34.759 -18.734 -23.912  0.00  0.00    +0.024 C 
ATOM     24  C   UNL     1      34.655 -16.741 -22.550  0.00  0.00    +0.024 C 
BRANCH  22  27
ATOM     25  O   UNL     1      34.960 -16.944 -26.048  0.00  0.00    -0.126 OA
ATOM     26  O   UNL     1      33.773 -15.502 -24.893  0.00  0.00    -0.126 OA
ATOM     27  N   UNL     1      34.443 -16.560 -24.971  0.00  0.00    +0.058 N 
ENDBRANCH  22  27
ENDBRANCH  18  19
ENDBRANCH   4  17
TORSDOF 10
ENDMDL
MODEL 3
REMARK VINA RESULT:      -9.9      4.125      6.631
REMARK  Name = 11963512
REMARK  10 active torsions:
REMARK  status: ('A' for Active; 'I' for Inactive)
REMARK    1  A    between atoms: C_1  and  N_7
REMARK    2  A    between atoms: C_4  and  C_17
REMARK    3  A    between atoms: N_7  and  C_9
REMARK    4  A    between atoms: C_9  and  C_10
REMARK    5  A    between atoms: C_10  and  C_11
REMARK    6  A    between atoms: C_11  and  C_12
REMARK    7  A    between atoms: C_12  and  C_14
REMARK    8  A    between atoms: C_14  and  O_15
REMARK    9  A    between atoms: C_18  and  C_19
REMARK   10  A    between atoms: C_22  and  N_27
REMARK                            x       y       z     vdW  Elec       q    Type
REMARK                         _______ _______ _______ _____ _____    ______ ____
ROOT
ATOM      1  C   UNL     1      35.202 -19.104 -21.532  0.00  0.00    +0.048 C 
ATOM      2  C   UNL     1      34.082 -19.792 -21.052  0.00  0.00    +0.015 C 
ATOM      3  C   UNL     1      36.463 -19.386 -20.995  0.00  0.00    +0.015 C 
ATOM      4  C   UNL     1      35.481 -21.024 -19.516  0.00  0.00    +0.000 C 
ATOM      5  C   UNL     1      34.221 -20.749 -20.047  0.00  0.00    +0.001 C 
ATOM      6  C   UNL     1      36.602 -20.342 -19.989  0.00  0.00    +0.001 C 
ENDROOT
BRANCH   1   7
ATOM      7  N   UNL     1      35.063 -18.142 -22.543  0.00  0.00    -0.306 N 
ATOM      8  C   UNL     1      34.696 -18.554 -23.899  0.00  0.00    +0.112 C 
BRANCH   7   9
ATOM      9  C   UNL     1      35.259 -16.738 -22.277  0.00  0.00    +0.091 C 
BRANCH   9  10
ATOM     10  C   UNL     1      34.660 -16.343 -20.929  0.00  0.00    +0.022 C 
BRANCH  10  11
ATOM     11  C   UNL     1      34.281 -14.858 -20.859  0.00  0.00    +0.013 C 
BRANCH  11  12
ATOM     12  C   UNL     1      32.777 -14.635 -20.997  0.00  0.00    +0.109 C 
BRANCH  12  14
ATOM     13  O   UNL     1      32.820 -14.100 -23.353  0.00  0.00    -0.250 OA
ATOM     14  C   UNL     1      32.425 -13.833 -22.225  0.00  0.00    +0.314 C 
BRANCH  14  15
ATOM     15  O   UNL     1      31.613 -12.782 -21.947  0.00  0.00    -0.480 OA
ATOM     16  H   UNL     1      31.574 -12.053 -22.534  0.00  0.00    +0.295 HD
ENDBRANCH  14  15
ENDBRANCH  12  14
ENDBRANCH  11  12
ENDBRANCH  10  11
ENDBRANCH   9  10
ENDBRANCH   7   9
ENDBRANCH   1   7
BRANCH   4  17
ATOM     17  C   UNL     1      35.626 -22.022 -18.467  0.00  0.00    +0.000 C 
ATOM     18  C   UNL     1      36.331 -21.857 -17.324  0.00  0.00    +0.000 C 
BRANCH  18  19
ATOM     19  C   UNL     1      36.461 -22.860 -16.253  0.00  0.00    +0.000 C 
ATOM     20  C   UNL     1      35.322 -23.465 -15.748  0.00  0.00    +0.002 C 
ATOM     21  C   UNL     1      37.721 -23.182 -15.775  0.00  0.00    +0.002 C 
ATOM     22  C   UNL     1      36.707 -24.752 -14.244  0.00  0.00    +0.143 C 
ATOM     23  C   UNL     1      35.446 -24.418 -14.735  0.00  0.00    +0.024 C 
ATOM     24  C   UNL     1      37.845 -24.135 -14.763  0.00  0.00    +0.024 C 
BRANCH  22  27
ATOM     25  O   UNL     1      36.281 -25.507 -12.107  0.00  0.00    -0.126 OA
ATOM     26  O   UNL     1      37.495 -26.763 -13.437  0.00  0.00    -0.126 OA
ATOM     27  N   UNL     1      36.835 -25.721 -13.213  0.00  0.00    +0.058 N 
ENDBRANCH  22  27
ENDBRANCH  18  19
ENDBRANCH   4  17
TORSDOF 10
ENDMDL
MODEL 4
REMARK VINA RESULT:      -9.7      4.967      7.383
REMARK  Name = 11963512
REMARK  10 active torsions:
REMARK  status: ('A' for Active; 'I' for Inactive)
REMARK    1  A    between atoms: C_1  and  N_7
REMARK    2  A    between atoms: C_4  and  C_17
REMARK    3  A    between atoms: N_7  and  C_9
REMARK    4  A    between atoms: C_9  and  C_10
REMARK    5  A    between atoms: C_10  and  C_11
REMARK    6  A    between atoms: C_11  and  C_12
REMARK    7  A    between atoms: C_12  and  C_14
REMARK    8  A    between atoms: C_14  and  O_15
REMARK    9  A    between atoms: C_18  and  C_19
REMARK   10  A    between atoms: C_22  and  N_27
REMARK                            x       y       z     vdW  Elec       q    Type
REMARK                         _______ _______ _______ _____ _____    ______ ____
ROOT
ATOM      1  C   UNL     1      35.154 -19.355 -21.379  0.00  0.00    +0.048 C 
ATOM      2  C   UNL     1      36.416 -19.652 -20.854  0.00  0.00    +0.015 C 
ATOM      3  C   UNL     1      34.027 -20.008 -20.868  0.00  0.00    +0.015 C 
ATOM      4  C   UNL     1      35.423 -21.240 -19.329  0.00  0.00    +0.000 C 
ATOM      5  C   UNL     1      36.550 -20.592 -19.832  0.00  0.00    +0.001 C 
ATOM      6  C   UNL     1      34.161 -20.948 -19.846  0.00  0.00    +0.001 C 
ENDROOT
BRANCH   1   7
ATOM      7  N   UNL     1      35.018 -18.410 -22.406  0.00  0.00    -0.306 N 
ATOM      8  C   UNL     1      34.662 -18.844 -23.757  0.00  0.00    +0.112 C 
BRANCH   7   9
ATOM      9  C   UNL     1      35.208 -17.000 -22.162  0.00  0.00    +0.091 C 
BRANCH   9  10
ATOM     10  C   UNL     1      34.024 -16.187 -22.678  0.00  0.00    +0.022 C 
BRANCH  10  11
ATOM     11  C   UNL     1      34.453 -14.987 -23.530  0.00  0.00    +0.013 C 
BRANCH  11  12
ATOM     12  C   UNL     1      33.455 -14.678 -24.644  0.00  0.00    +0.109 C 
BRANCH  12  14
ATOM     13  O   UNL     1      32.590 -15.959 -26.502  0.00  0.00    -0.250 OA
ATOM     14  C   UNL     1      33.535 -15.668 -25.780  0.00  0.00    +0.314 C 
BRANCH  14  15
ATOM     15  O   UNL     1      34.775 -16.201 -25.921  0.00  0.00    -0.480 OA
ATOM     16  H   UNL     1      34.972 -17.035 -25.542  0.00  0.00    +0.295 HD
ENDBRANCH  14  15
ENDBRANCH  12  14
ENDBRANCH  11  12
ENDBRANCH  10  11
ENDBRANCH   9  10
ENDBRANCH   7   9
ENDBRANCH   1   7
BRANCH   4  17
ATOM     17  C   UNL     1      35.563 -22.220 -18.263  0.00  0.00    +0.000 C 
ATOM     18  C   UNL     1      36.298 -22.052 -17.139  0.00  0.00    +0.000 C 
BRANCH  18  19
ATOM     19  C   UNL     1      36.424 -23.037 -16.051  0.00  0.00    +0.000 C 
ATOM     20  C   UNL     1      35.291 -23.693 -15.595  0.00  0.00    +0.002 C 
ATOM     21  C   UNL     1      37.672 -23.290 -15.507  0.00  0.00    +0.002 C 
ATOM     22  C   UNL     1      36.661 -24.893 -14.008  0.00  0.00    +0.143 C 
ATOM     23  C   UNL     1      35.411 -24.628 -14.566  0.00  0.00    +0.024 C 
ATOM     24  C   UNL     1      37.792 -24.226 -14.478  0.00  0.00    +0.024 C 
BRANCH  22  27
ATOM     25  O   UNL     1      36.398 -25.531 -11.807  0.00  0.00    -0.126 OA
ATOM     26  O   UNL     1      37.275 -26.970 -13.215  0.00  0.00    -0.126 OA
ATOM     27  N   UNL     1      36.784 -25.844 -12.959  0.00  0.00    +0.058 N 
ENDBRANCH  22  27
ENDBRANCH  18  19
ENDBRANCH   4  17
TORSDOF 10
ENDMDL
MODEL 5
REMARK VINA RESULT:      -9.5      2.662     10.982
REMARK  Name = 11963512
REMARK  10 active torsions:
REMARK  status: ('A' for Active; 'I' for Inactive)
REMARK    1  A    between atoms: C_1  and  N_7
REMARK    2  A    between atoms: C_4  and  C_17
REMARK    3  A    between atoms: N_7  and  C_9
REMARK    4  A    between atoms: C_9  and  C_10
REMARK    5  A    between atoms: C_10  and  C_11
REMARK    6  A    between atoms: C_11  and  C_12
REMARK    7  A    between atoms: C_12  and  C_14
REMARK    8  A    between atoms: C_14  and  O_15
REMARK    9  A    between atoms: C_18  and  C_19
REMARK   10  A    between atoms: C_22  and  N_27
REMARK                            x       y       z     vdW  Elec       q    Type
REMARK                         _______ _______ _______ _____ _____    ______ ____
ROOT
ATOM      1  C   UNL     1      34.384 -16.254 -23.818  0.00  0.00    +0.048 C 
ATOM      2  C   UNL     1      33.767 -15.581 -24.879  0.00  0.00    +0.015 C 
ATOM      3  C   UNL     1      34.615 -15.575 -22.617  0.00  0.00    +0.015 C 
ATOM      4  C   UNL     1      33.622 -13.576 -23.540  0.00  0.00    +0.000 C 
ATOM      5  C   UNL     1      33.388 -14.246 -24.740  0.00  0.00    +0.001 C 
ATOM      6  C   UNL     1      34.235 -14.240 -22.478  0.00  0.00    +0.001 C 
ENDROOT
BRANCH   1   7
ATOM      7  N   UNL     1      34.766 -17.596 -23.957  0.00  0.00    -0.306 N 
ATOM      8  C   UNL     1      34.394 -18.341 -25.161  0.00  0.00    +0.112 C 
BRANCH   7   9
ATOM      9  C   UNL     1      35.537 -18.268 -22.940  0.00  0.00    +0.091 C 
BRANCH   9  10
ATOM     10  C   UNL     1      34.746 -19.415 -22.316  0.00  0.00    +0.022 C 
BRANCH  10  11
ATOM     11  C   UNL     1      34.071 -19.023 -20.996  0.00  0.00    +0.013 C 
BRANCH  11  12
ATOM     12  C   UNL     1      33.065 -20.070 -20.524  0.00  0.00    +0.109 C 
BRANCH  12  14
ATOM     13  O   UNL     1      34.870 -21.204 -19.387  0.00  0.00    -0.250 OA
ATOM     14  C   UNL     1      33.726 -21.230 -19.822  0.00  0.00    +0.314 C 
BRANCH  14  15
ATOM     15  O   UNL     1      32.911 -22.310 -19.718  0.00  0.00    -0.480 OA
ATOM     16  H   UNL     1      33.057 -23.061 -20.257  0.00  0.00    +0.295 HD
ENDBRANCH  14  15
ENDBRANCH  12  14
ENDBRANCH  11  12
ENDBRANCH  10  11
ENDBRANCH   9  10
ENDBRANCH   7   9
ENDBRANCH   1   7
BRANCH   4  17
ATOM     17  C   UNL     1      33.226 -12.184 -23.396  0.00  0.00    +0.000 C 
ATOM     18  C   UNL     1      33.849 -11.130 -23.974  0.00  0.00    +0.000 C 
BRANCH  18  19
ATOM     19  C   UNL     1      33.435  -9.722 -23.843  0.00  0.00    +0.000 C 
ATOM     20  C   UNL     1      32.104  -9.426 -23.599  0.00  0.00    +0.002 C 
ATOM     21  C   UNL     1      34.387  -8.723 -23.964  0.00  0.00    +0.002 C 
ATOM     22  C   UNL     1      32.660  -7.074 -23.592  0.00  0.00    +0.143 C 
ATOM     23  C   UNL     1      31.713  -8.092 -23.473  0.00  0.00    +0.024 C 
ATOM     24  C   UNL     1      33.996  -7.389 -23.837  0.00  0.00    +0.024 C 
BRANCH  22  27
ATOM     25  O   UNL     1      32.161  -5.014 -24.500  0.00  0.00    -0.126 OA
ATOM     26  O   UNL     1      32.024  -5.258 -22.322  0.00  0.00    -0.126 OA
ATOM     27  N   UNL     1      32.263  -5.716 -23.465  0.00  0.00    +0.058 N 
ENDBRANCH  22  27
ENDBRANCH  18  19
ENDBRANCH   4  17
TORSDOF 10
ENDMDL
MODEL 6
REMARK VINA RESULT:      -9.4      5.279     12.189
REMARK  Name = 11963512
REMARK  10 active torsions:
REMARK  status: ('A' for Active; 'I' for Inactive)
REMARK    1  A    between atoms: C_1  and  N_7
REMARK    2  A    between atoms: C_4  and  C_17
REMARK    3  A    between atoms: N_7  and  C_9
REMARK    4  A    between atoms: C_9  and  C_10
REMARK    5  A    between atoms: C_10  and  C_11
REMARK    6  A    between atoms: C_11  and  C_12
REMARK    7  A    between atoms: C_12  and  C_14
REMARK    8  A    between atoms: C_14  and  O_15
REMARK    9  A    between atoms: C_18  and  C_19
REMARK   10  A    between atoms: C_22  and  N_27
REMARK                            x       y       z     vdW  Elec       q    Type
REMARK                         _______ _______ _______ _____ _____    ______ ____
ROOT
ATOM      1  C   UNL     1      35.248 -23.173 -16.701  0.00  0.00    +0.048 C 
ATOM      2  C   UNL     1      36.279 -22.394 -17.239  0.00  0.00    +0.015 C 
ATOM      3  C   UNL     1      33.984 -23.145 -17.299  0.00  0.00    +0.015 C 
ATOM      4  C   UNL     1      34.784 -21.573 -18.949  0.00  0.00    +0.000 C 
ATOM      5  C   UNL     1      36.047 -21.596 -18.359  0.00  0.00    +0.001 C 
ATOM      6  C   UNL     1      33.752 -22.347 -18.419  0.00  0.00    +0.001 C 
ENDROOT
BRANCH   1   7
ATOM      7  N   UNL     1      35.481 -23.975 -15.575  0.00  0.00    -0.306 N 
ATOM      8  C   UNL     1      34.366 -24.360 -14.708  0.00  0.00    +0.112 C 
BRANCH   7   9
ATOM      9  C   UNL     1      36.804 -24.450 -15.249  0.00  0.00    +0.091 C 
BRANCH   9  10
ATOM     10  C   UNL     1      36.741 -25.702 -14.377  0.00  0.00    +0.022 C 
BRANCH  10  11
ATOM     11  C   UNL     1      37.863 -25.755 -13.332  0.00  0.00    +0.013 C 
BRANCH  11  12
ATOM     12  C   UNL     1      37.427 -25.192 -11.981  0.00  0.00    +0.109 C 
BRANCH  12  14
ATOM     13  O   UNL     1      38.765 -23.205 -11.662  0.00  0.00    -0.250 OA
ATOM     14  C   UNL     1      37.668 -23.707 -11.872  0.00  0.00    +0.314 C 
BRANCH  14  15
ATOM     15  O   UNL     1      36.534 -22.981 -12.038  0.00  0.00    -0.480 OA
ATOM     16  H   UNL     1      35.834 -23.318 -12.561  0.00  0.00    +0.295 HD
ENDBRANCH  14  15
ENDBRANCH  12  14
ENDBRANCH  11  12
ENDBRANCH  10  11
ENDBRANCH   9  10
ENDBRANCH   7   9
ENDBRANCH   1   7
BRANCH   4  17
ATOM     17  C   UNL     1      34.542 -20.741 -20.117  0.00  0.00    +0.000 C 
ATOM     18  C   UNL     1      35.256 -19.642 -20.455  0.00  0.00    +0.000 C 
BRANCH  18  19
ATOM     19  C   UNL     1      35.023 -18.811 -21.649  0.00  0.00    +0.000 C 
ATOM     20  C   UNL     1      34.937 -17.435 -21.512  0.00  0.00    +0.002 C 
ATOM     21  C   UNL     1      34.899 -19.421 -22.886  0.00  0.00    +0.002 C 
ATOM     22  C   UNL     1      34.591 -17.248 -23.895  0.00  0.00    +0.143 C 
ATOM     23  C   UNL     1      34.719 -16.647 -22.643  0.00  0.00    +0.024 C 
ATOM     24  C   UNL     1      34.682 -18.634 -24.018  0.00  0.00    +0.024 C 
BRANCH  22  27
ATOM     25  O   UNL     1      34.985 -16.722 -26.106  0.00  0.00    -0.126 OA
ATOM     26  O   UNL     1      33.562 -15.490 -24.976  0.00  0.00    -0.126 OA
ATOM     27  N   UNL     1      34.369 -16.448 -25.048  0.00  0.00    +0.058 N 
ENDBRANCH  22  27
ENDBRANCH  18  19
ENDBRANCH   4  17
TORSDOF 10
ENDMDL
MODEL 7
REMARK VINA RESULT:      -9.4      1.198      2.048
REMARK  Name = 11963512
REMARK  10 active torsions:
REMARK  status: ('A' for Active; 'I' for Inactive)
REMARK    1  A    between atoms: C_1  and  N_7
REMARK    2  A    between atoms: C_4  and  C_17
REMARK    3  A    between atoms: N_7  and  C_9
REMARK    4  A    between atoms: C_9  and  C_10
REMARK    5  A    between atoms: C_10  and  C_11
REMARK    6  A    between atoms: C_11  and  C_12
REMARK    7  A    between atoms: C_12  and  C_14
REMARK    8  A    between atoms: C_14  and  O_15
REMARK    9  A    between atoms: C_18  and  C_19
REMARK   10  A    between atoms: C_22  and  N_27
REMARK                            x       y       z     vdW  Elec       q    Type
REMARK                         _______ _______ _______ _____ _____    ______ ____
ROOT
ATOM      1  C   UNL     1      33.902 -13.462 -23.888  0.00  0.00    +0.048 C 
ATOM      2  C   UNL     1      34.005 -14.733 -24.464  0.00  0.00    +0.015 C 
ATOM      3  C   UNL     1      33.831 -13.343 -22.496  0.00  0.00    +0.015 C 
ATOM      4  C   UNL     1      33.961 -15.745 -22.271  0.00  0.00    +0.000 C 
ATOM      5  C   UNL     1      34.034 -15.871 -23.658  0.00  0.00    +0.001 C 
ATOM      6  C   UNL     1      33.860 -14.481 -21.690  0.00  0.00    +0.001 C 
ENDROOT
BRANCH   1   7
ATOM      7  N   UNL     1      33.873 -12.318 -24.699  0.00  0.00    -0.306 N 
ATOM      8  C   UNL     1      33.441 -12.421 -26.093  0.00  0.00    +0.112 C 
BRANCH   7   9
ATOM      9  C   UNL     1      34.248 -11.023 -24.185  0.00  0.00    +0.091 C 
BRANCH   9  10
ATOM     10  C   UNL     1      33.049 -10.078 -24.146  0.00  0.00    +0.022 C 
BRANCH  10  11
ATOM     11  C   UNL     1      32.908  -9.352 -22.803  0.00  0.00    +0.013 C 
BRANCH  11  12
ATOM     12  C   UNL     1      31.508  -9.493 -22.210  0.00  0.00    +0.109 C 
BRANCH  12  14
ATOM     13  O   UNL     1      31.735 -10.838 -20.215  0.00  0.00    -0.250 OA
ATOM     14  C   UNL     1      31.359 -10.741 -21.377  0.00  0.00    +0.314 C 
BRANCH  14  15
ATOM     15  O   UNL     1      30.753 -11.750 -22.052  0.00  0.00    -0.480 OA
ATOM     16  H   UNL     1      30.239 -12.381 -21.589  0.00  0.00    +0.295 HD
ENDBRANCH  14  15
ENDBRANCH  12  14
ENDBRANCH  11  12
ENDBRANCH  10  11
ENDBRANCH   9  10
ENDBRANCH   7   9
ENDBRANCH   1   7
BRANCH   4  17
ATOM     17  C   UNL     1      33.992 -16.931 -21.430  0.00  0.00    +0.000 C 
ATOM     18  C   UNL     1      34.313 -18.178 -21.850  0.00  0.00    +0.000 C 
BRANCH  18  19
ATOM     19  C   UNL     1      34.363 -19.376 -20.994  0.00  0.00    +0.000 C 
ATOM     20  C   UNL     1      35.593 -19.913 -20.650  0.00  0.00    +0.002 C 
ATOM     21  C   UNL     1      33.179 -19.940 -20.547  0.00  0.00    +0.002 C 
ATOM     22  C   UNL     1      34.457 -21.626 -19.380  0.00  0.00    +0.143 C 
ATOM     23  C   UNL     1      35.640 -21.047 -19.838  0.00  0.00    +0.024 C 
ATOM     24  C   UNL     1      33.227 -21.073 -19.734  0.00  0.00    +0.024 C 
BRANCH  22  27
ATOM     25  O   UNL     1      33.752 -23.750 -18.821  0.00  0.00    -0.126 OA
ATOM     26  O   UNL     1      35.296 -22.800 -17.582  0.00  0.00    -0.126 OA
ATOM     27  N   UNL     1      34.504 -22.781 -18.554  0.00  0.00    +0.058 N 
ENDBRANCH  22  27
ENDBRANCH  18  19
ENDBRANCH   4  17
TORSDOF 10
ENDMDL
MODEL 8
REMARK VINA RESULT:      -9.2      5.094     11.386
REMARK  Name = 11963512
REMARK  10 active torsions:
REMARK  status: ('A' for Active; 'I' for Inactive)
REMARK    1  A    between atoms: C_1  and  N_7
REMARK    2  A    between atoms: C_4  and  C_17
REMARK    3  A    between atoms: N_7  and  C_9
REMARK    4  A    between atoms: C_9  and  C_10
REMARK    5  A    between atoms: C_10  and  C_11
REMARK    6  A    between atoms: C_11  and  C_12
REMARK    7  A    between atoms: C_12  and  C_14
REMARK    8  A    between atoms: C_14  and  O_15
REMARK    9  A    between atoms: C_18  and  C_19
REMARK   10  A    between atoms: C_22  and  N_27
REMARK                            x       y       z     vdW  Elec       q    Type
REMARK                         _______ _______ _______ _____ _____    ______ ____
ROOT
ATOM      1  C   UNL     1      35.032 -23.209 -16.537  0.00  0.00    +0.048 C 
ATOM      2  C   UNL     1      36.170 -22.465 -16.866  0.00  0.00    +0.015 C 
ATOM      3  C   UNL     1      33.924 -23.182 -17.391  0.00  0.00    +0.015 C 
ATOM      4  C   UNL     1      35.091 -21.678 -18.878  0.00  0.00    +0.000 C 
ATOM      5  C   UNL     1      36.199 -21.701 -18.032  0.00  0.00    +0.001 C 
ATOM      6  C   UNL     1      33.953 -22.418 -18.557  0.00  0.00    +0.001 C 
ENDROOT
BRANCH   1   7
ATOM      7  N   UNL     1      35.002 -23.977 -15.364  0.00  0.00    -0.306 N 
ATOM      8  C   UNL     1      35.851 -25.164 -15.245  0.00  0.00    +0.112 C 
BRANCH   7   9
ATOM      9  C   UNL     1      34.158 -23.618 -14.251  0.00  0.00    +0.091 C 
BRANCH   9  10
ATOM     10  C   UNL     1      33.039 -24.638 -14.056  0.00  0.00    +0.022 C 
BRANCH  10  11
ATOM     11  C   UNL     1      31.668 -23.983 -13.844  0.00  0.00    +0.013 C 
BRANCH  11  12
ATOM     12  C   UNL     1      31.401 -22.858 -14.842  0.00  0.00    +0.109 C 
BRANCH  12  14
ATOM     13  O   UNL     1      29.541 -24.122 -15.727  0.00  0.00    -0.250 OA
ATOM     14  C   UNL     1      30.379 -23.242 -15.882  0.00  0.00    +0.314 C 
BRANCH  14  15
ATOM     15  O   UNL     1      30.482 -22.501 -17.013  0.00  0.00    -0.480 OA
ATOM     16  H   UNL     1      30.415 -21.568 -16.970  0.00  0.00    +0.295 HD
ENDBRANCH  14  15
ENDBRANCH  12  14
ENDBRANCH  11  12
ENDBRANCH  10  11
ENDBRANCH   9  10
ENDBRANCH   7   9
ENDBRANCH   1   7
BRANCH   4  17
ATOM     17  C   UNL     1      35.121 -20.882 -20.095  0.00  0.00    +0.000 C 
ATOM     18  C   UNL     1      34.414 -19.747 -20.304  0.00  0.00    +0.000 C 
BRANCH  18  19
ATOM     19  C   UNL     1      34.460 -18.930 -21.529  0.00  0.00    +0.000 C 
ATOM     20  C   UNL     1      34.609 -19.556 -22.757  0.00  0.00    +0.002 C 
ATOM     21  C   UNL     1      34.349 -17.553 -21.431  0.00  0.00    +0.002 C 
ATOM     22  C   UNL     1      34.541 -17.395 -23.834  0.00  0.00    +0.143 C 
ATOM     23  C   UNL     1      34.651 -18.782 -23.918  0.00  0.00    +0.024 C 
ATOM     24  C   UNL     1      34.389 -16.780 -22.592  0.00  0.00    +0.024 C 
BRANCH  22  27
ATOM     25  O   UNL     1      35.226 -17.031 -26.006  0.00  0.00    -0.126 OA
ATOM     26  O   UNL     1      33.976 -15.509 -25.035  0.00  0.00    -0.126 OA
ATOM     27  N   UNL     1      34.583 -16.606 -25.015  0.00  0.00    +0.058 N 
ENDBRANCH  22  27
ENDBRANCH  18  19
ENDBRANCH   4  17
TORSDOF 10
ENDMDL
MODEL 9
REMARK VINA RESULT:      -9.2      2.541     11.411
REMARK  Name = 11963512
REMARK  10 active torsions:
REMARK  status: ('A' for Active; 'I' for Inactive)
REMARK    1  A    between atoms: C_1  and  N_7
REMARK    2  A    between atoms: C_4  and  C_17
REMARK    3  A    between atoms: N_7  and  C_9
REMARK    4  A    between atoms: C_9  and  C_10
REMARK    5  A    between atoms: C_10  and  C_11
REMARK    6  A    between atoms: C_11  and  C_12
REMARK    7  A    between atoms: C_12  and  C_14
REMARK    8  A    between atoms: C_14  and  O_15
REMARK    9  A    between atoms: C_18  and  C_19
REMARK   10  A    between atoms: C_22  and  N_27
REMARK                            x       y       z     vdW  Elec       q    Type
REMARK                         _______ _______ _______ _____ _____    ______ ____
ROOT
ATOM      1  C   UNL     1      33.805 -15.608 -22.496  0.00  0.00    +0.048 C 
ATOM      2  C   UNL     1      34.016 -14.787 -23.609  0.00  0.00    +0.015 C 
ATOM      3  C   UNL     1      33.043 -15.129 -21.425  0.00  0.00    +0.015 C 
ATOM      4  C   UNL     1      32.715 -13.032 -22.578  0.00  0.00    +0.000 C 
ATOM      5  C   UNL     1      33.473 -13.503 -23.650  0.00  0.00    +0.001 C 
ATOM      6  C   UNL     1      32.500 -13.845 -21.466  0.00  0.00    +0.001 C 
ENDROOT
BRANCH   1   7
ATOM      7  N   UNL     1      34.351 -16.899 -22.454  0.00  0.00    -0.306 N 
ATOM      8  C   UNL     1      34.952 -17.478 -23.656  0.00  0.00    +0.112 C 
BRANCH   7   9
ATOM      9  C   UNL     1      34.350 -17.677 -21.239  0.00  0.00    +0.091 C 
BRANCH   9  10
ATOM     10  C   UNL     1      33.948 -19.125 -21.512  0.00  0.00    +0.022 C 
BRANCH  10  11
ATOM     11  C   UNL     1      34.725 -20.130 -20.653  0.00  0.00    +0.013 C 
BRANCH  11  12
ATOM     12  C   UNL     1      33.803 -21.009 -19.810  0.00  0.00    +0.109 C 
BRANCH  12  14
ATOM     13  O   UNL     1      35.576 -22.161 -18.641  0.00  0.00    -0.250 OA
ATOM     14  C   UNL     1      34.513 -22.214 -19.247  0.00  0.00    +0.314 C 
BRANCH  14  15
ATOM     15  O   UNL     1      33.842 -23.370 -19.479  0.00  0.00    -0.480 OA
ATOM     16  H   UNL     1      33.964 -23.829 -20.286  0.00  0.00    +0.295 HD
ENDBRANCH  14  15
ENDBRANCH  12  14
ENDBRANCH  11  12
ENDBRANCH  10  11
ENDBRANCH   9  10
ENDBRANCH   7   9
ENDBRANCH   1   7
BRANCH   4  17
ATOM     17  C   UNL     1      32.148 -11.693 -22.622  0.00  0.00    +0.000 C 
ATOM     18  C   UNL     1      32.860 -10.542 -22.587  0.00  0.00    +0.000 C 
BRANCH  18  19
ATOM     19  C   UNL     1      32.287  -9.187 -22.650  0.00  0.00    +0.000 C 
ATOM     20  C   UNL     1      32.544  -8.293 -21.623  0.00  0.00    +0.002 C 
ATOM     21  C   UNL     1      31.505  -8.831 -23.737  0.00  0.00    +0.002 C 
ATOM     22  C   UNL     1      31.214  -6.635 -22.772  0.00  0.00    +0.143 C 
ATOM     23  C   UNL     1      32.003  -7.008 -21.684  0.00  0.00    +0.024 C 
ATOM     24  C   UNL     1      30.965  -7.545 -23.798  0.00  0.00    +0.024 C 
BRANCH  22  27
ATOM     25  O   UNL     1      30.086  -4.862 -21.821  0.00  0.00    -0.126 OA
ATOM     26  O   UNL     1      30.767  -4.674 -23.901  0.00  0.00    -0.126 OA
ATOM     27  N   UNL     1      30.662  -5.328 -22.835  0.00  0.00    +0.058 N 
ENDBRANCH  22  27
ENDBRANCH  18  19
ENDBRANCH   4  17
TORSDOF 10
ENDMDL
