MODEL 1
REMARK VINA RESULT:      -7.8      0.000      0.000
REMARK  Name = 8573
REMARK  7 active torsions:
REMARK  status: ('A' for Active; 'I' for Inactive)
REMARK    1  A    between atoms: C_1  and  C_8
REMARK    2  A    between atoms: C_2  and  C_17
REMARK    3  A    between atoms: C_8  and  O_9
REMARK    4  A    between atoms: O_9  and  C_10
REMARK    5  A    between atoms: C_10  and  C_12
REMARK    6  A    between atoms: C_10  and  C_14
REMARK    7  A    between atoms: C_17  and  O_18
REMARK                            x       y       z     vdW  Elec       q    Type
REMARK                         _______ _______ _______ _____ _____    ______ ____
ROOT
ATOM      1  C   UNL     1      34.095 -16.010 -21.697  0.00  0.00    +0.082 C 
ATOM      2  C   UNL     1      33.849 -15.505 -22.959  0.00  0.00    +0.082 C 
ATOM      3  C   UNL     1      33.560 -15.434 -20.561  0.00  0.00    +0.007 C 
ATOM      4  C   UNL     1      33.038 -14.378 -23.091  0.00  0.00    +0.007 C 
ATOM      5  C   UNL     1      32.748 -14.306 -20.693  0.00  0.00    +0.000 C 
ATOM      6  C   UNL     1      32.487 -13.779 -21.958  0.00  0.00    +0.000 C 
ENDROOT
BRANCH   1   8
ATOM      7  O   UNL     1      36.053 -17.326 -22.044  0.00  0.00    -0.245 OA
ATOM      8  C   UNL     1      34.954 -17.209 -21.524  0.00  0.00    +0.342 C 
BRANCH   8   9
ATOM      9  O   UNL     1      34.340 -18.116 -20.723  0.00  0.00    -0.440 OA
BRANCH   9  10
ATOM     10  C   UNL     1      34.348 -19.467 -21.199  0.00  0.00    +0.190 C 
ATOM     11  C   UNL     1      34.544 -19.392 -22.714  0.00  0.00    +0.058 C 
BRANCH  10  12
ATOM     12  C   UNL     1      32.999 -20.102 -20.811  0.00  0.00    +0.053 C 
ATOM     13  C   UNL     1      33.027 -20.997 -19.579  0.00  0.00    +0.005 C 
ENDBRANCH  10  12
BRANCH  10  14
ATOM     14  C   UNL     1      35.479 -20.180 -20.575  0.00  0.00    -0.040 C 
ATOM     15  C   UNL     1      36.402 -20.758 -20.067  0.00  0.00    -0.011 C 
ENDBRANCH  10  14
ENDBRANCH   9  10
ENDBRANCH   8   9
ENDBRANCH   1   8
BRANCH   2  17
ATOM     16  O   UNL     1      33.779 -16.772 -24.987  0.00  0.00    -0.245 OA
ATOM     17  C   UNL     1      34.410 -16.108 -24.161  0.00  0.00    +0.338 C 
BRANCH  17  18
ATOM     18  O   UNL     1      35.740 -15.859 -24.293  0.00  0.00    -0.477 OA
ATOM     19  H   UNL     1      36.097 -15.653 -25.135  0.00  0.00    +0.295 HD
ENDBRANCH  17  18
ENDBRANCH   2  17
TORSDOF 7
ENDMDL
MODEL 2
REMARK VINA RESULT:      -7.7      0.722      1.744
REMARK  Name = 8573
REMARK  7 active torsions:
REMARK  status: ('A' for Active; 'I' for Inactive)
REMARK    1  A    between atoms: C_1  and  C_8
REMARK    2  A    between atoms: C_2  and  C_17
REMARK    3  A    between atoms: C_8  and  O_9
REMARK    4  A    between atoms: O_9  and  C_10
REMARK    5  A    between atoms: C_10  and  C_12
REMARK    6  A    between atoms: C_10  and  C_14
REMARK    7  A    between atoms: C_17  and  O_18
REMARK                            x       y       z     vdW  Elec       q    Type
REMARK                         _______ _______ _______ _____ _____    ______ ____
ROOT
ATOM      1  C   UNL     1      33.706 -15.577 -21.513  0.00  0.00    +0.082 C 
ATOM      2  C   UNL     1      33.654 -15.108 -22.811  0.00  0.00    +0.082 C 
ATOM      3  C   UNL     1      33.074 -14.922 -20.473  0.00  0.00    +0.007 C 
ATOM      4  C   UNL     1      32.943 -13.939 -23.081  0.00  0.00    +0.007 C 
ATOM      5  C   UNL     1      32.363 -13.752 -20.743  0.00  0.00    +0.000 C 
ATOM      6  C   UNL     1      32.297 -13.262 -22.047  0.00  0.00    +0.000 C 
ENDROOT
BRANCH   1   8
ATOM      7  O   UNL     1      35.659 -16.842 -20.993  0.00  0.00    -0.245 OA
ATOM      8  C   UNL     1      34.454 -16.819 -21.193  0.00  0.00    +0.342 C 
BRANCH   8   9
ATOM      9  O   UNL     1      33.611 -17.881 -21.161  0.00  0.00    -0.440 OA
BRANCH   9  10
ATOM     10  C   UNL     1      34.215 -19.158 -21.402  0.00  0.00    +0.190 C 
ATOM     11  C   UNL     1      33.183 -20.210 -20.991  0.00  0.00    +0.058 C 
BRANCH  10  12
ATOM     12  C   UNL     1      35.499 -19.230 -20.553  0.00  0.00    +0.053 C 
ATOM     13  C   UNL     1      35.979 -20.635 -20.212  0.00  0.00    +0.005 C 
ENDBRANCH  10  12
BRANCH  10  14
ATOM     14  C   UNL     1      34.513 -19.274 -22.842  0.00  0.00    -0.040 C 
ATOM     15  C   UNL     1      34.753 -19.371 -24.015  0.00  0.00    -0.011 C 
ENDBRANCH  10  14
ENDBRANCH   9  10
ENDBRANCH   8   9
ENDBRANCH   1   8
BRANCH   2  17
ATOM     16  O   UNL     1      33.761 -16.221 -24.926  0.00  0.00    -0.245 OA
ATOM     17  C   UNL     1      34.318 -15.794 -23.912  0.00  0.00    +0.338 C 
BRANCH  17  18
ATOM     18  O   UNL     1      35.657 -15.919 -23.711  0.00  0.00    -0.477 OA
ATOM     19  H   UNL     1      36.106 -16.685 -24.013  0.00  0.00    +0.295 HD
ENDBRANCH  17  18
ENDBRANCH   2  17
TORSDOF 7
ENDMDL
MODEL 3
REMARK VINA RESULT:      -7.6      1.329      2.532
REMARK  Name = 8573
REMARK  7 active torsions:
REMARK  status: ('A' for Active; 'I' for Inactive)
REMARK    1  A    between atoms: C_1  and  C_8
REMARK    2  A    between atoms: C_2  and  C_17
REMARK    3  A    between atoms: C_8  and  O_9
REMARK    4  A    between atoms: O_9  and  C_10
REMARK    5  A    between atoms: C_10  and  C_12
REMARK    6  A    between atoms: C_10  and  C_14
REMARK    7  A    between atoms: C_17  and  O_18
REMARK                            x       y       z     vdW  Elec       q    Type
REMARK                         _______ _______ _______ _____ _____    ______ ____
ROOT
ATOM      1  C   UNL     1      34.588 -16.378 -23.042  0.00  0.00    +0.082 C 
ATOM      2  C   UNL     1      33.996 -15.286 -22.439  0.00  0.00    +0.082 C 
ATOM      3  C   UNL     1      34.525 -16.584 -24.406  0.00  0.00    +0.007 C 
ATOM      4  C   UNL     1      33.311 -14.364 -23.231  0.00  0.00    +0.007 C 
ATOM      5  C   UNL     1      33.840 -15.662 -25.199  0.00  0.00    +0.000 C 
ATOM      6  C   UNL     1      33.234 -14.552 -24.610  0.00  0.00    +0.000 C 
ENDROOT
BRANCH   1   8
ATOM      7  O   UNL     1      36.511 -17.621 -22.377  0.00  0.00    -0.245 OA
ATOM      8  C   UNL     1      35.324 -17.377 -22.226  0.00  0.00    +0.342 C 
BRANCH   8   9
ATOM      9  O   UNL     1      34.491 -17.952 -21.322  0.00  0.00    -0.440 OA
BRANCH   9  10
ATOM     10  C   UNL     1      34.381 -19.378 -21.402  0.00  0.00    +0.190 C 
ATOM     11  C   UNL     1      34.452 -19.737 -22.887  0.00  0.00    +0.058 C 
BRANCH  10  12
ATOM     12  C   UNL     1      33.035 -19.775 -20.766  0.00  0.00    +0.053 C 
ATOM     13  C   UNL     1      33.092 -20.938 -19.784  0.00  0.00    +0.005 C 
ENDBRANCH  10  12
BRANCH  10  14
ATOM     14  C   UNL     1      35.518 -19.980 -20.679  0.00  0.00    -0.040 C 
ATOM     15  C   UNL     1      36.445 -20.470 -20.093  0.00  0.00    -0.011 C 
ENDBRANCH  10  14
ENDBRANCH   9  10
ENDBRANCH   8   9
ENDBRANCH   1   8
BRANCH   2  17
ATOM     16  O   UNL     1      35.035 -14.620 -20.389  0.00  0.00    -0.245 OA
ATOM     17  C   UNL     1      34.059 -15.062 -21.000  0.00  0.00    +0.338 C 
BRANCH  17  18
ATOM     18  O   UNL     1      32.899 -15.396 -20.373  0.00  0.00    -0.477 OA
ATOM     19  H   UNL     1      32.101 -14.962 -20.603  0.00  0.00    +0.295 HD
ENDBRANCH  17  18
ENDBRANCH   2  17
TORSDOF 7
ENDMDL
MODEL 4
REMARK VINA RESULT:      -7.6      2.919      6.854
REMARK  Name = 8573
REMARK  7 active torsions:
REMARK  status: ('A' for Active; 'I' for Inactive)
REMARK    1  A    between atoms: C_1  and  C_8
REMARK    2  A    between atoms: C_2  and  C_17
REMARK    3  A    between atoms: C_8  and  O_9
REMARK    4  A    between atoms: O_9  and  C_10
REMARK    5  A    between atoms: C_10  and  C_12
REMARK    6  A    between atoms: C_10  and  C_14
REMARK    7  A    between atoms: C_17  and  O_18
REMARK                            x       y       z     vdW  Elec       q    Type
REMARK                         _______ _______ _______ _____ _____    ______ ____
ROOT
ATOM      1  C   UNL     1      35.875 -21.599 -18.607  0.00  0.00    +0.082 C 
ATOM      2  C   UNL     1      34.903 -22.386 -18.024  0.00  0.00    +0.082 C 
ATOM      3  C   UNL     1      37.017 -21.222 -17.927  0.00  0.00    +0.007 C 
ATOM      4  C   UNL     1      35.076 -22.812 -16.707  0.00  0.00    +0.007 C 
ATOM      5  C   UNL     1      37.192 -21.648 -16.610  0.00  0.00    +0.000 C 
ATOM      6  C   UNL     1      36.221 -22.444 -16.001  0.00  0.00    +0.000 C 
ENDROOT
BRANCH   1   8
ATOM      7  O   UNL     1      35.679 -21.884 -20.967  0.00  0.00    -0.245 OA
ATOM      8  C   UNL     1      35.719 -21.129 -20.007  0.00  0.00    +0.342 C 
BRANCH   8   9
ATOM      9  O   UNL     1      35.632 -19.775 -20.043  0.00  0.00    -0.440 OA
BRANCH   9  10
ATOM     10  C   UNL     1      34.784 -19.236 -21.064  0.00  0.00    +0.190 C 
ATOM     11  C   UNL     1      33.373 -19.749 -20.772  0.00  0.00    +0.058 C 
BRANCH  10  12
ATOM     12  C   UNL     1      35.321 -19.732 -22.421  0.00  0.00    +0.053 C 
ATOM     13  C   UNL     1      34.771 -19.012 -23.645  0.00  0.00    +0.005 C 
ENDBRANCH  10  12
BRANCH  10  14
ATOM     14  C   UNL     1      34.818 -17.764 -20.976  0.00  0.00    -0.040 C 
ATOM     15  C   UNL     1      34.845 -16.565 -20.901  0.00  0.00    -0.011 C 
ENDBRANCH  10  14
ENDBRANCH   9  10
ENDBRANCH   8   9
ENDBRANCH   1   8
BRANCH   2  17
ATOM     16  O   UNL     1      32.593 -22.244 -18.632  0.00  0.00    -0.245 OA
ATOM     17  C   UNL     1      33.696 -22.787 -18.735  0.00  0.00    +0.338 C 
BRANCH  17  18
ATOM     18  O   UNL     1      33.907 -23.852 -19.554  0.00  0.00    -0.477 OA
ATOM     19  H   UNL     1      34.067 -23.716 -20.467  0.00  0.00    +0.295 HD
ENDBRANCH  17  18
ENDBRANCH   2  17
TORSDOF 7
ENDMDL
MODEL 5
REMARK VINA RESULT:      -7.5      1.460      2.479
REMARK  Name = 8573
REMARK  7 active torsions:
REMARK  status: ('A' for Active; 'I' for Inactive)
REMARK    1  A    between atoms: C_1  and  C_8
REMARK    2  A    between atoms: C_2  and  C_17
REMARK    3  A    between atoms: C_8  and  O_9
REMARK    4  A    between atoms: O_9  and  C_10
REMARK    5  A    between atoms: C_10  and  C_12
REMARK    6  A    between atoms: C_10  and  C_14
REMARK    7  A    between atoms: C_17  and  O_18
REMARK                            x       y       z     vdW  Elec       q    Type
REMARK                         _______ _______ _______ _____ _____    ______ ____
ROOT
ATOM      1  C   UNL     1      33.627 -15.081 -22.189  0.00  0.00    +0.082 C 
ATOM      2  C   UNL     1      33.080 -14.104 -22.998  0.00  0.00    +0.082 C 
ATOM      3  C   UNL     1      33.418 -15.101 -20.823  0.00  0.00    +0.007 C 
ATOM      4  C   UNL     1      32.296 -13.107 -22.419  0.00  0.00    +0.007 C 
ATOM      5  C   UNL     1      32.633 -14.103 -20.244  0.00  0.00    +0.000 C 
ATOM      6  C   UNL     1      32.072 -13.107 -21.043  0.00  0.00    +0.000 C 
ENDROOT
BRANCH   1   8
ATOM      7  O   UNL     1      35.575 -15.958 -23.247  0.00  0.00    -0.245 OA
ATOM      8  C   UNL     1      34.467 -16.156 -22.774  0.00  0.00    +0.342 C 
BRANCH   8   9
ATOM      9  O   UNL     1      33.824 -17.349 -22.700  0.00  0.00    -0.440 OA
BRANCH   9  10
ATOM     10  C   UNL     1      34.589 -18.432 -22.157  0.00  0.00    +0.190 C 
ATOM     11  C   UNL     1      35.664 -17.801 -21.269  0.00  0.00    +0.058 C 
BRANCH  10  12
ATOM     12  C   UNL     1      35.190 -19.213 -23.342  0.00  0.00    +0.053 C 
ATOM     13  C   UNL     1      34.461 -19.050 -24.669  0.00  0.00    +0.005 C 
ENDBRANCH  10  12
BRANCH  10  14
ATOM     14  C   UNL     1      33.695 -19.281 -21.348  0.00  0.00    -0.040 C 
ATOM     15  C   UNL     1      32.970 -19.974 -20.687  0.00  0.00    -0.011 C 
ENDBRANCH  10  14
ENDBRANCH   9  10
ENDBRANCH   8   9
ENDBRANCH   1   8
BRANCH   2  17
ATOM     16  O   UNL     1      33.038 -14.999 -25.216  0.00  0.00    -0.245 OA
ATOM     17  C   UNL     1      33.296 -14.077 -24.439  0.00  0.00    +0.338 C 
BRANCH  17  18
ATOM     18  O   UNL     1      33.825 -12.897 -24.861  0.00  0.00    -0.477 OA
ATOM     19  H   UNL     1      34.699 -12.870 -25.198  0.00  0.00    +0.295 HD
ENDBRANCH  17  18
ENDBRANCH   2  17
TORSDOF 7
ENDMDL
MODEL 6
REMARK VINA RESULT:      -7.5      8.752     10.601
REMARK  Name = 8573
REMARK  7 active torsions:
REMARK  status: ('A' for Active; 'I' for Inactive)
REMARK    1  A    between atoms: C_1  and  C_8
REMARK    2  A    between atoms: C_2  and  C_17
REMARK    3  A    between atoms: C_8  and  O_9
REMARK    4  A    between atoms: O_9  and  C_10
REMARK    5  A    between atoms: C_10  and  C_12
REMARK    6  A    between atoms: C_10  and  C_14
REMARK    7  A    between atoms: C_17  and  O_18
REMARK                            x       y       z     vdW  Elec       q    Type
REMARK                         _______ _______ _______ _____ _____    ______ ____
ROOT
ATOM      1  C   UNL     1      33.593 -23.716 -15.228  0.00  0.00    +0.082 C 
ATOM      2  C   UNL     1      32.279 -23.577 -14.828  0.00  0.00    +0.082 C 
ATOM      3  C   UNL     1      34.001 -23.418 -16.514  0.00  0.00    +0.007 C 
ATOM      4  C   UNL     1      31.334 -23.124 -15.749  0.00  0.00    +0.007 C 
ATOM      5  C   UNL     1      33.057 -22.965 -17.436  0.00  0.00    +0.000 C 
ATOM      6  C   UNL     1      31.724 -22.818 -17.052  0.00  0.00    +0.000 C 
ENDROOT
BRANCH   1   8
ATOM      7  O   UNL     1      34.915 -23.598 -13.248  0.00  0.00    -0.245 OA
ATOM      8  C   UNL     1      34.622 -24.196 -14.272  0.00  0.00    +0.342 C 
BRANCH   8   9
ATOM      9  O   UNL     1      35.161 -25.363 -14.706  0.00  0.00    -0.440 OA
BRANCH   9  10
ATOM     10  C   UNL     1      36.581 -25.483 -14.557  0.00  0.00    +0.190 C 
ATOM     11  C   UNL     1      36.996 -26.729 -15.340  0.00  0.00    +0.058 C 
BRANCH  10  12
ATOM     12  C   UNL     1      36.880 -25.608 -13.051  0.00  0.00    +0.053 C 
ATOM     13  C   UNL     1      38.344 -25.456 -12.660  0.00  0.00    +0.005 C 
ENDBRANCH  10  12
BRANCH  10  14
ATOM     14  C   UNL     1      37.218 -24.284 -15.136  0.00  0.00    -0.040 C 
ATOM     15  C   UNL     1      37.738 -23.310 -15.608  0.00  0.00    -0.011 C 
ENDBRANCH  10  14
ENDBRANCH   9  10
ENDBRANCH   8   9
ENDBRANCH   1   8
BRANCH   2  17
ATOM     16  O   UNL     1      31.339 -24.958 -13.114  0.00  0.00    -0.245 OA
ATOM     17  C   UNL     1      31.842 -23.890 -13.473  0.00  0.00    +0.338 C 
BRANCH  17  18
ATOM     18  O   UNL     1      32.049 -22.859 -12.611  0.00  0.00    -0.477 OA
ATOM     19  H   UNL     1      31.684 -22.015 -12.795  0.00  0.00    +0.295 HD
ENDBRANCH  17  18
ENDBRANCH   2  17
TORSDOF 7
ENDMDL
MODEL 7
REMARK VINA RESULT:      -7.5      1.690      3.220
REMARK  Name = 8573
REMARK  7 active torsions:
REMARK  status: ('A' for Active; 'I' for Inactive)
REMARK    1  A    between atoms: C_1  and  C_8
REMARK    2  A    between atoms: C_2  and  C_17
REMARK    3  A    between atoms: C_8  and  O_9
REMARK    4  A    between atoms: O_9  and  C_10
REMARK    5  A    between atoms: C_10  and  C_12
REMARK    6  A    between atoms: C_10  and  C_14
REMARK    7  A    between atoms: C_17  and  O_18
REMARK                            x       y       z     vdW  Elec       q    Type
REMARK                         _______ _______ _______ _____ _____    ______ ____
ROOT
ATOM      1  C   UNL     1      34.102 -15.849 -22.195  0.00  0.00    +0.082 C 
ATOM      2  C   UNL     1      33.049 -14.985 -21.971  0.00  0.00    +0.082 C 
ATOM      3  C   UNL     1      34.783 -15.877 -23.397  0.00  0.00    +0.007 C 
ATOM      4  C   UNL     1      32.659 -14.114 -22.988  0.00  0.00    +0.007 C 
ATOM      5  C   UNL     1      34.393 -15.007 -24.415  0.00  0.00    +0.000 C 
ATOM      6  C   UNL     1      33.331 -14.125 -24.210  0.00  0.00    +0.000 C 
ENDROOT
BRANCH   1   8
ATOM      7  O   UNL     1      35.369 -16.497 -20.281  0.00  0.00    -0.245 OA
ATOM      8  C   UNL     1      34.541 -16.788 -21.131  0.00  0.00    +0.342 C 
BRANCH   8   9
ATOM      9  O   UNL     1      33.896 -17.975 -21.256  0.00  0.00    -0.440 OA
BRANCH   9  10
ATOM     10  C   UNL     1      34.727 -19.102 -21.563  0.00  0.00    +0.190 C 
ATOM     11  C   UNL     1      34.093 -20.310 -20.871  0.00  0.00    +0.058 C 
BRANCH  10  12
ATOM     12  C   UNL     1      36.140 -18.794 -21.031  0.00  0.00    +0.053 C 
ATOM     13  C   UNL     1      36.808 -19.924 -20.259  0.00  0.00    +0.005 C 
ENDBRANCH  10  12
BRANCH  10  14
ATOM     14  C   UNL     1      34.731 -19.299 -23.025  0.00  0.00    -0.040 C 
ATOM     15  C   UNL     1      34.738 -19.459 -24.216  0.00  0.00    -0.011 C 
ENDBRANCH  10  14
ENDBRANCH   9  10
ENDBRANCH   8   9
ENDBRANCH   1   8
BRANCH   2  17
ATOM     16  O   UNL     1      32.361 -14.026 -19.890  0.00  0.00    -0.245 OA
ATOM     17  C   UNL     1      32.327 -14.951 -20.705  0.00  0.00    +0.338 C 
BRANCH  17  18
ATOM     18  O   UNL     1      31.584 -16.071 -20.502  0.00  0.00    -0.477 OA
ATOM     19  H   UNL     1      31.901 -16.903 -20.797  0.00  0.00    +0.295 HD
ENDBRANCH  17  18
ENDBRANCH   2  17
TORSDOF 7
ENDMDL
MODEL 8
REMARK VINA RESULT:      -7.4      1.675      3.140
REMARK  Name = 8573
REMARK  7 active torsions:
REMARK  status: ('A' for Active; 'I' for Inactive)
REMARK    1  A    between atoms: C_1  and  C_8
REMARK    2  A    between atoms: C_2  and  C_17
REMARK    3  A    between atoms: C_8  and  O_9
REMARK    4  A    between atoms: O_9  and  C_10
REMARK    5  A    between atoms: C_10  and  C_12
REMARK    6  A    between atoms: C_10  and  C_14
REMARK    7  A    between atoms: C_17  and  O_18
REMARK                            x       y       z     vdW  Elec       q    Type
REMARK                         _______ _______ _______ _____ _____    ______ ____
ROOT
ATOM      1  C   UNL     1      34.001 -15.635 -22.064  0.00  0.00    +0.082 C 
ATOM      2  C   UNL     1      32.854 -15.021 -21.600  0.00  0.00    +0.082 C 
ATOM      3  C   UNL     1      34.654 -15.200 -23.201  0.00  0.00    +0.007 C 
ATOM      4  C   UNL     1      32.339 -13.931 -22.301  0.00  0.00    +0.007 C 
ATOM      5  C   UNL     1      34.139 -14.110 -23.903  0.00  0.00    +0.000 C 
ATOM      6  C   UNL     1      32.981 -13.476 -23.452  0.00  0.00    +0.000 C 
ENDROOT
BRANCH   1   8
ATOM      7  O   UNL     1      35.340 -16.686 -20.394  0.00  0.00    -0.245 OA
ATOM      8  C   UNL     1      34.575 -16.797 -21.340  0.00  0.00    +0.342 C 
BRANCH   8   9
ATOM      9  O   UNL     1      34.126 -17.957 -21.882  0.00  0.00    -0.440 OA
BRANCH   9  10
ATOM     10  C   UNL     1      35.133 -18.934 -22.173  0.00  0.00    +0.190 C 
ATOM     11  C   UNL     1      36.466 -18.184 -22.215  0.00  0.00    +0.058 C 
BRANCH  10  12
ATOM     12  C   UNL     1      34.776 -19.576 -23.528  0.00  0.00    +0.053 C 
ATOM     13  C   UNL     1      34.500 -18.598 -24.662  0.00  0.00    +0.005 C 
ENDBRANCH  10  12
BRANCH  10  14
ATOM     14  C   UNL     1      35.147 -19.935 -21.088  0.00  0.00    -0.040 C 
ATOM     15  C   UNL     1      35.159 -20.751 -20.208  0.00  0.00    -0.011 C 
ENDBRANCH  10  14
ENDBRANCH   9  10
ENDBRANCH   8   9
ENDBRANCH   1   8
BRANCH   2  17
ATOM     16  O   UNL     1      32.210 -14.924 -19.298  0.00  0.00    -0.245 OA
ATOM     17  C   UNL     1      32.160 -15.473 -20.401  0.00  0.00    +0.338 C 
BRANCH  17  18
ATOM     18  O   UNL     1      31.425 -16.596 -20.621  0.00  0.00    -0.477 OA
ATOM     19  H   UNL     1      31.571 -17.108 -21.392  0.00  0.00    +0.295 HD
ENDBRANCH  17  18
ENDBRANCH   2  17
TORSDOF 7
ENDMDL
MODEL 9
REMARK VINA RESULT:      -7.4      7.938     10.414
REMARK  Name = 8573
REMARK  7 active torsions:
REMARK  status: ('A' for Active; 'I' for Inactive)
REMARK    1  A    between atoms: C_1  and  C_8
REMARK    2  A    between atoms: C_2  and  C_17
REMARK    3  A    between atoms: C_8  and  O_9
REMARK    4  A    between atoms: O_9  and  C_10
REMARK    5  A    between atoms: C_10  and  C_12
REMARK    6  A    between atoms: C_10  and  C_14
REMARK    7  A    between atoms: C_17  and  O_18
REMARK                            x       y       z     vdW  Elec       q    Type
REMARK                         _______ _______ _______ _____ _____    ______ ____
ROOT
ATOM      1  C   UNL     1      36.396 -22.873 -15.396  0.00  0.00    +0.082 C 
ATOM      2  C   UNL     1      35.090 -23.112 -15.773  0.00  0.00    +0.082 C 
ATOM      3  C   UNL     1      37.307 -22.281 -16.250  0.00  0.00    +0.007 C 
ATOM      4  C   UNL     1      34.676 -22.747 -17.054  0.00  0.00    +0.007 C 
ATOM      5  C   UNL     1      36.895 -21.915 -17.531  0.00  0.00    +0.000 C 
ATOM      6  C   UNL     1      35.579 -22.148 -17.932  0.00  0.00    +0.000 C 
ENDROOT
BRANCH   1   8
ATOM      7  O   UNL     1      36.198 -23.091 -13.030  0.00  0.00    -0.245 OA
ATOM      8  C   UNL     1      36.867 -23.251 -14.039  0.00  0.00    +0.342 C 
BRANCH   8   9
ATOM      9  O   UNL     1      38.113 -23.783 -14.105  0.00  0.00    -0.440 OA
BRANCH   9  10
ATOM     10  C   UNL     1      38.226 -25.149 -13.685  0.00  0.00    +0.190 C 
ATOM     11  C   UNL     1      37.653 -25.216 -12.269  0.00  0.00    +0.058 C 
BRANCH  10  12
ATOM     12  C   UNL     1      39.719 -25.526 -13.734  0.00  0.00    +0.053 C 
ATOM     13  C   UNL     1      40.356 -25.499 -15.117  0.00  0.00    +0.005 C 
ENDBRANCH  10  12
BRANCH  10  14
ATOM     14  C   UNL     1      37.427 -25.989 -14.598  0.00  0.00    -0.040 C 
ATOM     15  C   UNL     1      36.774 -26.672 -15.339  0.00  0.00    -0.011 C 
ENDBRANCH  10  14
ENDBRANCH   9  10
ENDBRANCH   8   9
ENDBRANCH   1   8
BRANCH   2  17
ATOM     16  O   UNL     1      33.987 -24.951 -14.711  0.00  0.00    -0.245 OA
ATOM     17  C   UNL     1      34.124 -23.737 -14.878  0.00  0.00    +0.338 C 
BRANCH  17  18
ATOM     18  O   UNL     1      33.363 -22.823 -14.218  0.00  0.00    -0.477 OA
ATOM     19  H   UNL     1      33.722 -21.985 -13.999  0.00  0.00    +0.295 HD
ENDBRANCH  17  18
ENDBRANCH   2  17
TORSDOF 7
ENDMDL
