MODEL 1
REMARK VINA RESULT:      -7.5      0.000      0.000
REMARK  Name = 2788
REMARK  1 active torsions:
REMARK  status: ('A' for Active; 'I' for Inactive)
REMARK    1  A    between atoms: C_6  and  O_13
REMARK                            x       y       z     vdW  Elec       q    Type
REMARK                         _______ _______ _______ _____ _____    ______ ____
ROOT
ATOM      1  I   UNL     1      32.979 -14.170 -26.426  0.00  0.00    -0.039 I 
ATOM      2 CL   UNL     1      33.099 -14.310 -20.789  0.00  0.00    -0.082 Cl
ATOM      3  N   UNL     1      35.495 -18.000 -23.514  0.00  0.00    -0.241 NA
ATOM      4  C   UNL     1      34.377 -16.278 -22.252  0.00  0.00    +0.031 C 
ATOM      5  C   UNL     1      34.759 -16.873 -23.472  0.00  0.00    +0.116 C 
ATOM      6  C   UNL     1      34.354 -16.260 -24.655  0.00  0.00    +0.156 C 
ATOM      7  C   UNL     1      33.610 -15.100 -22.246  0.00  0.00    +0.060 C 
ATOM      8  C   UNL     1      34.785 -16.894 -21.061  0.00  0.00    +0.004 C 
ATOM      9  C   UNL     1      33.591 -15.090 -24.649  0.00  0.00    +0.066 C 
ATOM     10  C   UNL     1      33.218 -14.510 -23.444  0.00  0.00    +0.020 C 
ATOM     11  C   UNL     1      35.543 -18.055 -21.100  0.00  0.00    +0.021 C 
ATOM     12  C   UNL     1      35.868 -18.563 -22.342  0.00  0.00    +0.099 C 
ENDROOT
BRANCH   6  13
ATOM     13  O   UNL     1      34.722 -16.835 -25.843  0.00  0.00    -0.504 OA
ATOM     14  H   UNL     1      35.578 -17.204 -25.939  0.00  0.00    +0.292 HD
ENDBRANCH   6  13
TORSDOF 1
ENDMDL
MODEL 2
REMARK VINA RESULT:      -7.2      1.646      1.961
REMARK  Name = 2788
REMARK  1 active torsions:
REMARK  status: ('A' for Active; 'I' for Inactive)
REMARK    1  A    between atoms: C_6  and  O_13
REMARK                            x       y       z     vdW  Elec       q    Type
REMARK                         _______ _______ _______ _____ _____    ______ ____
ROOT
ATOM      1  I   UNL     1      33.582 -12.453 -24.723  0.00  0.00    -0.039 I 
ATOM      2 CL   UNL     1      34.876 -16.029 -20.559  0.00  0.00    -0.082 Cl
ATOM      3  N   UNL     1      34.285 -17.795 -25.387  0.00  0.00    -0.241 NA
ATOM      4  C   UNL     1      34.559 -16.965 -23.142  0.00  0.00    +0.031 C 
ATOM      5  C   UNL     1      34.285 -16.773 -24.512  0.00  0.00    +0.116 C 
ATOM      6  C   UNL     1      34.009 -15.480 -24.948  0.00  0.00    +0.156 C 
ATOM      7  C   UNL     1      34.551 -15.874 -22.255  0.00  0.00    +0.060 C 
ATOM      8  C   UNL     1      34.838 -18.266 -22.701  0.00  0.00    +0.004 C 
ATOM      9  C   UNL     1      34.000 -14.395 -24.068  0.00  0.00    +0.066 C 
ATOM     10  C   UNL     1      34.271 -14.593 -22.720  0.00  0.00    +0.020 C 
ATOM     11  C   UNL     1      34.839 -19.323 -23.600  0.00  0.00    +0.021 C 
ATOM     12  C   UNL     1      34.559 -19.036 -24.921  0.00  0.00    +0.099 C 
ENDROOT
BRANCH   6  13
ATOM     13  O   UNL     1      33.741 -15.288 -26.278  0.00  0.00    -0.504 OA
ATOM     14  H   UNL     1      33.727 -16.019 -26.864  0.00  0.00    +0.292 HD
ENDBRANCH   6  13
TORSDOF 1
ENDMDL
MODEL 3
REMARK VINA RESULT:      -7.1      2.462      3.902
REMARK  Name = 2788
REMARK  1 active torsions:
REMARK  status: ('A' for Active; 'I' for Inactive)
REMARK    1  A    between atoms: C_6  and  O_13
REMARK                            x       y       z     vdW  Elec       q    Type
REMARK                         _______ _______ _______ _____ _____    ______ ____
ROOT
ATOM      1  I   UNL     1      35.693 -18.791 -21.379  0.00  0.00    -0.039 I 
ATOM      2 CL   UNL     1      32.956 -13.864 -21.194  0.00  0.00    -0.082 Cl
ATOM      3  N   UNL     1      33.983 -16.075 -25.758  0.00  0.00    -0.241 NA
ATOM      4  C   UNL     1      33.508 -15.052 -23.629  0.00  0.00    +0.031 C 
ATOM      5  C   UNL     1      34.051 -16.090 -24.414  0.00  0.00    +0.116 C 
ATOM      6  C   UNL     1      34.670 -17.151 -23.758  0.00  0.00    +0.156 C 
ATOM      7  C   UNL     1      33.596 -15.100 -22.227  0.00  0.00    +0.060 C 
ATOM      8  C   UNL     1      32.884 -13.984 -24.288  0.00  0.00    +0.004 C 
ATOM      9  C   UNL     1      34.760 -17.199 -22.364  0.00  0.00    +0.066 C 
ATOM     10  C   UNL     1      34.222 -16.173 -21.599  0.00  0.00    +0.020 C 
ATOM     11  C   UNL     1      32.811 -13.965 -25.673  0.00  0.00    +0.021 C 
ATOM     12  C   UNL     1      33.372 -15.026 -26.356  0.00  0.00    +0.099 C 
ENDROOT
BRANCH   6  13
ATOM     13  O   UNL     1      35.201 -18.162 -24.516  0.00  0.00    -0.504 OA
ATOM     14  H   UNL     1      35.012 -19.054 -24.303  0.00  0.00    +0.292 HD
ENDBRANCH   6  13
TORSDOF 1
ENDMDL
MODEL 4
REMARK VINA RESULT:      -6.9     11.148     12.164
REMARK  Name = 2788
REMARK  1 active torsions:
REMARK  status: ('A' for Active; 'I' for Inactive)
REMARK    1  A    between atoms: C_6  and  O_13
REMARK                            x       y       z     vdW  Elec       q    Type
REMARK                         _______ _______ _______ _____ _____    ______ ____
ROOT
ATOM      1  I   UNL     1      37.160 -24.508 -13.859  0.00  0.00    -0.039 I 
ATOM      2 CL   UNL     1      33.636 -22.751 -17.896  0.00  0.00    -0.082 Cl
ATOM      3  N   UNL     1      31.782 -24.081 -13.252  0.00  0.00    -0.241 NA
ATOM      4  C   UNL     1      32.653 -23.463 -15.412  0.00  0.00    +0.031 C 
ATOM      5  C   UNL     1      32.823 -23.924 -14.090  0.00  0.00    +0.116 C 
ATOM      6  C   UNL     1      34.115 -24.217 -13.661  0.00  0.00    +0.156 C 
ATOM      7  C   UNL     1      33.764 -23.309 -16.260  0.00  0.00    +0.060 C 
ATOM      8  C   UNL     1      31.353 -23.167 -15.845  0.00  0.00    +0.004 C 
ATOM      9  C   UNL     1      35.220 -24.065 -14.503  0.00  0.00    +0.066 C 
ATOM     10  C   UNL     1      35.043 -23.611 -15.803  0.00  0.00    +0.020 C 
ATOM     11  C   UNL     1      30.277 -23.328 -14.984  0.00  0.00    +0.021 C 
ATOM     12  C   UNL     1      30.543 -23.784 -13.709  0.00  0.00    +0.099 C 
ENDROOT
BRANCH   6  13
ATOM     13  O   UNL     1      34.286 -24.666 -12.377  0.00  0.00    -0.504 OA
ATOM     14  H   UNL     1      35.121 -24.990 -12.102  0.00  0.00    +0.292 HD
ENDBRANCH   6  13
TORSDOF 1
ENDMDL
MODEL 5
REMARK VINA RESULT:      -6.8      2.566      3.053
REMARK  Name = 2788
REMARK  1 active torsions:
REMARK  status: ('A' for Active; 'I' for Inactive)
REMARK    1  A    between atoms: C_6  and  O_13
REMARK                            x       y       z     vdW  Elec       q    Type
REMARK                         _______ _______ _______ _____ _____    ______ ____
ROOT
ATOM      1  I   UNL     1      33.062 -13.489 -26.897  0.00  0.00    -0.039 I 
ATOM      2 CL   UNL     1      34.578 -18.553 -24.933  0.00  0.00    -0.082 Cl
ATOM      3  N   UNL     1      34.241 -14.526 -21.700  0.00  0.00    -0.241 NA
ATOM      4  C   UNL     1      34.395 -16.397 -23.211  0.00  0.00    +0.031 C 
ATOM      5  C   UNL     1      34.133 -15.038 -22.940  0.00  0.00    +0.116 C 
ATOM      6  C   UNL     1      33.752 -14.221 -24.002  0.00  0.00    +0.156 C 
ATOM      7  C   UNL     1      34.272 -16.897 -24.519  0.00  0.00    +0.060 C 
ATOM      8  C   UNL     1      34.777 -17.220 -22.143  0.00  0.00    +0.004 C 
ATOM      9  C   UNL     1      33.630 -14.717 -25.302  0.00  0.00    +0.066 C 
ATOM     10  C   UNL     1      33.890 -16.057 -25.560  0.00  0.00    +0.020 C 
ATOM     11  C   UNL     1      34.890 -16.697 -20.864  0.00  0.00    +0.021 C 
ATOM     12  C   UNL     1      34.613 -15.355 -20.697  0.00  0.00    +0.099 C 
ENDROOT
BRANCH   6  13
ATOM     13  O   UNL     1      33.497 -12.899 -23.744  0.00  0.00    -0.504 OA
ATOM     14  H   UNL     1      32.969 -12.659 -23.009  0.00  0.00    +0.292 HD
ENDBRANCH   6  13
TORSDOF 1
ENDMDL
MODEL 6
REMARK VINA RESULT:      -6.7     11.586     12.557
REMARK  Name = 2788
REMARK  1 active torsions:
REMARK  status: ('A' for Active; 'I' for Inactive)
REMARK    1  A    between atoms: C_6  and  O_13
REMARK                            x       y       z     vdW  Elec       q    Type
REMARK                         _______ _______ _______ _____ _____    ______ ____
ROOT
ATOM      1  I   UNL     1      37.896 -24.502 -12.374  0.00  0.00    -0.039 I 
ATOM      2 CL   UNL     1      35.511 -22.498 -17.075  0.00  0.00    -0.082 Cl
ATOM      3  N   UNL     1      32.546 -24.426 -13.296  0.00  0.00    -0.241 NA
ATOM      4  C   UNL     1      33.933 -23.529 -15.051  0.00  0.00    +0.031 C 
ATOM      5  C   UNL     1      33.764 -24.123 -13.783  0.00  0.00    +0.116 C 
ATOM      6  C   UNL     1      34.903 -24.393 -13.030  0.00  0.00    +0.156 C 
ATOM      7  C   UNL     1      35.220 -23.225 -15.528  0.00  0.00    +0.060 C 
ATOM      8  C   UNL     1      32.786 -23.256 -15.810  0.00  0.00    +0.004 C 
ATOM      9  C   UNL     1      36.183 -24.092 -13.503  0.00  0.00    +0.066 C 
ATOM     10  C   UNL     1      36.341 -23.508 -14.753  0.00  0.00    +0.020 C 
ATOM     11  C   UNL     1      31.530 -23.566 -15.312  0.00  0.00    +0.021 C 
ATOM     12  C   UNL     1      31.465 -24.145 -14.060  0.00  0.00    +0.099 C 
ENDROOT
BRANCH   6  13
ATOM     13  O   UNL     1      34.745 -24.971 -11.797  0.00  0.00    -0.504 OA
ATOM     14  H   UNL     1      35.439 -25.478 -11.426  0.00  0.00    +0.292 HD
ENDBRANCH   6  13
TORSDOF 1
ENDMDL
MODEL 7
REMARK VINA RESULT:      -6.7     10.494     11.273
REMARK  Name = 2788
REMARK  1 active torsions:
REMARK  status: ('A' for Active; 'I' for Inactive)
REMARK    1  A    between atoms: C_6  and  O_13
REMARK                            x       y       z     vdW  Elec       q    Type
REMARK                         _______ _______ _______ _____ _____    ______ ____
ROOT
ATOM      1  I   UNL     1      30.542 -24.676 -14.248  0.00  0.00    -0.039 I 
ATOM      2 CL   UNL     1      33.549 -22.440 -18.461  0.00  0.00    -0.082 Cl
ATOM      3  N   UNL     1      35.876 -23.688 -14.011  0.00  0.00    -0.241 NA
ATOM      4  C   UNL     1      34.785 -23.110 -16.080  0.00  0.00    +0.031 C 
ATOM      5  C   UNL     1      34.763 -23.622 -14.766  0.00  0.00    +0.116 C 
ATOM      6  C   UNL     1      33.546 -24.066 -14.257  0.00  0.00    +0.156 C 
ATOM      7  C   UNL     1      33.605 -23.056 -16.842  0.00  0.00    +0.060 C 
ATOM      8  C   UNL     1      36.011 -22.663 -16.594  0.00  0.00    +0.004 C 
ATOM      9  C   UNL     1      32.372 -24.012 -15.013  0.00  0.00    +0.066 C 
ATOM     10  C   UNL     1      32.402 -23.507 -16.306  0.00  0.00    +0.020 C 
ATOM     11  C   UNL     1      37.159 -22.730 -15.819  0.00  0.00    +0.021 C 
ATOM     12  C   UNL     1      37.038 -23.247 -14.544  0.00  0.00    +0.099 C 
ENDROOT
BRANCH   6  13
ATOM     13  O   UNL     1      33.519 -24.564 -12.981  0.00  0.00    -0.504 OA
ATOM     14  H   UNL     1      34.251 -25.046 -12.651  0.00  0.00    +0.292 HD
ENDBRANCH   6  13
TORSDOF 1
ENDMDL
MODEL 8
REMARK VINA RESULT:      -6.7      8.671     10.146
REMARK  Name = 2788
REMARK  1 active torsions:
REMARK  status: ('A' for Active; 'I' for Inactive)
REMARK    1  A    between atoms: C_6  and  O_13
REMARK                            x       y       z     vdW  Elec       q    Type
REMARK                         _______ _______ _______ _____ _____    ______ ____
ROOT
ATOM      1  I   UNL     1      31.041 -24.350 -13.963  0.00  0.00    -0.039 I 
ATOM      2 CL   UNL     1      36.416 -23.630 -15.511  0.00  0.00    -0.082 Cl
ATOM      3  N   UNL     1      32.599 -22.121 -18.663  0.00  0.00    -0.241 NA
ATOM      4  C   UNL     1      34.371 -22.826 -17.190  0.00  0.00    +0.031 C 
ATOM      5  C   UNL     1      33.004 -22.673 -17.504  0.00  0.00    +0.116 C 
ATOM      6  C   UNL     1      32.066 -23.111 -16.573  0.00  0.00    +0.156 C 
ATOM      7  C   UNL     1      34.759 -23.406 -15.969  0.00  0.00    +0.060 C 
ATOM      8  C   UNL     1      35.316 -22.384 -18.125  0.00  0.00    +0.004 C 
ATOM      9  C   UNL     1      32.451 -23.688 -15.360  0.00  0.00    +0.066 C 
ATOM     10  C   UNL     1      33.798 -23.835 -15.059  0.00  0.00    +0.020 C 
ATOM     11  C   UNL     1      34.902 -21.815 -19.321  0.00  0.00    +0.021 C 
ATOM     12  C   UNL     1      33.543 -21.707 -19.539  0.00  0.00    +0.099 C 
ENDROOT
BRANCH   6  13
ATOM     13  O   UNL     1      30.737 -22.965 -16.874  0.00  0.00    -0.504 OA
ATOM     14  H   UNL     1      30.129 -23.642 -16.650  0.00  0.00    +0.292 HD
ENDBRANCH   6  13
TORSDOF 1
ENDMDL
MODEL 9
REMARK VINA RESULT:      -6.6      3.397      4.656
REMARK  Name = 2788
REMARK  1 active torsions:
REMARK  status: ('A' for Active; 'I' for Inactive)
REMARK    1  A    between atoms: C_6  and  O_13
REMARK                            x       y       z     vdW  Elec       q    Type
REMARK                         _______ _______ _______ _____ _____    ______ ____
ROOT
ATOM      1  I   UNL     1      36.251 -18.567 -22.043  0.00  0.00    -0.039 I 
ATOM      2 CL   UNL     1      33.506 -15.447 -25.855  0.00  0.00    -0.082 Cl
ATOM      3  N   UNL     1      33.282 -14.183 -20.842  0.00  0.00    -0.241 NA
ATOM      4  C   UNL     1      33.391 -14.777 -23.175  0.00  0.00    +0.031 C 
ATOM      5  C   UNL     1      33.727 -14.992 -21.822  0.00  0.00    +0.116 C 
ATOM      6  C   UNL     1      34.545 -16.076 -21.514  0.00  0.00    +0.156 C 
ATOM      7  C   UNL     1      33.875 -15.642 -24.172  0.00  0.00    +0.060 C 
ATOM      8  C   UNL     1      32.569 -13.686 -23.486  0.00  0.00    +0.004 C 
ATOM      9  C   UNL     1      35.025 -16.936 -22.505  0.00  0.00    +0.066 C 
ATOM     10  C   UNL     1      34.690 -16.718 -23.835  0.00  0.00    +0.020 C 
ATOM     11  C   UNL     1      32.108 -12.850 -22.479  0.00  0.00    +0.021 C 
ATOM     12  C   UNL     1      32.490 -13.140 -21.185  0.00  0.00    +0.099 C 
ENDROOT
BRANCH   6  13
ATOM     13  O   UNL     1      34.873 -16.289 -20.201  0.00  0.00    -0.504 OA
ATOM     14  H   UNL     1      35.193 -17.126 -19.929  0.00  0.00    +0.292 HD
ENDBRANCH   6  13
TORSDOF 1
ENDMDL
