MODEL 1
REMARK VINA RESULT:      -8.5      0.000      0.000
REMARK  Name = 445824
REMARK  7 active torsions:
REMARK  status: ('A' for Active; 'I' for Inactive)
REMARK    1  A    between atoms: C_1  and  N_3
REMARK    2  A    between atoms: C_1  and  C_7
REMARK    3  A    between atoms: C_1  and  C_16
REMARK    4  A    between atoms: C_7  and  C_11
REMARK    5  A    between atoms: C_7  and  O_12
REMARK    6  A    between atoms: C_7  and  O_14
REMARK    7  A    between atoms: C_16  and  C_17
REMARK                            x       y       z     vdW  Elec       q    Type
REMARK                         _______ _______ _______ _____ _____    ______ ____
ROOT
ATOM      1  C   UNL     1      34.365 -17.054 -21.913  0.00  0.00    +0.136 C 
ENDROOT
BRANCH   1   3
ATOM      2  O   UNL     1      34.262 -18.848 -24.193  0.00  0.00    -0.275 OA
ATOM      3  N   UNL     1      34.627 -16.729 -23.300  0.00  0.00    -0.301 N 
ATOM      4  C   UNL     1      34.550 -17.660 -24.319  0.00  0.00    +0.223 C 
ATOM      5  C   UNL     1      34.843 -17.054 -25.666  0.00  0.00    +0.095 C 
ATOM      6  H   UNL     1      34.869 -15.803 -23.528  0.00  0.00    +0.150 HD
ENDBRANCH   1   3
BRANCH   1   7
ATOM      7  C   UNL     1      34.152 -15.776 -21.064  0.00  0.00    +0.288 C 
BRANCH   7  11
ATOM      8  F   UNL     1      32.563 -14.735 -19.634  0.00  0.00    -0.165 F 
ATOM      9  F   UNL     1      32.006 -16.658 -20.502  0.00  0.00    -0.165 F 
ATOM     10  F   UNL     1      32.070 -14.879 -21.754  0.00  0.00    -0.165 F 
ATOM     11  C   UNL     1      32.686 -15.514 -20.731  0.00  0.00    +0.446 C 
ENDBRANCH   7  11
BRANCH   7  12
ATOM     12  O   UNL     1      34.866 -15.956 -19.836  0.00  0.00    -0.356 OA
ATOM     13  H   UNL     1      35.372 -16.783 -19.875  0.00  0.00    +0.213 HD
ENDBRANCH   7  12
BRANCH   7  14
ATOM     14  O   UNL     1      34.689 -14.660 -21.771  0.00  0.00    -0.356 OA
ATOM     15  H   UNL     1      33.982 -14.219 -22.267  0.00  0.00    +0.213 HD
ENDBRANCH   7  14
ENDBRANCH   1   7
BRANCH   1  16
ATOM     16  C   UNL     1      35.501 -17.943 -21.357  0.00  0.00    +0.051 C 
BRANCH  16  17
ATOM     17  C   UNL     1      34.999 -19.249 -20.783  0.00  0.00    -0.020 C 
ATOM     18  C   UNL     1      35.911 -20.174 -20.305  0.00  0.00    -0.004 C 
ATOM     19  C   UNL     1      33.636 -19.492 -20.748  0.00  0.00    -0.004 C 
ATOM     20  C   UNL     1      35.447 -21.378 -19.776  0.00  0.00    -0.000 C 
ATOM     21  C   UNL     1      33.172 -20.696 -20.218  0.00  0.00    -0.000 C 
ATOM     22  C   UNL     1      34.078 -21.640 -19.732  0.00  0.00    -0.000 C 
ENDBRANCH  16  17
ENDBRANCH   1  16
TORSDOF 7
ENDMDL
MODEL 2
REMARK VINA RESULT:      -8.2      2.442      3.933
REMARK  Name = 445824
REMARK  7 active torsions:
REMARK  status: ('A' for Active; 'I' for Inactive)
REMARK    1  A    between atoms: C_1  and  N_3
REMARK    2  A    between atoms: C_1  and  C_7
REMARK    3  A    between atoms: C_1  and  C_16
REMARK    4  A    between atoms: C_7  and  C_11
REMARK    5  A    between atoms: C_7  and  O_12
REMARK    6  A    between atoms: C_7  and  O_14
REMARK    7  A    between atoms: C_16  and  C_17
REMARK                            x       y       z     vdW  Elec       q    Type
REMARK                         _______ _______ _______ _____ _____    ______ ____
ROOT
ATOM      1  C   UNL     1      34.694 -17.820 -21.795  0.00  0.00    +0.136 C 
ENDROOT
BRANCH   1   3
ATOM      2  O   UNL     1      35.030 -15.701 -19.840  0.00  0.00    -0.275 OA
ATOM      3  N   UNL     1      33.856 -16.653 -21.610  0.00  0.00    -0.301 N 
ATOM      4  C   UNL     1      34.101 -15.695 -20.645  0.00  0.00    +0.223 C 
ATOM      5  C   UNL     1      33.093 -14.577 -20.686  0.00  0.00    +0.095 C 
ATOM      6  H   UNL     1      33.076 -16.538 -22.199  0.00  0.00    +0.150 HD
ENDBRANCH   1   3
BRANCH   1   7
ATOM      7  C   UNL     1      35.517 -17.723 -23.105  0.00  0.00    +0.288 C 
BRANCH   7  11
ATOM      8  F   UNL     1      35.098 -17.762 -25.444  0.00  0.00    -0.165 F 
ATOM      9  F   UNL     1      33.506 -18.485 -24.140  0.00  0.00    -0.165 F 
ATOM     10  F   UNL     1      35.302 -19.679 -24.425  0.00  0.00    -0.165 F 
ATOM     11  C   UNL     1      34.845 -18.413 -24.288  0.00  0.00    +0.446 C 
ENDBRANCH   7  11
BRANCH   7  12
ATOM     12  O   UNL     1      35.659 -16.333 -23.416  0.00  0.00    -0.356 OA
ATOM     13  H   UNL     1      34.965 -16.069 -24.039  0.00  0.00    +0.213 HD
ENDBRANCH   7  12
BRANCH   7  14
ATOM     14  O   UNL     1      36.802 -18.298 -22.880  0.00  0.00    -0.356 OA
ATOM     15  H   UNL     1      36.722 -19.263 -22.832  0.00  0.00    +0.213 HD
ENDBRANCH   7  14
ENDBRANCH   1   7
BRANCH   1  16
ATOM     16  C   UNL     1      33.832 -19.102 -21.739  0.00  0.00    +0.051 C 
BRANCH  16  17
ATOM     17  C   UNL     1      34.335 -20.105 -20.726  0.00  0.00    -0.020 C 
ATOM     18  C   UNL     1      33.424 -20.872 -20.020  0.00  0.00    -0.004 C 
ATOM     19  C   UNL     1      35.700 -20.236 -20.524  0.00  0.00    -0.004 C 
ATOM     20  C   UNL     1      33.889 -21.797 -19.086  0.00  0.00    -0.000 C 
ATOM     21  C   UNL     1      36.165 -21.161 -19.589  0.00  0.00    -0.000 C 
ATOM     22  C   UNL     1      35.259 -21.942 -18.870  0.00  0.00    -0.000 C 
ENDBRANCH  16  17
ENDBRANCH   1  16
TORSDOF 7
ENDMDL
MODEL 3
REMARK VINA RESULT:      -8.1      1.946      3.549
REMARK  Name = 445824
REMARK  7 active torsions:
REMARK  status: ('A' for Active; 'I' for Inactive)
REMARK    1  A    between atoms: C_1  and  N_3
REMARK    2  A    between atoms: C_1  and  C_7
REMARK    3  A    between atoms: C_1  and  C_16
REMARK    4  A    between atoms: C_7  and  C_11
REMARK    5  A    between atoms: C_7  and  O_12
REMARK    6  A    between atoms: C_7  and  O_14
REMARK    7  A    between atoms: C_16  and  C_17
REMARK                            x       y       z     vdW  Elec       q    Type
REMARK                         _______ _______ _______ _____ _____    ______ ____
ROOT
ATOM      1  C   UNL     1      34.488 -17.896 -21.919  0.00  0.00    +0.136 C 
ENDROOT
BRANCH   1   3
ATOM      2  O   UNL     1      35.059 -15.873 -19.917  0.00  0.00    -0.275 OA
ATOM      3  N   UNL     1      33.769 -16.660 -21.688  0.00  0.00    -0.301 N 
ATOM      4  C   UNL     1      34.121 -15.756 -20.703  0.00  0.00    +0.223 C 
ATOM      5  C   UNL     1      33.225 -14.546 -20.697  0.00  0.00    +0.095 C 
ATOM      6  H   UNL     1      32.995 -16.455 -22.259  0.00  0.00    +0.150 HD
ENDBRANCH   1   3
BRANCH   1   7
ATOM      7  C   UNL     1      35.064 -17.956 -23.356  0.00  0.00    +0.288 C 
BRANCH   7  11
ATOM      8  F   UNL     1      35.546 -15.642 -23.608  0.00  0.00    -0.165 F 
ATOM      9  F   UNL     1      33.548 -16.307 -24.180  0.00  0.00    -0.165 F 
ATOM     10  F   UNL     1      35.260 -16.816 -25.424  0.00  0.00    -0.165 F 
ATOM     11  C   UNL     1      34.848 -16.668 -24.144  0.00  0.00    +0.446 C 
ENDBRANCH   7  11
BRANCH   7  12
ATOM     12  O   UNL     1      36.473 -18.181 -23.241  0.00  0.00    -0.356 OA
ATOM     13  H   UNL     1      36.902 -17.983 -24.088  0.00  0.00    +0.213 HD
ENDBRANCH   7  12
BRANCH   7  14
ATOM     14  O   UNL     1      34.459 -19.048 -24.046  0.00  0.00    -0.356 OA
ATOM     15  H   UNL     1      34.579 -19.862 -23.533  0.00  0.00    +0.213 HD
ENDBRANCH   7  14
ENDBRANCH   1   7
BRANCH   1  16
ATOM     16  C   UNL     1      33.576 -19.104 -21.603  0.00  0.00    +0.051 C 
BRANCH  16  17
ATOM     17  C   UNL     1      34.222 -20.101 -20.669  0.00  0.00    -0.020 C 
ATOM     18  C   UNL     1      35.602 -20.140 -20.567  0.00  0.00    -0.004 C 
ATOM     19  C   UNL     1      33.418 -20.958 -19.933  0.00  0.00    -0.004 C 
ATOM     20  C   UNL     1      36.197 -21.060 -19.705  0.00  0.00    -0.000 C 
ATOM     21  C   UNL     1      34.013 -21.878 -19.071  0.00  0.00    -0.000 C 
ATOM     22  C   UNL     1      35.403 -21.930 -18.956  0.00  0.00    -0.000 C 
ENDBRANCH  16  17
ENDBRANCH   1  16
TORSDOF 7
ENDMDL
MODEL 4
REMARK VINA RESULT:      -7.8      2.537      3.585
REMARK  Name = 445824
REMARK  7 active torsions:
REMARK  status: ('A' for Active; 'I' for Inactive)
REMARK    1  A    between atoms: C_1  and  N_3
REMARK    2  A    between atoms: C_1  and  C_7
REMARK    3  A    between atoms: C_1  and  C_16
REMARK    4  A    between atoms: C_7  and  C_11
REMARK    5  A    between atoms: C_7  and  O_12
REMARK    6  A    between atoms: C_7  and  O_14
REMARK    7  A    between atoms: C_16  and  C_17
REMARK                            x       y       z     vdW  Elec       q    Type
REMARK                         _______ _______ _______ _____ _____    ______ ____
ROOT
ATOM      1  C   UNL     1      33.468 -14.654 -23.832  0.00  0.00    +0.136 C 
ENDROOT
BRANCH   1   3
ATOM      2  O   UNL     1      32.707 -15.648 -26.451  0.00  0.00    -0.275 OA
ATOM      3  N   UNL     1      33.376 -13.901 -25.066  0.00  0.00    -0.301 N 
ATOM      4  C   UNL     1      33.002 -14.469 -26.269  0.00  0.00    +0.223 C 
ATOM      5  C   UNL     1      32.962 -13.460 -27.386  0.00  0.00    +0.095 C 
ATOM      6  H   UNL     1      33.590 -12.941 -25.046  0.00  0.00    +0.150 HD
ENDBRANCH   1   3
BRANCH   1   7
ATOM      7  C   UNL     1      33.092 -13.782 -22.608  0.00  0.00    +0.288 C 
BRANCH   7  11
ATOM      8  F   UNL     1      34.308 -14.755 -20.812  0.00  0.00    -0.165 F 
ATOM      9  F   UNL     1      32.488 -15.778 -21.447  0.00  0.00    -0.165 F 
ATOM     10  F   UNL     1      32.354 -13.897 -20.359  0.00  0.00    -0.165 F 
ATOM     11  C   UNL     1      33.063 -14.565 -21.299  0.00  0.00    +0.446 C 
ENDBRANCH   7  11
BRANCH   7  12
ATOM     12  O   UNL     1      34.084 -12.756 -22.495  0.00  0.00    -0.356 OA
ATOM     13  H   UNL     1      33.764 -12.060 -21.901  0.00  0.00    +0.213 HD
ENDBRANCH   7  12
BRANCH   7  14
ATOM     14  O   UNL     1      31.816 -13.189 -22.842  0.00  0.00    -0.356 OA
ATOM     15  H   UNL     1      31.142 -13.885 -22.901  0.00  0.00    +0.213 HD
ENDBRANCH   7  14
ENDBRANCH   1   7
BRANCH   1  16
ATOM     16  C   UNL     1      34.878 -15.275 -23.698  0.00  0.00    +0.051 C 
BRANCH  16  17
ATOM     17  C   UNL     1      34.853 -16.786 -23.649  0.00  0.00    -0.020 C 
ATOM     18  C   UNL     1      35.147 -17.431 -22.460  0.00  0.00    -0.004 C 
ATOM     19  C   UNL     1      34.538 -17.494 -24.797  0.00  0.00    -0.004 C 
ATOM     20  C   UNL     1      35.124 -18.825 -22.417  0.00  0.00    -0.000 C 
ATOM     21  C   UNL     1      34.514 -18.888 -24.754  0.00  0.00    -0.000 C 
ATOM     22  C   UNL     1      34.808 -19.554 -23.563  0.00  0.00    -0.000 C 
ENDBRANCH  16  17
ENDBRANCH   1  16
TORSDOF 7
ENDMDL
MODEL 5
REMARK VINA RESULT:      -7.6      9.960     11.576
REMARK  Name = 445824
REMARK  7 active torsions:
REMARK  status: ('A' for Active; 'I' for Inactive)
REMARK    1  A    between atoms: C_1  and  N_3
REMARK    2  A    between atoms: C_1  and  C_7
REMARK    3  A    between atoms: C_1  and  C_16
REMARK    4  A    between atoms: C_7  and  C_11
REMARK    5  A    between atoms: C_7  and  O_12
REMARK    6  A    between atoms: C_7  and  O_14
REMARK    7  A    between atoms: C_16  and  C_17
REMARK                            x       y       z     vdW  Elec       q    Type
REMARK                         _______ _______ _______ _____ _____    ______ ____
ROOT
ATOM      1  C   UNL     1      35.513 -24.617 -14.080  0.00  0.00    +0.136 C 
ENDROOT
BRANCH   1   3
ATOM      2  O   UNL     1      35.061 -24.910 -11.228  0.00  0.00    -0.275 OA
ATOM      3  N   UNL     1      36.131 -23.862 -13.010  0.00  0.00    -0.301 N 
ATOM      4  C   UNL     1      35.848 -24.078 -11.675  0.00  0.00    +0.223 C 
ATOM      5  C   UNL     1      36.648 -23.176 -10.772  0.00  0.00    +0.095 C 
ATOM      6  H   UNL     1      36.783 -23.164 -13.245  0.00  0.00    +0.150 HD
ENDBRANCH   1   3
BRANCH   1   7
ATOM      7  C   UNL     1      36.566 -25.405 -14.900  0.00  0.00    +0.288 C 
BRANCH   7  11
ATOM      8  F   UNL     1      36.830 -26.810 -13.001  0.00  0.00    -0.165 F 
ATOM      9  F   UNL     1      38.509 -25.515 -13.517  0.00  0.00    -0.165 F 
ATOM     10  F   UNL     1      38.050 -27.246 -14.755  0.00  0.00    -0.165 F 
ATOM     11  C   UNL     1      37.496 -26.246 -14.032  0.00  0.00    +0.446 C 
ENDBRANCH   7  11
BRANCH   7  12
ATOM     12  O   UNL     1      35.854 -26.283 -15.777  0.00  0.00    -0.356 OA
ATOM     13  H   UNL     1      35.009 -25.876 -16.026  0.00  0.00    +0.213 HD
ENDBRANCH   7  12
BRANCH   7  14
ATOM     14  O   UNL     1      37.333 -24.480 -15.668  0.00  0.00    -0.356 OA
ATOM     15  H   UNL     1      38.268 -24.548 -15.419  0.00  0.00    +0.213 HD
ENDBRANCH   7  14
ENDBRANCH   1   7
BRANCH   1  16
ATOM     16  C   UNL     1      34.665 -23.677 -14.967  0.00  0.00    +0.051 C 
BRANCH  16  17
ATOM     17  C   UNL     1      33.180 -23.938 -14.851  0.00  0.00    -0.020 C 
ATOM     18  C   UNL     1      32.710 -24.728 -13.816  0.00  0.00    -0.004 C 
ATOM     19  C   UNL     1      32.320 -23.382 -15.784  0.00  0.00    -0.004 C 
ATOM     20  C   UNL     1      31.340 -24.968 -13.709  0.00  0.00    -0.000 C 
ATOM     21  C   UNL     1      30.951 -23.623 -15.678  0.00  0.00    -0.000 C 
ATOM     22  C   UNL     1      30.460 -24.416 -14.640  0.00  0.00    -0.000 C 
ENDBRANCH  16  17
ENDBRANCH   1  16
TORSDOF 7
ENDMDL
MODEL 6
REMARK VINA RESULT:      -7.5      8.762     11.013
REMARK  Name = 445824
REMARK  7 active torsions:
REMARK  status: ('A' for Active; 'I' for Inactive)
REMARK    1  A    between atoms: C_1  and  N_3
REMARK    2  A    between atoms: C_1  and  C_7
REMARK    3  A    between atoms: C_1  and  C_16
REMARK    4  A    between atoms: C_7  and  C_11
REMARK    5  A    between atoms: C_7  and  O_12
REMARK    6  A    between atoms: C_7  and  O_14
REMARK    7  A    between atoms: C_16  and  C_17
REMARK                            x       y       z     vdW  Elec       q    Type
REMARK                         _______ _______ _______ _____ _____    ______ ____
ROOT
ATOM      1  C   UNL     1      36.883 -24.127 -14.418  0.00  0.00    +0.136 C 
ENDROOT
BRANCH   1   3
ATOM      2  O   UNL     1      34.480 -24.482 -12.830  0.00  0.00    -0.275 OA
ATOM      3  N   UNL     1      36.756 -24.021 -12.980  0.00  0.00    -0.301 N 
ATOM      4  C   UNL     1      35.561 -24.209 -12.312  0.00  0.00    +0.223 C 
ATOM      5  C   UNL     1      35.714 -24.066 -10.821  0.00  0.00    +0.095 C 
ATOM      6  H   UNL     1      37.559 -23.805 -12.453  0.00  0.00    +0.150 HD
ENDBRANCH   1   3
BRANCH   1   7
ATOM      7  C   UNL     1      38.136 -24.948 -14.817  0.00  0.00    +0.288 C 
BRANCH   7  11
ATOM      8  F   UNL     1      39.995 -26.186 -14.005  0.00  0.00    -0.165 F 
ATOM      9  F   UNL     1      38.119 -26.378 -12.907  0.00  0.00    -0.165 F 
ATOM     10  F   UNL     1      39.270 -24.535 -12.778  0.00  0.00    -0.165 F 
ATOM     11  C   UNL     1      38.883 -25.523 -13.619  0.00  0.00    +0.446 C 
ENDBRANCH   7  11
BRANCH   7  12
ATOM     12  O   UNL     1      37.689 -26.037 -15.632  0.00  0.00    -0.356 OA
ATOM     13  H   UNL     1      36.731 -26.146 -15.529  0.00  0.00    +0.213 HD
ENDBRANCH   7  12
BRANCH   7  14
ATOM     14  O   UNL     1      39.010 -24.112 -15.572  0.00  0.00    -0.356 OA
ATOM     15  H   UNL     1      39.434 -23.469 -14.982  0.00  0.00    +0.213 HD
ENDBRANCH   7  14
ENDBRANCH   1   7
BRANCH   1  16
ATOM     16  C   UNL     1      36.881 -22.718 -15.054  0.00  0.00    +0.051 C 
BRANCH  16  17
ATOM     17  C   UNL     1      35.987 -22.621 -16.269  0.00  0.00    -0.020 C 
ATOM     18  C   UNL     1      34.711 -23.155 -16.217  0.00  0.00    -0.004 C 
ATOM     19  C   UNL     1      36.465 -22.002 -17.413  0.00  0.00    -0.004 C 
ATOM     20  C   UNL     1      33.888 -23.066 -17.339  0.00  0.00    -0.000 C 
ATOM     21  C   UNL     1      35.642 -21.912 -18.535  0.00  0.00    -0.000 C 
ATOM     22  C   UNL     1      34.352 -22.445 -18.498  0.00  0.00    -0.000 C 
ENDBRANCH  16  17
ENDBRANCH   1  16
TORSDOF 7
ENDMDL
MODEL 7
REMARK VINA RESULT:      -7.5      7.278     10.025
REMARK  Name = 445824
REMARK  7 active torsions:
REMARK  status: ('A' for Active; 'I' for Inactive)
REMARK    1  A    between atoms: C_1  and  N_3
REMARK    2  A    between atoms: C_1  and  C_7
REMARK    3  A    between atoms: C_1  and  C_16
REMARK    4  A    between atoms: C_7  and  C_11
REMARK    5  A    between atoms: C_7  and  O_12
REMARK    6  A    between atoms: C_7  and  O_14
REMARK    7  A    between atoms: C_16  and  C_17
REMARK                            x       y       z     vdW  Elec       q    Type
REMARK                         _______ _______ _______ _____ _____    ______ ____
ROOT
ATOM      1  C   UNL     1      32.201  -9.997 -22.589  0.00  0.00    +0.136 C 
ENDROOT
BRANCH   1   3
ATOM      2  O   UNL     1      34.639  -8.678 -23.453  0.00  0.00    -0.275 OA
ATOM      3  N   UNL     1      33.120 -10.435 -23.619  0.00  0.00    -0.301 N 
ATOM      4  C   UNL     1      34.261  -9.733 -23.959  0.00  0.00    +0.223 C 
ATOM      5  C   UNL     1      35.051 -10.422 -25.040  0.00  0.00    +0.095 C 
ATOM      6  H   UNL     1      32.923 -11.271 -24.099  0.00  0.00    +0.150 HD
ENDBRANCH   1   3
BRANCH   1   7
ATOM      7  C   UNL     1      31.646 -11.196 -21.779  0.00  0.00    +0.288 C 
BRANCH   7  11
ATOM      8  F   UNL     1      32.399  -9.897 -19.935  0.00  0.00    -0.165 F 
ATOM      9  F   UNL     1      32.006 -12.012 -19.565  0.00  0.00    -0.165 F 
ATOM     10  F   UNL     1      30.348 -10.637 -19.877  0.00  0.00    -0.165 F 
ATOM     11  C   UNL     1      31.606 -10.936 -20.276  0.00  0.00    +0.446 C 
ENDBRANCH   7  11
BRANCH   7  12
ATOM     12  O   UNL     1      30.309 -11.433 -22.230  0.00  0.00    -0.356 OA
ATOM     13  H   UNL     1      29.711 -11.461 -21.468  0.00  0.00    +0.213 HD
ENDBRANCH   7  12
BRANCH   7  14
ATOM     14  O   UNL     1      32.452 -12.341 -22.047  0.00  0.00    -0.356 OA
ATOM     15  H   UNL     1      32.616 -12.823 -21.220  0.00  0.00    +0.213 HD
ENDBRANCH   7  14
ENDBRANCH   1   7
BRANCH   1  16
ATOM     16  C   UNL     1      31.074  -9.143 -23.216  0.00  0.00    +0.051 C 
BRANCH  16  17
ATOM     17  C   UNL     1      31.290  -7.658 -23.034  0.00  0.00    -0.020 C 
ATOM     18  C   UNL     1      31.754  -7.184 -21.819  0.00  0.00    -0.004 C 
ATOM     19  C   UNL     1      31.018  -6.801 -24.088  0.00  0.00    -0.004 C 
ATOM     20  C   UNL     1      31.953  -5.814 -21.652  0.00  0.00    -0.000 C 
ATOM     21  C   UNL     1      31.217  -5.431 -23.921  0.00  0.00    -0.000 C 
ATOM     22  C   UNL     1      31.685  -4.936 -22.702  0.00  0.00    -0.000 C 
ENDBRANCH  16  17
ENDBRANCH   1  16
TORSDOF 7
ENDMDL
MODEL 8
REMARK VINA RESULT:      -7.5      8.769     10.850
REMARK  Name = 445824
REMARK  7 active torsions:
REMARK  status: ('A' for Active; 'I' for Inactive)
REMARK    1  A    between atoms: C_1  and  N_3
REMARK    2  A    between atoms: C_1  and  C_7
REMARK    3  A    between atoms: C_1  and  C_16
REMARK    4  A    between atoms: C_7  and  C_11
REMARK    5  A    between atoms: C_7  and  O_12
REMARK    6  A    between atoms: C_7  and  O_14
REMARK    7  A    between atoms: C_16  and  C_17
REMARK                            x       y       z     vdW  Elec       q    Type
REMARK                         _______ _______ _______ _____ _____    ______ ____
ROOT
ATOM      1  C   UNL     1      35.331 -24.324 -13.616  0.00  0.00    +0.136 C 
ENDROOT
BRANCH   1   3
ATOM      2  O   UNL     1      37.738 -24.883 -15.139  0.00  0.00    -0.275 OA
ATOM      3  N   UNL     1      35.735 -25.592 -14.188  0.00  0.00    -0.301 N 
ATOM      4  C   UNL     1      36.907 -25.757 -14.901  0.00  0.00    +0.223 C 
ATOM      5  C   UNL     1      37.096 -27.178 -15.361  0.00  0.00    +0.095 C 
ATOM      6  H   UNL     1      35.147 -26.371 -14.064  0.00  0.00    +0.150 HD
ENDBRANCH   1   3
BRANCH   1   7
ATOM      7  C   UNL     1      35.766 -24.208 -12.133  0.00  0.00    +0.288 C 
BRANCH   7  11
ATOM      8  F   UNL     1      38.106 -24.259 -11.717  0.00  0.00    -0.165 F 
ATOM      9  F   UNL     1      36.992 -22.561 -10.917  0.00  0.00    -0.165 F 
ATOM     10  F   UNL     1      37.353 -22.712 -13.058  0.00  0.00    -0.165 F 
ATOM     11  C   UNL     1      37.065 -23.430 -11.948  0.00  0.00    +0.446 C 
ENDBRANCH   7  11
BRANCH   7  12
ATOM     12  O   UNL     1      34.724 -23.517 -11.436  0.00  0.00    -0.356 OA
ATOM     13  H   UNL     1      33.862 -23.828 -11.753  0.00  0.00    +0.213 HD
ENDBRANCH   7  12
BRANCH   7  14
ATOM     14  O   UNL     1      35.913 -25.521 -11.595  0.00  0.00    -0.356 OA
ATOM     15  H   UNL     1      35.560 -26.170 -12.224  0.00  0.00    +0.213 HD
ENDBRANCH   7  14
ENDBRANCH   1   7
BRANCH   1  16
ATOM     16  C   UNL     1      33.808 -24.126 -13.795  0.00  0.00    +0.051 C 
BRANCH  16  17
ATOM     17  C   UNL     1      33.437 -23.637 -15.177  0.00  0.00    -0.020 C 
ATOM     18  C   UNL     1      32.101 -23.468 -15.500  0.00  0.00    -0.004 C 
ATOM     19  C   UNL     1      34.442 -23.368 -16.092  0.00  0.00    -0.004 C 
ATOM     20  C   UNL     1      31.760 -23.017 -16.775  0.00  0.00    -0.000 C 
ATOM     21  C   UNL     1      34.101 -22.917 -17.367  0.00  0.00    -0.000 C 
ATOM     22  C   UNL     1      32.759 -22.741 -17.709  0.00  0.00    -0.000 C 
ENDBRANCH  16  17
ENDBRANCH   1  16
TORSDOF 7
ENDMDL
MODEL 9
REMARK VINA RESULT:      -7.5      2.669      5.275
REMARK  Name = 445824
REMARK  7 active torsions:
REMARK  status: ('A' for Active; 'I' for Inactive)
REMARK    1  A    between atoms: C_1  and  N_3
REMARK    2  A    between atoms: C_1  and  C_7
REMARK    3  A    between atoms: C_1  and  C_16
REMARK    4  A    between atoms: C_7  and  C_11
REMARK    5  A    between atoms: C_7  and  O_12
REMARK    6  A    between atoms: C_7  and  O_14
REMARK    7  A    between atoms: C_16  and  C_17
REMARK                            x       y       z     vdW  Elec       q    Type
REMARK                         _______ _______ _______ _____ _____    ______ ____
ROOT
ATOM      1  C   UNL     1      34.484 -18.272 -21.746  0.00  0.00    +0.136 C 
ENDROOT
BRANCH   1   3
ATOM      2  O   UNL     1      32.298 -20.038 -21.022  0.00  0.00    -0.275 OA
ATOM      3  N   UNL     1      34.519 -19.376 -20.810  0.00  0.00    -0.301 N 
ATOM      4  C   UNL     1      33.417 -20.162 -20.531  0.00  0.00    +0.223 C 
ATOM      5  C   UNL     1      33.734 -21.254 -19.543  0.00  0.00    +0.095 C 
ATOM      6  H   UNL     1      35.366 -19.574 -20.351  0.00  0.00    +0.150 HD
ENDBRANCH   1   3
BRANCH   1   7
ATOM      7  C   UNL     1      35.272 -18.601 -23.040  0.00  0.00    +0.288 C 
BRANCH   7  11
ATOM      8  F   UNL     1      35.553 -16.973 -24.749  0.00  0.00    -0.165 F 
ATOM      9  F   UNL     1      33.521 -17.318 -24.031  0.00  0.00    -0.165 F 
ATOM     10  F   UNL     1      34.504 -18.813 -25.271  0.00  0.00    -0.165 F 
ATOM     11  C   UNL     1      34.706 -17.915 -24.279  0.00  0.00    +0.446 C 
ENDBRANCH   7  11
BRANCH   7  12
ATOM     12  O   UNL     1      36.615 -18.145 -22.847  0.00  0.00    -0.356 OA
ATOM     13  H   UNL     1      37.157 -18.405 -23.608  0.00  0.00    +0.213 HD
ENDBRANCH   7  12
BRANCH   7  14
ATOM     14  O   UNL     1      35.269 -20.015 -23.229  0.00  0.00    -0.356 OA
ATOM     15  H   UNL     1      35.664 -20.446 -22.455  0.00  0.00    +0.213 HD
ENDBRANCH   7  14
ENDBRANCH   1   7
BRANCH   1  16
ATOM     16  C   UNL     1      34.996 -16.983 -21.062  0.00  0.00    +0.051 C 
BRANCH  16  17
ATOM     17  C   UNL     1      34.174 -15.764 -21.413  0.00  0.00    -0.020 C 
ATOM     18  C   UNL     1      34.627 -14.901 -22.396  0.00  0.00    -0.004 C 
ATOM     19  C   UNL     1      32.984 -15.534 -20.742  0.00  0.00    -0.004 C 
ATOM     20  C   UNL     1      33.868 -13.776 -22.719  0.00  0.00    -0.000 C 
ATOM     21  C   UNL     1      32.225 -14.410 -21.065  0.00  0.00    -0.000 C 
ATOM     22  C   UNL     1      32.667 -13.529 -22.054  0.00  0.00    -0.000 C 
ENDBRANCH  16  17
ENDBRANCH   1  16
TORSDOF 7
ENDMDL
