MODEL 1
REMARK VINA RESULT:      -6.8      0.000      0.000
REMARK  Name = 18432427
REMARK  5 active torsions:
REMARK  status: ('A' for Active; 'I' for Inactive)
REMARK    1  A    between atoms: C_4  and  C_14
REMARK    2  A    between atoms: C_5  and  C_18
REMARK    3  A    between atoms: C_6  and  N_10
REMARK    4  A    between atoms: C_14  and  O_15
REMARK    5  A    between atoms: C_18  and  O_19
REMARK                            x       y       z     vdW  Elec       q    Type
REMARK                         _______ _______ _______ _____ _____    ______ ____
ROOT
ATOM      1 BR   UNL     1      35.259 -24.206 -13.050  0.00  0.00    -0.049 Br
ATOM      2 BR   UNL     1      35.758 -22.146 -18.373  0.00  0.00    -0.047 Br
ATOM      3 BR   UNL     1      30.587 -23.415 -16.268  0.00  0.00    -0.047 Br
ATOM      4  C   UNL     1      33.071 -23.723 -14.852  0.00  0.00    +0.089 A 
ATOM      5  C   UNL     1      35.254 -23.190 -15.740  0.00  0.00    +0.089 A 
ATOM      6  C   UNL     1      33.282 -22.855 -17.097  0.00  0.00    +0.055 A 
ATOM      7  C   UNL     1      34.456 -23.657 -14.696  0.00  0.00    +0.048 A 
ATOM      8  C   UNL     1      34.667 -22.788 -16.940  0.00  0.00    +0.055 A 
ATOM      9  C   UNL     1      32.484 -23.322 -16.053  0.00  0.00    +0.055 A 
ENDROOT
BRANCH   6  10
ATOM     10  N   UNL     1      32.687 -22.447 -18.316  0.00  0.00    -0.356 N 
ATOM     11  H   UNL     1      31.709 -22.353 -18.380  0.00  0.00    +0.142 HD
ATOM     12  H   UNL     1      33.252 -22.257 -19.100  0.00  0.00    +0.142 HD
ENDBRANCH   6  10
BRANCH   4  14
ATOM     13  O   UNL     1      31.712 -23.508 -12.895  0.00  0.00    -0.245 OA
ATOM     14  C   UNL     1      32.234 -24.214 -13.757  0.00  0.00    +0.339 C 
BRANCH  14  15
ATOM     15  O   UNL     1      32.086 -25.563 -13.791  0.00  0.00    -0.477 OA
ATOM     16  H   UNL     1      32.693 -26.112 -13.334  0.00  0.00    +0.295 HD
ENDBRANCH  14  15
ENDBRANCH   4  14
BRANCH   5  18
ATOM     17  O   UNL     1      37.334 -22.109 -15.263  0.00  0.00    -0.245 OA
ATOM     18  C   UNL     1      36.706 -23.119 -15.577  0.00  0.00    +0.339 C 
BRANCH  18  19
ATOM     19  O   UNL     1      37.306 -24.314 -15.813  0.00  0.00    -0.477 OA
ATOM     20  H   UNL     1      37.406 -24.622 -16.692  0.00  0.00    +0.295 HD
ENDBRANCH  18  19
ENDBRANCH   5  18
TORSDOF 5
ENDMDL
MODEL 2
REMARK VINA RESULT:      -6.8      0.144      4.200
REMARK  Name = 18432427
REMARK  5 active torsions:
REMARK  status: ('A' for Active; 'I' for Inactive)
REMARK    1  A    between atoms: C_4  and  C_14
REMARK    2  A    between atoms: C_5  and  C_18
REMARK    3  A    between atoms: C_6  and  N_10
REMARK    4  A    between atoms: C_14  and  O_15
REMARK    5  A    between atoms: C_18  and  O_19
REMARK                            x       y       z     vdW  Elec       q    Type
REMARK                         _______ _______ _______ _____ _____    ______ ____
ROOT
ATOM      1 BR   UNL     1      35.158 -24.197 -13.097  0.00  0.00    -0.049 Br
ATOM      2 BR   UNL     1      30.443 -23.390 -16.250  0.00  0.00    -0.047 Br
ATOM      3 BR   UNL     1      35.591 -22.165 -18.435  0.00  0.00    -0.047 Br
ATOM      4  C   UNL     1      35.118 -23.193 -15.791  0.00  0.00    +0.089 A 
ATOM      5  C   UNL     1      32.945 -23.708 -14.868  0.00  0.00    +0.089 A 
ATOM      6  C   UNL     1      33.129 -22.852 -17.120  0.00  0.00    +0.055 A 
ATOM      7  C   UNL     1      34.332 -23.650 -14.733  0.00  0.00    +0.048 A 
ATOM      8  C   UNL     1      32.344 -23.310 -16.062  0.00  0.00    +0.055 A 
ATOM      9  C   UNL     1      34.516 -22.794 -16.985  0.00  0.00    +0.055 A 
ENDROOT
BRANCH   6  10
ATOM     10  N   UNL     1      32.518 -22.447 -18.332  0.00  0.00    -0.356 N 
ATOM     11  H   UNL     1      31.755 -21.825 -18.316  0.00  0.00    +0.142 HD
ATOM     12  H   UNL     1      32.857 -22.789 -19.192  0.00  0.00    +0.142 HD
ENDBRANCH   6  10
BRANCH   4  14
ATOM     13  O   UNL     1      37.215 -22.115 -15.390  0.00  0.00    -0.245 OA
ATOM     14  C   UNL     1      36.573 -23.131 -15.649  0.00  0.00    +0.339 C 
BRANCH  14  15
ATOM     15  O   UNL     1      37.157 -24.343 -15.835  0.00  0.00    -0.477 OA
ATOM     16  H   UNL     1      37.621 -24.752 -15.131  0.00  0.00    +0.295 HD
ENDBRANCH  14  15
ENDBRANCH   4  14
BRANCH   5  18
ATOM     17  O   UNL     1      31.611 -23.475 -12.896  0.00  0.00    -0.245 OA
ATOM     18  C   UNL     1      32.121 -24.188 -13.759  0.00  0.00    +0.339 C 
BRANCH  18  19
ATOM     19  O   UNL     1      31.970 -25.537 -13.780  0.00  0.00    -0.477 OA
ATOM     20  H   UNL     1      31.386 -25.934 -14.396  0.00  0.00    +0.295 HD
ENDBRANCH  18  19
ENDBRANCH   5  18
TORSDOF 5
ENDMDL
MODEL 3
REMARK VINA RESULT:      -6.6      2.438      4.713
REMARK  Name = 18432427
REMARK  5 active torsions:
REMARK  status: ('A' for Active; 'I' for Inactive)
REMARK    1  A    between atoms: C_4  and  C_14
REMARK    2  A    between atoms: C_5  and  C_18
REMARK    3  A    between atoms: C_6  and  N_10
REMARK    4  A    between atoms: C_14  and  O_15
REMARK    5  A    between atoms: C_18  and  O_19
REMARK                            x       y       z     vdW  Elec       q    Type
REMARK                         _______ _______ _______ _____ _____    ______ ____
ROOT
ATOM      1 BR   UNL     1      31.287 -23.650 -16.543  0.00  0.00    -0.049 Br
ATOM      2 BR   UNL     1      35.639 -23.736 -12.820  0.00  0.00    -0.047 Br
ATOM      3 BR   UNL     1      36.497 -21.923 -18.182  0.00  0.00    -0.047 Br
ATOM      4  C   UNL     1      33.982 -22.835 -17.126  0.00  0.00    +0.089 A 
ATOM      5  C   UNL     1      33.620 -23.602 -14.863  0.00  0.00    +0.089 A 
ATOM      6  C   UNL     1      35.817 -22.873 -15.555  0.00  0.00    +0.055 A 
ATOM      7  C   UNL     1      33.129 -23.334 -16.141  0.00  0.00    +0.048 A 
ATOM      8  C   UNL     1      34.964 -23.371 -14.570  0.00  0.00    +0.055 A 
ATOM      9  C   UNL     1      35.326 -22.604 -16.833  0.00  0.00    +0.055 A 
ENDROOT
BRANCH   6  10
ATOM     10  N   UNL     1      37.182 -22.638 -15.256  0.00  0.00    -0.356 N 
ATOM     11  H   UNL     1      37.778 -22.256 -15.940  0.00  0.00    +0.142 HD
ATOM     12  H   UNL     1      37.535 -22.857 -14.363  0.00  0.00    +0.142 HD
ENDBRANCH   6  10
BRANCH   4  14
ATOM     13  O   UNL     1      32.850 -21.540 -18.788  0.00  0.00    -0.245 OA
ATOM     14  C   UNL     1      33.467 -22.554 -18.466  0.00  0.00    +0.339 C 
BRANCH  14  15
ATOM     15  O   UNL     1      33.750 -23.552 -19.342  0.00  0.00    -0.477 OA
ATOM     16  H   UNL     1      33.890 -24.424 -19.029  0.00  0.00    +0.295 HD
ENDBRANCH  14  15
ENDBRANCH   4  14
BRANCH   5  18
ATOM     17  O   UNL     1      32.095 -23.438 -13.027  0.00  0.00    -0.245 OA
ATOM     18  C   UNL     1      32.726 -24.125 -13.830  0.00  0.00    +0.339 C 
BRANCH  18  19
ATOM     19  O   UNL     1      32.660 -25.481 -13.848  0.00  0.00    -0.477 OA
ATOM     20  H   UNL     1      31.878 -25.915 -13.570  0.00  0.00    +0.295 HD
ENDBRANCH  18  19
ENDBRANCH   5  18
TORSDOF 5
ENDMDL
MODEL 4
REMARK VINA RESULT:      -6.4      1.555      4.374
REMARK  Name = 18432427
REMARK  5 active torsions:
REMARK  status: ('A' for Active; 'I' for Inactive)
REMARK    1  A    between atoms: C_4  and  C_14
REMARK    2  A    between atoms: C_5  and  C_18
REMARK    3  A    between atoms: C_6  and  N_10
REMARK    4  A    between atoms: C_14  and  O_15
REMARK    5  A    between atoms: C_18  and  O_19
REMARK                            x       y       z     vdW  Elec       q    Type
REMARK                         _______ _______ _______ _____ _____    ______ ____
ROOT
ATOM      1 BR   UNL     1      35.015 -24.506 -11.814  0.00  0.00    -0.049 Br
ATOM      2 BR   UNL     1      32.004 -23.285 -16.533  0.00  0.00    -0.047 Br
ATOM      3 BR   UNL     1      37.663 -22.422 -16.446  0.00  0.00    -0.047 Br
ATOM      4  C   UNL     1      36.113 -23.456 -14.255  0.00  0.00    +0.089 A 
ATOM      5  C   UNL     1      33.725 -23.818 -14.290  0.00  0.00    +0.089 A 
ATOM      6  C   UNL     1      34.843 -22.940 -16.244  0.00  0.00    +0.055 A 
ATOM      7  C   UNL     1      34.944 -23.869 -13.616  0.00  0.00    +0.048 A 
ATOM      8  C   UNL     1      33.674 -23.355 -15.605  0.00  0.00    +0.055 A 
ATOM      9  C   UNL     1      36.063 -22.991 -15.570  0.00  0.00    +0.055 A 
ENDROOT
BRANCH   6  10
ATOM     10  N   UNL     1      34.791 -22.469 -17.580  0.00  0.00    -0.356 N 
ATOM     11  H   UNL     1      35.623 -22.267 -18.064  0.00  0.00    +0.142 HD
ATOM     12  H   UNL     1      33.920 -22.345 -18.023  0.00  0.00    +0.142 HD
ENDBRANCH   6  10
BRANCH   4  14
ATOM     13  O   UNL     1      37.835 -22.621 -12.820  0.00  0.00    -0.245 OA
ATOM     14  C   UNL     1      37.392 -23.508 -13.547  0.00  0.00    +0.339 C 
BRANCH  14  15
ATOM     15  O   UNL     1      38.058 -24.669 -13.779  0.00  0.00    -0.477 OA
ATOM     16  H   UNL     1      37.637 -25.366 -14.243  0.00  0.00    +0.295 HD
ENDBRANCH  14  15
ENDBRANCH   4  14
BRANCH   5  18
ATOM     17  O   UNL     1      31.758 -23.526 -12.961  0.00  0.00    -0.245 OA
ATOM     18  C   UNL     1      32.498 -24.253 -13.621  0.00  0.00    +0.339 C 
BRANCH  18  19
ATOM     19  O   UNL     1      32.254 -25.575 -13.809  0.00  0.00    -0.477 OA
ATOM     20  H   UNL     1      31.505 -25.974 -13.412  0.00  0.00    +0.295 HD
ENDBRANCH  18  19
ENDBRANCH   5  18
TORSDOF 5
ENDMDL
MODEL 5
REMARK VINA RESULT:      -6.1      2.782      3.933
REMARK  Name = 18432427
REMARK  5 active torsions:
REMARK  status: ('A' for Active; 'I' for Inactive)
REMARK    1  A    between atoms: C_4  and  C_14
REMARK    2  A    between atoms: C_5  and  C_18
REMARK    3  A    between atoms: C_6  and  N_10
REMARK    4  A    between atoms: C_14  and  O_15
REMARK    5  A    between atoms: C_18  and  O_19
REMARK                            x       y       z     vdW  Elec       q    Type
REMARK                         _______ _______ _______ _____ _____    ______ ____
ROOT
ATOM      1 BR   UNL     1      36.427 -21.716 -18.863  0.00  0.00    -0.049 Br
ATOM      2 BR   UNL     1      36.424 -23.414 -13.392  0.00  0.00    -0.047 Br
ATOM      3 BR   UNL     1      31.587 -23.600 -16.447  0.00  0.00    -0.047 Br
ATOM      4  C   UNL     1      34.133 -22.698 -17.434  0.00  0.00    +0.089 A 
ATOM      5  C   UNL     1      36.175 -22.618 -16.144  0.00  0.00    +0.089 A 
ATOM      6  C   UNL     1      34.132 -23.413 -15.126  0.00  0.00    +0.055 A 
ATOM      7  C   UNL     1      35.494 -22.406 -17.343  0.00  0.00    +0.048 A 
ATOM      8  C   UNL     1      35.494 -23.122 -15.036  0.00  0.00    +0.055 A 
ATOM      9  C   UNL     1      33.452 -23.202 -16.325  0.00  0.00    +0.055 A 
ENDROOT
BRANCH   6  10
ATOM     10  N   UNL     1      33.442 -23.926 -14.000  0.00  0.00    -0.356 N 
ATOM     11  H   UNL     1      33.111 -23.313 -13.304  0.00  0.00    +0.142 HD
ATOM     12  H   UNL     1      33.292 -24.895 -13.914  0.00  0.00    +0.142 HD
ENDBRANCH   6  10
BRANCH   4  14
ATOM     13  O   UNL     1      32.703 -21.506 -18.935  0.00  0.00    -0.245 OA
ATOM     14  C   UNL     1      33.419 -22.476 -18.691  0.00  0.00    +0.339 C 
BRANCH  14  15
ATOM     15  O   UNL     1      33.635 -23.474 -19.586  0.00  0.00    -0.477 OA
ATOM     16  H   UNL     1      33.126 -24.260 -19.542  0.00  0.00    +0.295 HD
ENDBRANCH  14  15
ENDBRANCH   4  14
BRANCH   5  18
ATOM     17  O   UNL     1      38.493 -23.144 -15.879  0.00  0.00    -0.245 OA
ATOM     18  C   UNL     1      37.602 -22.313 -16.049  0.00  0.00    +0.339 C 
BRANCH  18  19
ATOM     19  O   UNL     1      37.851 -20.983 -16.171  0.00  0.00    -0.477 OA
ATOM     20  H   UNL     1      37.762 -20.565 -17.005  0.00  0.00    +0.295 HD
ENDBRANCH  18  19
ENDBRANCH   5  18
TORSDOF 5
ENDMDL
MODEL 6
REMARK VINA RESULT:      -6.1      2.782      5.056
REMARK  Name = 18432427
REMARK  5 active torsions:
REMARK  status: ('A' for Active; 'I' for Inactive)
REMARK    1  A    between atoms: C_4  and  C_14
REMARK    2  A    between atoms: C_5  and  C_18
REMARK    3  A    between atoms: C_6  and  N_10
REMARK    4  A    between atoms: C_14  and  O_15
REMARK    5  A    between atoms: C_18  and  O_19
REMARK                            x       y       z     vdW  Elec       q    Type
REMARK                         _______ _______ _______ _____ _____    ______ ____
ROOT
ATOM      1 BR   UNL     1      36.430 -21.720 -18.864  0.00  0.00    -0.049 Br
ATOM      2 BR   UNL     1      31.585 -23.597 -16.451  0.00  0.00    -0.047 Br
ATOM      3 BR   UNL     1      36.421 -23.418 -13.393  0.00  0.00    -0.047 Br
ATOM      4  C   UNL     1      36.174 -22.621 -16.145  0.00  0.00    +0.089 A 
ATOM      5  C   UNL     1      34.133 -22.699 -17.437  0.00  0.00    +0.089 A 
ATOM      6  C   UNL     1      34.130 -23.414 -15.129  0.00  0.00    +0.055 A 
ATOM      7  C   UNL     1      35.494 -22.409 -17.345  0.00  0.00    +0.048 A 
ATOM      8  C   UNL     1      33.451 -23.200 -16.329  0.00  0.00    +0.055 A 
ATOM      9  C   UNL     1      35.491 -23.124 -15.037  0.00  0.00    +0.055 A 
ENDROOT
BRANCH   6  10
ATOM     10  N   UNL     1      33.436 -23.923 -14.003  0.00  0.00    -0.356 N 
ATOM     11  H   UNL     1      32.681 -24.542 -14.129  0.00  0.00    +0.142 HD
ATOM     12  H   UNL     1      33.711 -23.658 -13.095  0.00  0.00    +0.142 HD
ENDBRANCH   6  10
BRANCH   4  14
ATOM     13  O   UNL     1      38.492 -23.152 -15.890  0.00  0.00    -0.245 OA
ATOM     14  C   UNL     1      37.601 -22.318 -16.049  0.00  0.00    +0.339 C 
BRANCH  14  15
ATOM     15  O   UNL     1      37.851 -20.988 -16.157  0.00  0.00    -0.477 OA
ATOM     16  H   UNL     1      38.543 -20.685 -16.712  0.00  0.00    +0.295 HD
ENDBRANCH  14  15
ENDBRANCH   4  14
BRANCH   5  18
ATOM     17  O   UNL     1      32.701 -21.507 -18.938  0.00  0.00    -0.245 OA
ATOM     18  C   UNL     1      33.420 -22.475 -18.695  0.00  0.00    +0.339 C 
BRANCH  18  19
ATOM     19  O   UNL     1      33.639 -23.472 -19.591  0.00  0.00    -0.477 OA
ATOM     20  H   UNL     1      34.296 -24.118 -19.421  0.00  0.00    +0.295 HD
ENDBRANCH  18  19
ENDBRANCH   5  18
TORSDOF 5
ENDMDL
MODEL 7
REMARK VINA RESULT:      -6.0      9.686     11.249
REMARK  Name = 18432427
REMARK  5 active torsions:
REMARK  status: ('A' for Active; 'I' for Inactive)
REMARK    1  A    between atoms: C_4  and  C_14
REMARK    2  A    between atoms: C_5  and  C_18
REMARK    3  A    between atoms: C_6  and  N_10
REMARK    4  A    between atoms: C_14  and  O_15
REMARK    5  A    between atoms: C_18  and  O_19
REMARK                            x       y       z     vdW  Elec       q    Type
REMARK                         _______ _______ _______ _____ _____    ______ ____
ROOT
ATOM      1 BR   UNL     1      33.435 -14.624 -20.469  0.00  0.00    -0.049 Br
ATOM      2 BR   UNL     1      35.185 -19.006 -23.718  0.00  0.00    -0.047 Br
ATOM      3 BR   UNL     1      33.213 -14.228 -26.179  0.00  0.00    -0.047 Br
ATOM      4  C   UNL     1      33.422 -14.664 -23.344  0.00  0.00    +0.089 A 
ATOM      5  C   UNL     1      34.252 -16.681 -22.305  0.00  0.00    +0.089 A 
ATOM      6  C   UNL     1      34.159 -16.513 -24.714  0.00  0.00    +0.055 A 
ATOM      7  C   UNL     1      33.730 -15.392 -22.195  0.00  0.00    +0.048 A 
ATOM      8  C   UNL     1      34.468 -17.241 -23.564  0.00  0.00    +0.055 A 
ATOM      9  C   UNL     1      33.637 -15.224 -24.604  0.00  0.00    +0.055 A 
ENDROOT
BRANCH   6  10
ATOM     10  N   UNL     1      34.378 -17.082 -25.992  0.00  0.00    -0.356 N 
ATOM     11  H   UNL     1      33.693 -16.997 -26.693  0.00  0.00    +0.142 HD
ATOM     12  H   UNL     1      35.217 -17.563 -26.179  0.00  0.00    +0.142 HD
ENDBRANCH   6  10
BRANCH   4  14
ATOM     13  O   UNL     1      33.515 -12.274 -23.375  0.00  0.00    -0.245 OA
ATOM     14  C   UNL     1      32.873 -13.313 -23.229  0.00  0.00    +0.339 C 
BRANCH  14  15
ATOM     15  O   UNL     1      31.546 -13.322 -22.939  0.00  0.00    -0.477 OA
ATOM     16  H   UNL     1      31.248 -13.024 -22.102  0.00  0.00    +0.295 HD
ENDBRANCH  14  15
ENDBRANCH   4  14
BRANCH   5  18
ATOM     17  O   UNL     1      35.607 -17.321 -20.440  0.00  0.00    -0.245 OA
ATOM     18  C   UNL     1      34.576 -17.445 -21.100  0.00  0.00    +0.339 C 
BRANCH  18  19
ATOM     19  O   UNL     1      33.597 -18.328 -20.775  0.00  0.00    -0.477 OA
ATOM     20  H   UNL     1      33.088 -18.198 -19.999  0.00  0.00    +0.295 HD
ENDBRANCH  18  19
ENDBRANCH   5  18
TORSDOF 5
ENDMDL
MODEL 8
REMARK VINA RESULT:      -6.0      9.686     11.225
REMARK  Name = 18432427
REMARK  5 active torsions:
REMARK  status: ('A' for Active; 'I' for Inactive)
REMARK    1  A    between atoms: C_4  and  C_14
REMARK    2  A    between atoms: C_5  and  C_18
REMARK    3  A    between atoms: C_6  and  N_10
REMARK    4  A    between atoms: C_14  and  O_15
REMARK    5  A    between atoms: C_18  and  O_19
REMARK                            x       y       z     vdW  Elec       q    Type
REMARK                         _______ _______ _______ _____ _____    ______ ____
ROOT
ATOM      1 BR   UNL     1      33.435 -14.626 -20.467  0.00  0.00    -0.049 Br
ATOM      2 BR   UNL     1      33.214 -14.227 -26.178  0.00  0.00    -0.047 Br
ATOM      3 BR   UNL     1      35.189 -19.004 -23.718  0.00  0.00    -0.047 Br
ATOM      4  C   UNL     1      34.254 -16.681 -22.305  0.00  0.00    +0.089 A 
ATOM      5  C   UNL     1      33.422 -14.663 -23.342  0.00  0.00    +0.089 A 
ATOM      6  C   UNL     1      34.161 -16.511 -24.713  0.00  0.00    +0.055 A 
ATOM      7  C   UNL     1      33.730 -15.392 -22.194  0.00  0.00    +0.048 A 
ATOM      8  C   UNL     1      33.637 -15.223 -24.602  0.00  0.00    +0.055 A 
ATOM      9  C   UNL     1      34.469 -17.240 -23.564  0.00  0.00    +0.055 A 
ENDROOT
BRANCH   6  10
ATOM     10  N   UNL     1      34.379 -17.079 -25.993  0.00  0.00    -0.356 N 
ATOM     11  H   UNL     1      35.279 -17.066 -26.391  0.00  0.00    +0.142 HD
ATOM     12  H   UNL     1      33.629 -17.488 -26.483  0.00  0.00    +0.142 HD
ENDBRANCH   6  10
BRANCH   4  14
ATOM     13  O   UNL     1      35.607 -17.320 -20.439  0.00  0.00    -0.245 OA
ATOM     14  C   UNL     1      34.578 -17.445 -21.100  0.00  0.00    +0.339 C 
BRANCH  14  15
ATOM     15  O   UNL     1      33.599 -18.330 -20.777  0.00  0.00    -0.477 OA
ATOM     16  H   UNL     1      33.273 -18.924 -21.424  0.00  0.00    +0.295 HD
ENDBRANCH  14  15
ENDBRANCH   4  14
BRANCH   5  18
ATOM     17  O   UNL     1      33.513 -12.273 -23.374  0.00  0.00    -0.245 OA
ATOM     18  C   UNL     1      32.872 -13.313 -23.227  0.00  0.00    +0.339 C 
BRANCH  18  19
ATOM     19  O   UNL     1      31.546 -13.324 -22.934  0.00  0.00    -0.477 OA
ATOM     20  H   UNL     1      31.192 -12.690 -22.341  0.00  0.00    +0.295 HD
ENDBRANCH  18  19
ENDBRANCH   5  18
TORSDOF 5
ENDMDL
MODEL 9
REMARK VINA RESULT:      -5.9     13.991     15.191
REMARK  Name = 18432427
REMARK  5 active torsions:
REMARK  status: ('A' for Active; 'I' for Inactive)
REMARK    1  A    between atoms: C_4  and  C_14
REMARK    2  A    between atoms: C_5  and  C_18
REMARK    3  A    between atoms: C_6  and  N_10
REMARK    4  A    between atoms: C_14  and  O_15
REMARK    5  A    between atoms: C_18  and  O_19
REMARK                            x       y       z     vdW  Elec       q    Type
REMARK                         _______ _______ _______ _____ _____    ______ ____
ROOT
ATOM      1 BR   UNL     1      31.974  -8.287 -21.239  0.00  0.00    -0.049 Br
ATOM      2 BR   UNL     1      35.270 -10.049 -25.581  0.00  0.00    -0.047 Br
ATOM      3 BR   UNL     1      32.331 -13.866 -22.487  0.00  0.00    -0.047 Br
ATOM      4  C   UNL     1      32.314 -11.023 -22.057  0.00  0.00    +0.089 A 
ATOM      5  C   UNL     1      33.556  -9.411 -23.361  0.00  0.00    +0.089 A 
ATOM      6  C   UNL     1      33.705 -11.765 -23.887  0.00  0.00    +0.055 A 
ATOM      7  C   UNL     1      32.678  -9.701 -22.316  0.00  0.00    +0.048 A 
ATOM      8  C   UNL     1      34.069 -10.443 -24.147  0.00  0.00    +0.055 A 
ATOM      9  C   UNL     1      32.828 -12.055 -22.843  0.00  0.00    +0.055 A 
ENDROOT
BRANCH   6  10
ATOM     10  N   UNL     1      34.227 -12.813 -24.687  0.00  0.00    -0.356 N 
ATOM     11  H   UNL     1      33.756 -13.676 -24.735  0.00  0.00    +0.142 HD
ATOM     12  H   UNL     1      35.060 -12.676 -25.194  0.00  0.00    +0.142 HD
ENDBRANCH   6  10
BRANCH   4  14
ATOM     13  O   UNL     1      31.724 -11.502 -19.789  0.00  0.00    -0.245 OA
ATOM     14  C   UNL     1      31.394 -11.327 -20.961  0.00  0.00    +0.339 C 
BRANCH  14  15
ATOM     15  O   UNL     1      30.104 -11.396 -21.379  0.00  0.00    -0.477 OA
ATOM     16  H   UNL     1      29.718 -12.229 -21.567  0.00  0.00    +0.295 HD
ENDBRANCH  14  15
ENDBRANCH   4  14
BRANCH   5  18
ATOM     17  O   UNL     1      33.295  -7.239 -24.328  0.00  0.00    -0.245 OA
ATOM     18  C   UNL     1      33.937  -8.026 -23.634  0.00  0.00    +0.339 C 
BRANCH  18  19
ATOM     19  O   UNL     1      35.103  -7.687 -23.026  0.00  0.00    -0.477 OA
ATOM     20  H   UNL     1      35.116  -7.003 -22.385  0.00  0.00    +0.295 HD
ENDBRANCH  18  19
ENDBRANCH   5  18
TORSDOF 5
ENDMDL
