MODEL 1
REMARK VINA RESULT:     -11.4      0.000      0.000
REMARK  Name = 25102779
REMARK  5 active torsions:
REMARK  status: ('A' for Active; 'I' for Inactive)
REMARK    1  A    between atoms: C_2  and  C_18
REMARK    2  A    between atoms: C_5  and  O_8
REMARK    3  A    between atoms: O_8  and  C_9
REMARK    4  A    between atoms: C_14  and  C_17
REMARK    5  A    between atoms: C_18  and  C_23
REMARK                            x       y       z     vdW  Elec       q    Type
REMARK                         _______ _______ _______ _____ _____    ______ ____
ROOT
ATOM      1 BR   UNL     1      33.149 -15.136 -25.991  0.00  0.00    -0.046 Br
ATOM      2  C   UNL     1      34.744 -16.456 -22.388  0.00  0.00    -0.016 C 
ATOM      3  C   UNL     1      34.404 -16.329 -23.735  0.00  0.00    +0.006 C 
ATOM      4  C   UNL     1      34.270 -15.529 -21.459  0.00  0.00    -0.001 C 
ATOM      5  C   UNL     1      33.117 -14.350 -23.224  0.00  0.00    +0.151 C 
ATOM      6  C   UNL     1      33.591 -15.277 -24.152  0.00  0.00    +0.069 C 
ATOM      7  C   UNL     1      33.456 -14.476 -21.877  0.00  0.00    +0.038 C 
ENDROOT
BRANCH   5   8
ATOM      8  O   UNL     1      32.319 -13.309 -23.600  0.00  0.00    -0.453 OA
BRANCH   8   9
ATOM      9  C   UNL     1      32.897 -12.053 -23.676  0.00  0.00    +0.146 C 
ATOM     10  C   UNL     1      34.490 -10.542 -24.681  0.00  0.00    -0.018 C 
ATOM     11  C   UNL     1      33.909 -11.807 -24.604  0.00  0.00    +0.033 C 
ATOM     12  C   UNL     1      32.467 -11.036 -22.825  0.00  0.00    +0.048 C 
ATOM     13  C   UNL     1      34.061  -9.524 -23.830  0.00  0.00    +0.006 C 
ATOM     14  C   UNL     1      33.050  -9.770 -22.903  0.00  0.00    +0.071 C 
ATOM     15  C   UNL     1      35.572 -10.279 -25.674  0.00  0.00    +0.031 C 
BRANCH  14  17
ATOM     16  N   UNL     1      32.252  -7.880 -21.323  0.00  0.00    -0.191 NA
ATOM     17  C   UNL     1      32.610  -8.727 -22.031  0.00  0.00    +0.101 C 
ENDBRANCH  14  17
ENDBRANCH   8   9
ENDBRANCH   5   8
BRANCH   2  18
ATOM     18  C   UNL     1      35.631 -17.605 -21.930  0.00  0.00    +0.070 C 
BRANCH  18  23
ATOM     19  N   UNL     1      33.544 -18.844 -21.395  0.00  0.00    -0.231 N 
ATOM     20  N   UNL     1      33.036 -19.930 -20.776  0.00  0.00    -0.126 NA
ATOM     21  N   UNL     1      34.183 -21.687 -19.557  0.00  0.00    -0.103 NA
ATOM     22  N   UNL     1      35.443 -22.052 -19.191  0.00  0.00    -0.107 NA
ATOM     23  C   UNL     1      34.906 -18.731 -21.313  0.00  0.00    +0.057 C 
ATOM     24  C   UNL     1      35.305 -19.822 -20.590  0.00  0.00    +0.078 C 
ATOM     25  C   UNL     1      34.118 -20.538 -20.278  0.00  0.00    +0.072 C 
ATOM     26  C   UNL     1      36.603 -20.135 -20.250  0.00  0.00    +0.031 C 
ATOM     27  C   UNL     1      36.564 -21.317 -19.521  0.00  0.00    +0.110 C 
ATOM     28  H   UNL     1      32.982 -18.186 -21.865  0.00  0.00    +0.175 HD
ENDBRANCH  18  23
ENDBRANCH   2  18
TORSDOF 5
ENDMDL
MODEL 2
REMARK VINA RESULT:     -10.8      1.559      2.201
REMARK  Name = 25102779
REMARK  5 active torsions:
REMARK  status: ('A' for Active; 'I' for Inactive)
REMARK    1  A    between atoms: C_2  and  C_18
REMARK    2  A    between atoms: C_5  and  O_8
REMARK    3  A    between atoms: O_8  and  C_9
REMARK    4  A    between atoms: C_14  and  C_17
REMARK    5  A    between atoms: C_18  and  C_23
REMARK                            x       y       z     vdW  Elec       q    Type
REMARK                         _______ _______ _______ _____ _____    ______ ____
ROOT
ATOM      1 BR   UNL     1      32.942 -14.414 -20.336  0.00  0.00    -0.046 Br
ATOM      2  C   UNL     1      35.278 -16.934 -22.672  0.00  0.00    -0.016 C 
ATOM      3  C   UNL     1      34.690 -16.271 -21.595  0.00  0.00    +0.006 C 
ATOM      4  C   UNL     1      34.894 -16.623 -23.976  0.00  0.00    -0.001 C 
ATOM      5  C   UNL     1      33.336 -14.984 -23.127  0.00  0.00    +0.151 C 
ATOM      6  C   UNL     1      33.720 -15.296 -21.823  0.00  0.00    +0.069 C 
ATOM      7  C   UNL     1      33.923 -15.648 -24.204  0.00  0.00    +0.038 C 
ENDROOT
BRANCH   5   8
ATOM      8  O   UNL     1      32.390 -14.036 -23.384  0.00  0.00    -0.453 OA
BRANCH   8   9
ATOM      9  C   UNL     1      32.819 -12.731 -23.555  0.00  0.00    +0.146 C 
ATOM     10  C   UNL     1      34.170 -11.111 -24.730  0.00  0.00    -0.018 C 
ATOM     11  C   UNL     1      33.738 -12.425 -24.558  0.00  0.00    +0.033 C 
ATOM     12  C   UNL     1      32.332 -11.723 -22.723  0.00  0.00    +0.048 C 
ATOM     13  C   UNL     1      33.684 -10.102 -23.898  0.00  0.00    +0.006 C 
ATOM     14  C   UNL     1      32.765 -10.408 -22.895  0.00  0.00    +0.071 C 
ATOM     15  C   UNL     1      35.153 -10.784 -25.803  0.00  0.00    +0.031 C 
BRANCH  14  17
ATOM     16  N   UNL     1      31.862  -8.536 -21.351  0.00  0.00    -0.191 NA
ATOM     17  C   UNL     1      32.267  -9.375 -22.043  0.00  0.00    +0.101 C 
ENDBRANCH  14  17
ENDBRANCH   8   9
ENDBRANCH   5   8
BRANCH   2  18
ATOM     18  C   UNL     1      36.339 -17.998 -22.425  0.00  0.00    +0.070 C 
BRANCH  18  23
ATOM     19  N   UNL     1      36.920 -19.466 -20.507  0.00  0.00    -0.231 N 
ATOM     20  N   UNL     1      36.438 -20.362 -19.620  0.00  0.00    -0.126 NA
ATOM     21  N   UNL     1      34.183 -21.222 -19.368  0.00  0.00    -0.103 NA
ATOM     22  N   UNL     1      32.949 -21.095 -19.930  0.00  0.00    -0.107 NA
ATOM     23  C   UNL     1      35.989 -18.983 -21.386  0.00  0.00    +0.057 C 
ATOM     24  C   UNL     1      34.823 -19.611 -21.042  0.00  0.00    +0.078 C 
ATOM     25  C   UNL     1      35.145 -20.454 -19.945  0.00  0.00    +0.072 C 
ATOM     26  C   UNL     1      33.601 -19.438 -21.655  0.00  0.00    +0.031 C 
ATOM     27  C   UNL     1      32.691 -20.258 -20.998  0.00  0.00    +0.110 C 
ATOM     28  H   UNL     1      37.864 -19.186 -20.521  0.00  0.00    +0.175 HD
ENDBRANCH  18  23
ENDBRANCH   2  18
TORSDOF 5
ENDMDL
MODEL 3
REMARK VINA RESULT:     -10.8      2.020      3.040
REMARK  Name = 25102779
REMARK  5 active torsions:
REMARK  status: ('A' for Active; 'I' for Inactive)
REMARK    1  A    between atoms: C_2  and  C_18
REMARK    2  A    between atoms: C_5  and  O_8
REMARK    3  A    between atoms: O_8  and  C_9
REMARK    4  A    between atoms: C_14  and  C_17
REMARK    5  A    between atoms: C_18  and  C_23
REMARK                            x       y       z     vdW  Elec       q    Type
REMARK                         _______ _______ _______ _____ _____    ______ ____
ROOT
ATOM      1 BR   UNL     1      32.755 -14.567 -20.207  0.00  0.00    -0.046 Br
ATOM      2  C   UNL     1      35.270 -16.958 -22.493  0.00  0.00    -0.016 C 
ATOM      3  C   UNL     1      34.619 -16.335 -21.429  0.00  0.00    +0.006 C 
ATOM      4  C   UNL     1      34.921 -16.642 -23.806  0.00  0.00    -0.001 C 
ATOM      5  C   UNL     1      33.270 -15.079 -22.990  0.00  0.00    +0.151 C 
ATOM      6  C   UNL     1      33.619 -15.395 -21.678  0.00  0.00    +0.069 C 
ATOM      7  C   UNL     1      33.921 -15.702 -24.055  0.00  0.00    +0.038 C 
ENDROOT
BRANCH   5   8
ATOM      8  O   UNL     1      32.297 -14.164 -23.268  0.00  0.00    -0.453 OA
BRANCH   8   9
ATOM      9  C   UNL     1      32.677 -12.838 -23.386  0.00  0.00    +0.146 C 
ATOM     10  C   UNL     1      32.516 -10.543 -22.652  0.00  0.00    -0.018 C 
ATOM     11  C   UNL     1      32.133 -11.879 -22.533  0.00  0.00    +0.033 C 
ATOM     12  C   UNL     1      33.604 -12.463 -24.359  0.00  0.00    +0.048 C 
ATOM     13  C   UNL     1      33.442 -10.167 -23.625  0.00  0.00    +0.006 C 
ATOM     14  C   UNL     1      33.986 -11.126 -24.478  0.00  0.00    +0.071 C 
ATOM     15  C   UNL     1      31.934  -9.517 -21.739  0.00  0.00    +0.031 C 
BRANCH  14  17
ATOM     16  N   UNL     1      35.705 -10.427 -26.284  0.00  0.00    -0.191 NA
ATOM     17  C   UNL     1      34.935 -10.741 -25.474  0.00  0.00    +0.101 C 
ENDBRANCH  14  17
ENDBRANCH   8   9
ENDBRANCH   5   8
BRANCH   2  18
ATOM     18  C   UNL     1      36.363 -17.984 -22.223  0.00  0.00    +0.070 C 
BRANCH  18  23
ATOM     19  N   UNL     1      36.922 -19.574 -20.398  0.00  0.00    -0.231 N 
ATOM     20  N   UNL     1      36.426 -20.515 -19.566  0.00  0.00    -0.126 NA
ATOM     21  N   UNL     1      34.158 -21.356 -19.367  0.00  0.00    -0.103 NA
ATOM     22  N   UNL     1      32.926 -21.176 -19.920  0.00  0.00    -0.107 NA
ATOM     23  C   UNL     1      35.998 -19.025 -21.245  0.00  0.00    +0.057 C 
ATOM     24  C   UNL     1      34.823 -19.655 -20.940  0.00  0.00    +0.078 C 
ATOM     25  C   UNL     1      35.131 -20.569 -19.896  0.00  0.00    +0.072 C 
ATOM     26  C   UNL     1      33.604 -19.428 -21.541  0.00  0.00    +0.031 C 
ATOM     27  C   UNL     1      32.682 -20.273 -20.934  0.00  0.00    +0.110 C 
ATOM     28  H   UNL     1      37.869 -19.307 -20.395  0.00  0.00    +0.175 HD
ENDBRANCH  18  23
ENDBRANCH   2  18
TORSDOF 5
ENDMDL
MODEL 4
REMARK VINA RESULT:     -10.8      2.159      8.953
REMARK  Name = 25102779
REMARK  5 active torsions:
REMARK  status: ('A' for Active; 'I' for Inactive)
REMARK    1  A    between atoms: C_2  and  C_18
REMARK    2  A    between atoms: C_5  and  O_8
REMARK    3  A    between atoms: O_8  and  C_9
REMARK    4  A    between atoms: C_14  and  C_17
REMARK    5  A    between atoms: C_18  and  C_23
REMARK                            x       y       z     vdW  Elec       q    Type
REMARK                         _______ _______ _______ _____ _____    ______ ____
ROOT
ATOM      1 BR   UNL     1      33.406 -14.112 -25.426  0.00  0.00    -0.046 Br
ATOM      2  C   UNL     1      32.271 -13.146 -21.547  0.00  0.00    -0.016 C 
ATOM      3  C   UNL     1      32.337 -13.246 -22.937  0.00  0.00    +0.006 C 
ATOM      4  C   UNL     1      33.216 -13.799 -20.756  0.00  0.00    -0.001 C 
ATOM      5  C   UNL     1      34.292 -14.652 -22.743  0.00  0.00    +0.151 C 
ATOM      6  C   UNL     1      33.347 -13.999 -23.534  0.00  0.00    +0.069 C 
ATOM      7  C   UNL     1      34.226 -14.552 -21.353  0.00  0.00    +0.038 C 
ENDROOT
BRANCH   5   8
ATOM      8  O   UNL     1      35.292 -15.395 -23.296  0.00  0.00    -0.453 OA
BRANCH   8   9
ATOM      9  C   UNL     1      35.173 -16.774 -23.241  0.00  0.00    +0.146 C 
ATOM     10  C   UNL     1      34.564 -18.864 -24.287  0.00  0.00    -0.018 C 
ATOM     11  C   UNL     1      34.684 -17.476 -24.342  0.00  0.00    +0.033 C 
ATOM     12  C   UNL     1      35.542 -17.459 -22.084  0.00  0.00    +0.048 C 
ATOM     13  C   UNL     1      34.932 -19.550 -23.130  0.00  0.00    +0.006 C 
ATOM     14  C   UNL     1      35.421 -18.848 -22.029  0.00  0.00    +0.071 C 
ATOM     15  C   UNL     1      34.041 -19.614 -25.465  0.00  0.00    +0.031 C 
BRANCH  14  17
ATOM     16  N   UNL     1      36.106 -20.123 -19.881  0.00  0.00    -0.191 NA
ATOM     17  C   UNL     1      35.799 -19.551 -20.844  0.00  0.00    +0.101 C 
ENDBRANCH  14  17
ENDBRANCH   8   9
ENDBRANCH   5   8
BRANCH   2  18
ATOM     18  C   UNL     1      31.169 -12.324 -20.893  0.00  0.00    +0.070 C 
BRANCH  18  23
ATOM     19  N   UNL     1      31.880 -10.640 -19.210  0.00  0.00    -0.231 N 
ATOM     20  N   UNL     1      32.226  -9.349 -19.022  0.00  0.00    -0.126 NA
ATOM     21  N   UNL     1      32.378  -7.542 -20.634  0.00  0.00    -0.103 NA
ATOM     22  N   UNL     1      32.198  -7.314 -21.965  0.00  0.00    -0.107 NA
ATOM     23  C   UNL     1      31.571 -10.960 -20.504  0.00  0.00    +0.057 C 
ATOM     24  C   UNL     1      31.731  -9.794 -21.201  0.00  0.00    +0.078 C 
ATOM     25  C   UNL     1      32.137  -8.822 -20.247  0.00  0.00    +0.072 C 
ATOM     26  C   UNL     1      31.530  -9.627 -22.554  0.00  0.00    +0.031 C 
ATOM     27  C   UNL     1      31.802  -8.296 -22.850  0.00  0.00    +0.110 C 
ATOM     28  H   UNL     1      31.849 -11.296 -18.476  0.00  0.00    +0.175 HD
ENDBRANCH  18  23
ENDBRANCH   2  18
TORSDOF 5
ENDMDL
MODEL 5
REMARK VINA RESULT:     -10.8      1.356      2.123
REMARK  Name = 25102779
REMARK  5 active torsions:
REMARK  status: ('A' for Active; 'I' for Inactive)
REMARK    1  A    between atoms: C_2  and  C_18
REMARK    2  A    between atoms: C_5  and  O_8
REMARK    3  A    between atoms: O_8  and  C_9
REMARK    4  A    between atoms: C_14  and  C_17
REMARK    5  A    between atoms: C_18  and  C_23
REMARK                            x       y       z     vdW  Elec       q    Type
REMARK                         _______ _______ _______ _____ _____    ______ ____
ROOT
ATOM      1 BR   UNL     1      33.406 -15.525 -25.874  0.00  0.00    -0.046 Br
ATOM      2  C   UNL     1      34.693 -16.666 -22.091  0.00  0.00    -0.016 C 
ATOM      3  C   UNL     1      34.481 -16.595 -23.468  0.00  0.00    +0.006 C 
ATOM      4  C   UNL     1      34.095 -15.732 -21.245  0.00  0.00    -0.001 C 
ATOM      5  C   UNL     1      33.074 -14.657 -23.152  0.00  0.00    +0.151 C 
ATOM      6  C   UNL     1      33.672 -15.591 -23.998  0.00  0.00    +0.069 C 
ATOM      7  C   UNL     1      33.286 -14.727 -21.775  0.00  0.00    +0.038 C 
ENDROOT
BRANCH   5   8
ATOM      8  O   UNL     1      32.277 -13.663 -23.639  0.00  0.00    -0.453 OA
BRANCH   8   9
ATOM      9  C   UNL     1      32.802 -12.382 -23.680  0.00  0.00    +0.146 C 
ATOM     10  C   UNL     1      32.890 -10.129 -22.816  0.00  0.00    -0.018 C 
ATOM     11  C   UNL     1      32.362 -11.418 -22.774  0.00  0.00    +0.033 C 
ATOM     12  C   UNL     1      33.771 -12.057 -24.630  0.00  0.00    +0.048 C 
ATOM     13  C   UNL     1      33.858  -9.802 -23.765  0.00  0.00    +0.006 C 
ATOM     14  C   UNL     1      34.299 -10.766 -24.671  0.00  0.00    +0.071 C 
ATOM     15  C   UNL     1      32.418  -9.098 -21.846  0.00  0.00    +0.031 C 
BRANCH  14  17
ATOM     16  N   UNL     1      36.097 -10.160 -26.435  0.00  0.00    -0.191 NA
ATOM     17  C   UNL     1      35.291 -10.431 -25.644  0.00  0.00    +0.101 C 
ENDBRANCH  14  17
ENDBRANCH   8   9
ENDBRANCH   5   8
BRANCH   2  18
ATOM     18  C   UNL     1      35.575 -17.763 -21.511  0.00  0.00    +0.070 C 
BRANCH  18  23
ATOM     19  N   UNL     1      33.482 -19.046 -21.123  0.00  0.00    -0.231 N 
ATOM     20  N   UNL     1      32.964 -20.171 -20.588  0.00  0.00    -0.126 NA
ATOM     21  N   UNL     1      34.084 -21.988 -19.435  0.00  0.00    -0.103 NA
ATOM     22  N   UNL     1      35.334 -22.365 -19.047  0.00  0.00    -0.107 NA
ATOM     23  C   UNL     1      34.839 -18.928 -20.987  0.00  0.00    +0.057 C 
ATOM     24  C   UNL     1      35.223 -20.057 -20.317  0.00  0.00    +0.078 C 
ATOM     25  C   UNL     1      34.033 -20.798 -20.089  0.00  0.00    +0.072 C 
ATOM     26  C   UNL     1      36.512 -20.380 -19.951  0.00  0.00    +0.031 C 
ATOM     27  C   UNL     1      36.459 -21.604 -19.295  0.00  0.00    +0.110 C 
ATOM     28  H   UNL     1      32.930 -18.365 -21.573  0.00  0.00    +0.175 HD
ENDBRANCH  18  23
ENDBRANCH   2  18
TORSDOF 5
ENDMDL
MODEL 6
REMARK VINA RESULT:     -10.7      4.309     10.270
REMARK  Name = 25102779
REMARK  5 active torsions:
REMARK  status: ('A' for Active; 'I' for Inactive)
REMARK    1  A    between atoms: C_2  and  C_18
REMARK    2  A    between atoms: C_5  and  O_8
REMARK    3  A    between atoms: O_8  and  C_9
REMARK    4  A    between atoms: C_14  and  C_17
REMARK    5  A    between atoms: C_18  and  C_23
REMARK                            x       y       z     vdW  Elec       q    Type
REMARK                         _______ _______ _______ _____ _____    ______ ____
ROOT
ATOM      1 BR   UNL     1      37.034 -21.664 -19.899  0.00  0.00    -0.046 Br
ATOM      2  C   UNL     1      34.422 -18.634 -21.023  0.00  0.00    -0.016 C 
ATOM      3  C   UNL     1      35.569 -19.377 -20.742  0.00  0.00    +0.006 C 
ATOM      4  C   UNL     1      33.162 -19.199 -20.833  0.00  0.00    -0.001 C 
ATOM      5  C   UNL     1      34.194 -21.249 -20.080  0.00  0.00    +0.151 C 
ATOM      6  C   UNL     1      35.454 -20.684 -20.270  0.00  0.00    +0.069 C 
ATOM      7  C   UNL     1      33.047 -20.507 -20.361  0.00  0.00    +0.038 C 
ENDROOT
BRANCH   5   8
ATOM      8  O   UNL     1      34.047 -22.525 -19.620  0.00  0.00    -0.453 OA
BRANCH   8   9
ATOM      9  C   UNL     1      33.862 -22.699 -18.259  0.00  0.00    +0.146 C 
ATOM     10  C   UNL     1      32.385 -22.983 -16.369  0.00  0.00    -0.018 C 
ATOM     11  C   UNL     1      32.572 -22.808 -17.739  0.00  0.00    +0.033 C 
ATOM     12  C   UNL     1      34.965 -22.766 -17.408  0.00  0.00    +0.048 C 
ATOM     13  C   UNL     1      33.488 -23.049 -15.517  0.00  0.00    +0.006 C 
ATOM     14  C   UNL     1      34.777 -22.941 -16.037  0.00  0.00    +0.071 C 
ATOM     15  C   UNL     1      31.006 -23.099 -15.814  0.00  0.00    +0.031 C 
BRANCH  14  17
ATOM     16  N   UNL     1      36.825 -23.065 -14.456  0.00  0.00    -0.191 NA
ATOM     17  C   UNL     1      35.907 -23.009 -15.165  0.00  0.00    +0.101 C 
ENDBRANCH  14  17
ENDBRANCH   8   9
ENDBRANCH   5   8
BRANCH   2  18
ATOM     18  C   UNL     1      34.546 -17.206 -21.537  0.00  0.00    +0.070 C 
BRANCH  18  23
ATOM     19  N   UNL     1      34.804 -18.068 -23.852  0.00  0.00    -0.231 N 
ATOM     20  N   UNL     1      34.630 -17.782 -25.160  0.00  0.00    -0.126 NA
ATOM     21  N   UNL     1      33.749 -15.772 -26.195  0.00  0.00    -0.103 NA
ATOM     22  N   UNL     1      33.255 -14.551 -25.849  0.00  0.00    -0.107 NA
ATOM     23  C   UNL     1      34.424 -17.068 -22.999  0.00  0.00    +0.057 C 
ATOM     24  C   UNL     1      33.973 -16.066 -23.813  0.00  0.00    +0.078 C 
ATOM     25  C   UNL     1      34.117 -16.548 -25.142  0.00  0.00    +0.072 C 
ATOM     26  C   UNL     1      33.484 -14.846 -23.398  0.00  0.00    +0.031 C 
ATOM     27  C   UNL     1      33.137 -14.132 -24.539  0.00  0.00    +0.110 C 
ATOM     28  H   UNL     1      35.175 -18.925 -23.539  0.00  0.00    +0.175 HD
ENDBRANCH  18  23
ENDBRANCH   2  18
TORSDOF 5
ENDMDL
MODEL 7
REMARK VINA RESULT:     -10.7      4.382     10.180
REMARK  Name = 25102779
REMARK  5 active torsions:
REMARK  status: ('A' for Active; 'I' for Inactive)
REMARK    1  A    between atoms: C_2  and  C_18
REMARK    2  A    between atoms: C_5  and  O_8
REMARK    3  A    between atoms: O_8  and  C_9
REMARK    4  A    between atoms: C_14  and  C_17
REMARK    5  A    between atoms: C_18  and  C_23
REMARK                            x       y       z     vdW  Elec       q    Type
REMARK                         _______ _______ _______ _____ _____    ______ ____
ROOT
ATOM      1 BR   UNL     1      36.797 -21.842 -19.840  0.00  0.00    -0.046 Br
ATOM      2  C   UNL     1      34.328 -18.686 -20.938  0.00  0.00    -0.016 C 
ATOM      3  C   UNL     1      35.439 -19.484 -20.667  0.00  0.00    +0.006 C 
ATOM      4  C   UNL     1      33.043 -19.189 -20.739  0.00  0.00    -0.001 C 
ATOM      5  C   UNL     1      33.979 -21.289 -19.998  0.00  0.00    +0.151 C 
ATOM      6  C   UNL     1      35.264 -20.786 -20.198  0.00  0.00    +0.069 C 
ATOM      7  C   UNL     1      32.868 -20.490 -20.269  0.00  0.00    +0.038 C 
ENDROOT
BRANCH   5   8
ATOM      8  O   UNL     1      33.774 -22.557 -19.540  0.00  0.00    -0.453 OA
BRANCH   8   9
ATOM      9  C   UNL     1      33.615 -22.728 -18.175  0.00  0.00    +0.146 C 
ATOM     10  C   UNL     1      34.574 -23.012 -15.977  0.00  0.00    -0.018 C 
ATOM     11  C   UNL     1      34.734 -22.840 -17.351  0.00  0.00    +0.033 C 
ATOM     12  C   UNL     1      32.335 -22.789 -17.625  0.00  0.00    +0.048 C 
ATOM     13  C   UNL     1      33.294 -23.074 -15.426  0.00  0.00    +0.006 C 
ATOM     14  C   UNL     1      32.175 -22.962 -16.250  0.00  0.00    +0.071 C 
ATOM     15  C   UNL     1      35.772 -23.131 -15.096  0.00  0.00    +0.031 C 
BRANCH  14  17
ATOM     16  N   UNL     1      29.799 -23.077 -15.226  0.00  0.00    -0.191 NA
ATOM     17  C   UNL     1      30.864 -23.025 -15.686  0.00  0.00    +0.101 C 
ENDBRANCH  14  17
ENDBRANCH   8   9
ENDBRANCH   5   8
BRANCH   2  18
ATOM     18  C   UNL     1      34.517 -17.264 -21.450  0.00  0.00    +0.070 C 
BRANCH  18  23
ATOM     19  N   UNL     1      34.851 -18.117 -23.759  0.00  0.00    -0.231 N 
ATOM     20  N   UNL     1      34.709 -17.830 -25.071  0.00  0.00    -0.126 NA
ATOM     21  N   UNL     1      33.830 -15.829 -26.125  0.00  0.00    -0.103 NA
ATOM     22  N   UNL     1      33.309 -14.616 -25.790  0.00  0.00    -0.107 NA
ATOM     23  C   UNL     1      34.434 -17.124 -22.915  0.00  0.00    +0.057 C 
ATOM     24  C   UNL     1      33.992 -16.126 -23.739  0.00  0.00    +0.078 C 
ATOM     25  C   UNL     1      34.179 -16.603 -25.064  0.00  0.00    +0.072 C 
ATOM     26  C   UNL     1      33.474 -14.914 -23.334  0.00  0.00    +0.031 C 
ATOM     27  C   UNL     1      33.149 -14.202 -24.483  0.00  0.00    +0.110 C 
ATOM     28  H   UNL     1      35.225 -18.969 -23.438  0.00  0.00    +0.175 HD
ENDBRANCH  18  23
ENDBRANCH   2  18
TORSDOF 5
ENDMDL
MODEL 8
REMARK VINA RESULT:     -10.7      1.372      2.305
REMARK  Name = 25102779
REMARK  5 active torsions:
REMARK  status: ('A' for Active; 'I' for Inactive)
REMARK    1  A    between atoms: C_2  and  C_18
REMARK    2  A    between atoms: C_5  and  O_8
REMARK    3  A    between atoms: O_8  and  C_9
REMARK    4  A    between atoms: C_14  and  C_17
REMARK    5  A    between atoms: C_18  and  C_23
REMARK                            x       y       z     vdW  Elec       q    Type
REMARK                         _______ _______ _______ _____ _____    ______ ____
ROOT
ATOM      1 BR   UNL     1      33.120 -14.566 -25.468  0.00  0.00    -0.046 Br
ATOM      2  C   UNL     1      34.396 -16.233 -21.881  0.00  0.00    -0.016 C 
ATOM      3  C   UNL     1      34.205 -15.955 -23.235  0.00  0.00    +0.006 C 
ATOM      4  C   UNL     1      33.741 -15.472 -20.913  0.00  0.00    -0.001 C 
ATOM      5  C   UNL     1      32.701 -14.156 -22.652  0.00  0.00    +0.151 C 
ATOM      6  C   UNL     1      33.357 -14.916 -23.619  0.00  0.00    +0.069 C 
ATOM      7  C   UNL     1      32.893 -14.434 -21.298  0.00  0.00    +0.038 C 
ENDROOT
BRANCH   5   8
ATOM      8  O   UNL     1      31.866 -13.134 -22.995  0.00  0.00    -0.453 OA
BRANCH   8   9
ATOM      9  C   UNL     1      31.945 -11.965 -22.257  0.00  0.00    +0.146 C 
ATOM     10  C   UNL     1      31.639 -10.783 -20.173  0.00  0.00    -0.018 C 
ATOM     11  C   UNL     1      31.559 -11.959 -20.917  0.00  0.00    +0.033 C 
ATOM     12  C   UNL     1      32.410 -10.794 -22.854  0.00  0.00    +0.048 C 
ATOM     13  C   UNL     1      32.103  -9.610 -20.770  0.00  0.00    +0.006 C 
ATOM     14  C   UNL     1      32.489  -9.616 -22.110  0.00  0.00    +0.071 C 
ATOM     15  C   UNL     1      31.226 -10.777 -18.740  0.00  0.00    +0.031 C 
BRANCH  14  17
ATOM     16  N   UNL     1      33.353  -7.440 -23.218  0.00  0.00    -0.191 NA
ATOM     17  C   UNL     1      32.965  -8.416 -22.721  0.00  0.00    +0.101 C 
ENDBRANCH  14  17
ENDBRANCH   8   9
ENDBRANCH   5   8
BRANCH   2  18
ATOM     18  C   UNL     1      35.320 -17.367 -21.459  0.00  0.00    +0.070 C 
BRANCH  18  23
ATOM     19  N   UNL     1      33.265 -18.707 -21.072  0.00  0.00    -0.231 N 
ATOM     20  N   UNL     1      32.788 -19.889 -20.628  0.00  0.00    -0.126 NA
ATOM     21  N   UNL     1      33.991 -21.808 -19.757  0.00  0.00    -0.103 NA
ATOM     22  N   UNL     1      35.267 -22.211 -19.498  0.00  0.00    -0.107 NA
ATOM     23  C   UNL     1      34.627 -18.590 -21.017  0.00  0.00    +0.057 C 
ATOM     24  C   UNL     1      35.060 -19.780 -20.500  0.00  0.00    +0.078 C 
ATOM     25  C   UNL     1      33.891 -20.555 -20.274  0.00  0.00    +0.072 C 
ATOM     26  C   UNL     1      36.373 -20.127 -20.259  0.00  0.00    +0.031 C 
ATOM     27  C   UNL     1      36.369 -21.415 -19.738  0.00  0.00    +0.110 C 
ATOM     28  H   UNL     1      32.680 -17.989 -21.407  0.00  0.00    +0.175 HD
ENDBRANCH  18  23
ENDBRANCH   2  18
TORSDOF 5
ENDMDL
MODEL 9
REMARK VINA RESULT:     -10.6      3.734     10.505
REMARK  Name = 25102779
REMARK  5 active torsions:
REMARK  status: ('A' for Active; 'I' for Inactive)
REMARK    1  A    between atoms: C_2  and  C_18
REMARK    2  A    between atoms: C_5  and  O_8
REMARK    3  A    between atoms: O_8  and  C_9
REMARK    4  A    between atoms: C_14  and  C_17
REMARK    5  A    between atoms: C_18  and  C_23
REMARK                            x       y       z     vdW  Elec       q    Type
REMARK                         _______ _______ _______ _____ _____    ______ ____
ROOT
ATOM      1 BR   UNL     1      30.822 -11.166 -20.967  0.00  0.00    -0.046 Br
ATOM      2  C   UNL     1      33.637  -9.110 -23.229  0.00  0.00    -0.016 C 
ATOM      3  C   UNL     1      32.675  -9.453 -22.279  0.00  0.00    +0.006 C 
ATOM      4  C   UNL     1      34.050 -10.050 -24.173  0.00  0.00    -0.001 C 
ATOM      5  C   UNL     1      32.541 -11.675 -23.216  0.00  0.00    +0.151 C 
ATOM      6  C   UNL     1      32.127 -10.735 -22.273  0.00  0.00    +0.069 C 
ATOM      7  C   UNL     1      33.503 -11.332 -24.167  0.00  0.00    +0.038 C 
ENDROOT
BRANCH   5   8
ATOM      8  O   UNL     1      32.025 -12.937 -23.238  0.00  0.00    -0.453 OA
BRANCH   8   9
ATOM      9  C   UNL     1      32.898 -13.991 -23.028  0.00  0.00    +0.146 C 
ATOM     10  C   UNL     1      34.264 -15.309 -21.535  0.00  0.00    -0.018 C 
ATOM     11  C   UNL     1      33.385 -14.248 -21.747  0.00  0.00    +0.033 C 
ATOM     12  C   UNL     1      33.291 -14.794 -24.098  0.00  0.00    +0.048 C 
ATOM     13  C   UNL     1      34.658 -16.113 -22.605  0.00  0.00    +0.006 C 
ATOM     14  C   UNL     1      34.171 -15.856 -23.886  0.00  0.00    +0.071 C 
ATOM     15  C   UNL     1      34.785 -15.584 -20.165  0.00  0.00    +0.031 C 
BRANCH  14  17
ATOM     16  N   UNL     1      34.901 -17.350 -25.872  0.00  0.00    -0.191 NA
ATOM     17  C   UNL     1      34.574 -16.680 -24.982  0.00  0.00    +0.101 C 
ENDBRANCH  14  17
ENDBRANCH   8   9
ENDBRANCH   5   8
BRANCH   2  18
ATOM     18  C   UNL     1      34.234  -7.710 -23.238  0.00  0.00    +0.070 C 
BRANCH  18  23
ATOM     19  N   UNL     1      33.389  -6.144 -24.972  0.00  0.00    -0.231 N 
ATOM     20  N   UNL     1      32.479  -5.183 -25.239  0.00  0.00    -0.126 NA
ATOM     21  N   UNL     1      30.757  -4.249 -23.806  0.00  0.00    -0.103 NA
ATOM     22  N   UNL     1      30.270  -4.377 -22.541  0.00  0.00    -0.107 NA
ATOM     23  C   UNL     1      33.317  -6.655 -23.704  0.00  0.00    +0.057 C 
ATOM     24  C   UNL     1      32.288  -5.976 -23.111  0.00  0.00    +0.078 C 
ATOM     25  C   UNL     1      31.797  -5.076 -24.094  0.00  0.00    +0.072 C 
ATOM     26  C   UNL     1      31.842  -6.152 -21.818  0.00  0.00    +0.031 C 
ATOM     27  C   UNL     1      30.786  -5.270 -21.623  0.00  0.00    +0.110 C 
ATOM     28  H   UNL     1      34.050  -6.450 -25.634  0.00  0.00    +0.175 HD
ENDBRANCH  18  23
ENDBRANCH   2  18
TORSDOF 5
ENDMDL
