MODEL 1
REMARK VINA RESULT:      -8.1      0.000      0.000
REMARK  Name = 181137
REMARK  5 active torsions:
REMARK  status: ('A' for Active; 'I' for Inactive)
REMARK    1  A    between atoms: C_2  and  C_13
REMARK    2  A    between atoms: C_8  and  O_11
REMARK    3  A    between atoms: C_13  and  C_14
REMARK    4  A    between atoms: C_14  and  C_16
REMARK    5  A    between atoms: C_16  and  O_17
REMARK                            x       y       z     vdW  Elec       q    Type
REMARK                         _______ _______ _______ _____ _____    ______ ____
ROOT
ATOM      1  N   UNL     1      37.217 -19.593 -20.628  0.00  0.00    -0.312 N 
ATOM      2  C   UNL     1      35.327 -18.945 -21.595  0.00  0.00    -0.006 C 
ATOM      3  C   UNL     1      35.022 -19.991 -20.678  0.00  0.00    +0.014 C 
ATOM      4  C   UNL     1      36.225 -20.379 -20.085  0.00  0.00    +0.048 C 
ATOM      5  C   UNL     1      36.684 -18.725 -21.541  0.00  0.00    +0.058 C 
ATOM      6  C   UNL     1      33.834 -20.644 -20.295  0.00  0.00    +0.038 C 
ATOM      7  C   UNL     1      36.299 -21.394 -19.124  0.00  0.00    +0.018 C 
ATOM      8  C   UNL     1      33.893 -21.661 -19.336  0.00  0.00    +0.139 C 
ATOM      9  C   UNL     1      35.108 -22.029 -18.760  0.00  0.00    +0.038 C 
ATOM     10  H   UNL     1      38.171 -19.650 -20.393  0.00  0.00    +0.152 HD
ENDROOT
BRANCH   8  11
ATOM     11  O   UNL     1      32.748 -22.298 -18.960  0.00  0.00    -0.471 OA
ATOM     12  C   UNL     1      32.693 -22.795 -17.625  0.00  0.00    +0.252 C 
ENDBRANCH   8  11
BRANCH   2  13
ATOM     13  C   UNL     1      34.368 -18.221 -22.453  0.00  0.00    +0.039 C 
BRANCH  13  14
ATOM     14  C   UNL     1      34.579 -18.428 -23.967  0.00  0.00    +0.114 C 
BRANCH  14  16
ATOM     15  O   UNL     1      34.641 -16.886 -25.854  0.00  0.00    -0.250 OA
ATOM     16  C   UNL     1      34.943 -17.155 -24.700  0.00  0.00    +0.314 C 
BRANCH  16  17
ATOM     17  O   UNL     1      35.692 -16.331 -23.921  0.00  0.00    -0.480 OA
ATOM     18  H   UNL     1      36.548 -16.594 -23.648  0.00  0.00    +0.295 HD
ENDBRANCH  16  17
ENDBRANCH  14  16
ENDBRANCH  13  14
ENDBRANCH   2  13
TORSDOF 5
ENDMDL
MODEL 2
REMARK VINA RESULT:      -7.9      4.831      8.215
REMARK  Name = 181137
REMARK  5 active torsions:
REMARK  status: ('A' for Active; 'I' for Inactive)
REMARK    1  A    between atoms: C_2  and  C_13
REMARK    2  A    between atoms: C_8  and  O_11
REMARK    3  A    between atoms: C_13  and  C_14
REMARK    4  A    between atoms: C_14  and  C_16
REMARK    5  A    between atoms: C_16  and  O_17
REMARK                            x       y       z     vdW  Elec       q    Type
REMARK                         _______ _______ _______ _____ _____    ______ ____
ROOT
ATOM      1  N   UNL     1      33.038 -23.538 -13.854  0.00  0.00    -0.312 N 
ATOM      2  C   UNL     1      31.052 -23.062 -14.724  0.00  0.00    -0.006 C 
ATOM      3  C   UNL     1      32.018 -23.012 -15.768  0.00  0.00    +0.014 C 
ATOM      4  C   UNL     1      33.255 -23.314 -15.195  0.00  0.00    +0.048 C 
ATOM      5  C   UNL     1      31.710 -23.387 -13.560  0.00  0.00    +0.058 C 
ATOM      6  C   UNL     1      31.957 -22.739 -17.149  0.00  0.00    +0.038 C 
ATOM      7  C   UNL     1      34.440 -23.356 -15.939  0.00  0.00    +0.018 C 
ATOM      8  C   UNL     1      33.134 -22.778 -17.904  0.00  0.00    +0.139 C 
ATOM      9  C   UNL     1      34.356 -23.082 -17.307  0.00  0.00    +0.038 C 
ATOM     10  H   UNL     1      33.738 -23.770 -13.202  0.00  0.00    +0.152 HD
ENDROOT
BRANCH   8  11
ATOM     11  O   UNL     1      33.084 -22.514 -19.241  0.00  0.00    -0.471 OA
ATOM     12  C   UNL     1      33.437 -21.196 -19.653  0.00  0.00    +0.252 C 
ENDBRANCH   8  11
BRANCH   2  13
ATOM     13  C   UNL     1      29.602 -22.812 -14.854  0.00  0.00    +0.039 C 
BRANCH  13  14
ATOM     14  C   UNL     1      28.841 -23.870 -15.678  0.00  0.00    +0.114 C 
BRANCH  14  16
ATOM     15  O   UNL     1      27.554 -23.948 -17.747  0.00  0.00    -0.250 OA
ATOM     16  C   UNL     1      28.193 -23.307 -16.925  0.00  0.00    +0.314 C 
BRANCH  16  17
ATOM     17  O   UNL     1      28.433 -21.975 -17.049  0.00  0.00    -0.480 OA
ATOM     18  H   UNL     1      28.446 -21.579 -17.897  0.00  0.00    +0.295 HD
ENDBRANCH  16  17
ENDBRANCH  14  16
ENDBRANCH  13  14
ENDBRANCH   2  13
TORSDOF 5
ENDMDL
MODEL 3
REMARK VINA RESULT:      -7.8      4.167      6.423
REMARK  Name = 181137
REMARK  5 active torsions:
REMARK  status: ('A' for Active; 'I' for Inactive)
REMARK    1  A    between atoms: C_2  and  C_13
REMARK    2  A    between atoms: C_8  and  O_11
REMARK    3  A    between atoms: C_13  and  C_14
REMARK    4  A    between atoms: C_14  and  C_16
REMARK    5  A    between atoms: C_16  and  O_17
REMARK                            x       y       z     vdW  Elec       q    Type
REMARK                         _______ _______ _______ _____ _____    ______ ____
ROOT
ATOM      1  N   UNL     1      35.313 -18.197 -21.829  0.00  0.00    -0.312 N 
ATOM      2  C   UNL     1      34.641 -16.101 -21.546  0.00  0.00    -0.006 C 
ATOM      3  C   UNL     1      34.498 -16.431 -22.923  0.00  0.00    +0.014 C 
ATOM      4  C   UNL     1      34.926 -17.752 -23.074  0.00  0.00    +0.048 C 
ATOM      5  C   UNL     1      35.144 -17.206 -20.901  0.00  0.00    +0.058 C 
ATOM      6  C   UNL     1      34.042 -15.732 -24.058  0.00  0.00    +0.038 C 
ATOM      7  C   UNL     1      34.923 -18.410 -24.309  0.00  0.00    +0.018 C 
ATOM      8  C   UNL     1      34.033 -16.378 -25.300  0.00  0.00    +0.139 C 
ATOM      9  C   UNL     1      34.467 -17.697 -25.421  0.00  0.00    +0.038 C 
ATOM     10  H   UNL     1      35.661 -19.098 -21.637  0.00  0.00    +0.152 HD
ENDROOT
BRANCH   8  11
ATOM     11  O   UNL     1      33.595 -15.707 -26.403  0.00  0.00    -0.471 OA
ATOM     12  C   UNL     1      32.926 -14.468 -26.183  0.00  0.00    +0.252 C 
ENDBRANCH   8  11
BRANCH   2  13
ATOM     13  C   UNL     1      34.311 -14.807 -20.914  0.00  0.00    +0.039 C 
BRANCH  13  14
ATOM     14  C   UNL     1      32.818 -14.621 -20.575  0.00  0.00    +0.114 C 
BRANCH  14  16
ATOM     15  O   UNL     1      32.014 -12.321 -20.491  0.00  0.00    -0.250 OA
ATOM     16  C   UNL     1      32.234 -13.340 -21.130  0.00  0.00    +0.314 C 
BRANCH  16  17
ATOM     17  O   UNL     1      31.942 -13.460 -22.452  0.00  0.00    -0.480 OA
ATOM     18  H   UNL     1      32.446 -14.035 -22.993  0.00  0.00    +0.295 HD
ENDBRANCH  16  17
ENDBRANCH  14  16
ENDBRANCH  13  14
ENDBRANCH   2  13
TORSDOF 5
ENDMDL
MODEL 4
REMARK VINA RESULT:      -7.8      5.233      8.590
REMARK  Name = 181137
REMARK  5 active torsions:
REMARK  status: ('A' for Active; 'I' for Inactive)
REMARK    1  A    between atoms: C_2  and  C_13
REMARK    2  A    between atoms: C_8  and  O_11
REMARK    3  A    between atoms: C_13  and  C_14
REMARK    4  A    between atoms: C_14  and  C_16
REMARK    5  A    between atoms: C_16  and  O_17
REMARK                            x       y       z     vdW  Elec       q    Type
REMARK                         _______ _______ _______ _____ _____    ______ ____
ROOT
ATOM      1  N   UNL     1      31.535 -23.614 -13.865  0.00  0.00    -0.312 N 
ATOM      2  C   UNL     1      30.321 -23.010 -15.622  0.00  0.00    -0.006 C 
ATOM      3  C   UNL     1      31.680 -23.112 -16.034  0.00  0.00    +0.014 C 
ATOM      4  C   UNL     1      32.420 -23.493 -14.913  0.00  0.00    +0.048 C 
ATOM      5  C   UNL     1      30.265 -23.325 -14.284  0.00  0.00    +0.058 C 
ATOM      6  C   UNL     1      32.351 -22.918 -17.257  0.00  0.00    +0.038 C 
ATOM      7  C   UNL     1      33.805 -23.688 -14.955  0.00  0.00    +0.018 C 
ATOM      8  C   UNL     1      33.736 -23.110 -17.314  0.00  0.00    +0.139 C 
ATOM      9  C   UNL     1      34.451 -23.490 -16.179  0.00  0.00    +0.038 C 
ATOM     10  H   UNL     1      31.782 -23.871 -12.947  0.00  0.00    +0.152 HD
ENDROOT
BRANCH   8  11
ATOM     11  O   UNL     1      34.393 -22.923 -18.493  0.00  0.00    -0.471 OA
ATOM     12  C   UNL     1      33.861 -21.943 -19.381  0.00  0.00    +0.252 C 
ENDBRANCH   8  11
BRANCH   2  13
ATOM     13  C   UNL     1      29.171 -22.636 -16.469  0.00  0.00    +0.039 C 
BRANCH  13  14
ATOM     14  C   UNL     1      27.792 -22.874 -15.821  0.00  0.00    +0.114 C 
BRANCH  14  16
ATOM     15  O   UNL     1      26.816 -21.241 -17.346  0.00  0.00    -0.250 OA
ATOM     16  C   UNL     1      26.707 -21.975 -16.374  0.00  0.00    +0.314 C 
BRANCH  16  17
ATOM     17  O   UNL     1      25.572 -22.052 -15.629  0.00  0.00    -0.480 OA
ATOM     18  H   UNL     1      25.627 -22.182 -14.704  0.00  0.00    +0.295 HD
ENDBRANCH  16  17
ENDBRANCH  14  16
ENDBRANCH  13  14
ENDBRANCH   2  13
TORSDOF 5
ENDMDL
MODEL 5
REMARK VINA RESULT:      -7.7      2.825      6.761
REMARK  Name = 181137
REMARK  5 active torsions:
REMARK  status: ('A' for Active; 'I' for Inactive)
REMARK    1  A    between atoms: C_2  and  C_13
REMARK    2  A    between atoms: C_8  and  O_11
REMARK    3  A    between atoms: C_13  and  C_14
REMARK    4  A    between atoms: C_14  and  C_16
REMARK    5  A    between atoms: C_16  and  O_17
REMARK                            x       y       z     vdW  Elec       q    Type
REMARK                         _______ _______ _______ _____ _____    ______ ____
ROOT
ATOM      1  N   UNL     1      33.211 -21.901 -19.166  0.00  0.00    -0.312 N 
ATOM      2  C   UNL     1      35.397 -21.751 -18.812  0.00  0.00    -0.006 C 
ATOM      3  C   UNL     1      35.043 -20.803 -19.812  0.00  0.00    +0.014 C 
ATOM      4  C   UNL     1      33.666 -20.917 -20.015  0.00  0.00    +0.048 C 
ATOM      5  C   UNL     1      34.250 -22.410 -18.436  0.00  0.00    +0.058 C 
ATOM      6  C   UNL     1      35.763 -19.854 -20.565  0.00  0.00    +0.038 C 
ATOM      7  C   UNL     1      32.971 -20.127 -20.939  0.00  0.00    +0.018 C 
ATOM      8  C   UNL     1      35.082 -19.058 -21.492  0.00  0.00    +0.139 C 
ATOM      9  C   UNL     1      33.706 -19.193 -21.674  0.00  0.00    +0.038 C 
ATOM     10  H   UNL     1      32.274 -22.195 -19.096  0.00  0.00    +0.152 HD
ENDROOT
BRANCH   8  11
ATOM     11  O   UNL     1      35.772 -18.139 -22.224  0.00  0.00    -0.471 OA
ATOM     12  C   UNL     1      35.016 -17.086 -22.818  0.00  0.00    +0.252 C 
ENDBRANCH   8  11
BRANCH   2  13
ATOM     13  C   UNL     1      36.749 -21.993 -18.269  0.00  0.00    +0.039 C 
BRANCH  13  14
ATOM     14  C   UNL     1      36.869 -21.814 -16.742  0.00  0.00    +0.114 C 
BRANCH  14  16
ATOM     15  O   UNL     1      36.229 -23.898 -15.653  0.00  0.00    -0.250 OA
ATOM     16  C   UNL     1      37.099 -23.114 -16.003  0.00  0.00    +0.314 C 
BRANCH  16  17
ATOM     17  O   UNL     1      38.418 -23.306 -15.736  0.00  0.00    -0.480 OA
ATOM     18  H   UNL     1      38.697 -24.075 -15.280  0.00  0.00    +0.295 HD
ENDBRANCH  16  17
ENDBRANCH  14  16
ENDBRANCH  13  14
ENDBRANCH   2  13
TORSDOF 5
ENDMDL
MODEL 6
REMARK VINA RESULT:      -7.5      7.392      8.650
REMARK  Name = 181137
REMARK  5 active torsions:
REMARK  status: ('A' for Active; 'I' for Inactive)
REMARK    1  A    between atoms: C_2  and  C_13
REMARK    2  A    between atoms: C_8  and  O_11
REMARK    3  A    between atoms: C_13  and  C_14
REMARK    4  A    between atoms: C_14  and  C_16
REMARK    5  A    between atoms: C_16  and  O_17
REMARK                            x       y       z     vdW  Elec       q    Type
REMARK                         _______ _______ _______ _____ _____    ______ ____
ROOT
ATOM      1  N   UNL     1      32.421 -25.070 -13.659  0.00  0.00    -0.312 N 
ATOM      2  C   UNL     1      33.460 -23.764 -15.123  0.00  0.00    -0.006 C 
ATOM      3  C   UNL     1      32.060 -23.675 -15.364  0.00  0.00    +0.014 C 
ATOM      4  C   UNL     1      31.432 -24.504 -14.432  0.00  0.00    +0.048 C 
ATOM      5  C   UNL     1      33.650 -24.628 -14.070  0.00  0.00    +0.058 C 
ATOM      6  C   UNL     1      31.266 -22.967 -16.287  0.00  0.00    +0.038 C 
ATOM      7  C   UNL     1      30.041 -24.660 -14.378  0.00  0.00    +0.018 C 
ATOM      8  C   UNL     1      29.875 -23.113 -16.244  0.00  0.00    +0.139 C 
ATOM      9  C   UNL     1      29.273 -23.948 -15.303  0.00  0.00    +0.038 C 
ATOM     10  H   UNL     1      32.266 -25.701 -12.920  0.00  0.00    +0.152 HD
ENDROOT
BRANCH   8  11
ATOM     11  O   UNL     1      29.099 -22.432 -17.134  0.00  0.00    -0.471 OA
ATOM     12  C   UNL     1      27.691 -22.457 -16.916  0.00  0.00    +0.252 C 
ENDBRANCH   8  11
BRANCH   2  13
ATOM     13  C   UNL     1      34.526 -23.059 -15.864  0.00  0.00    +0.039 C 
BRANCH  13  14
ATOM     14  C   UNL     1      35.782 -22.737 -15.030  0.00  0.00    +0.114 C 
BRANCH  14  16
ATOM     15  O   UNL     1      38.079 -22.891 -15.831  0.00  0.00    -0.250 OA
ATOM     16  C   UNL     1      37.028 -23.437 -15.529  0.00  0.00    +0.314 C 
BRANCH  16  17
ATOM     17  O   UNL     1      36.834 -24.778 -15.635  0.00  0.00    -0.480 OA
ATOM     18  H   UNL     1      37.341 -25.368 -15.114  0.00  0.00    +0.295 HD
ENDBRANCH  16  17
ENDBRANCH  14  16
ENDBRANCH  13  14
ENDBRANCH   2  13
TORSDOF 5
ENDMDL
MODEL 7
REMARK VINA RESULT:      -7.5      7.210      8.576
REMARK  Name = 181137
REMARK  5 active torsions:
REMARK  status: ('A' for Active; 'I' for Inactive)
REMARK    1  A    between atoms: C_2  and  C_13
REMARK    2  A    between atoms: C_8  and  O_11
REMARK    3  A    between atoms: C_13  and  C_14
REMARK    4  A    between atoms: C_14  and  C_16
REMARK    5  A    between atoms: C_16  and  O_17
REMARK                            x       y       z     vdW  Elec       q    Type
REMARK                         _______ _______ _______ _____ _____    ______ ____
ROOT
ATOM      1  N   UNL     1      33.178 -23.148 -17.130  0.00  0.00    -0.312 N 
ATOM      2  C   UNL     1      31.497 -23.123 -15.680  0.00  0.00    -0.006 C 
ATOM      3  C   UNL     1      32.678 -23.508 -14.985  0.00  0.00    +0.014 C 
ATOM      4  C   UNL     1      33.717 -23.517 -15.917  0.00  0.00    +0.048 C 
ATOM      5  C   UNL     1      31.837 -22.908 -16.996  0.00  0.00    +0.058 C 
ATOM      6  C   UNL     1      32.962 -23.851 -13.649  0.00  0.00    +0.038 C 
ATOM      7  C   UNL     1      35.033 -23.853 -15.578  0.00  0.00    +0.018 C 
ATOM      8  C   UNL     1      34.273 -24.190 -13.295  0.00  0.00    +0.139 C 
ATOM      9  C   UNL     1      35.292 -24.189 -14.246  0.00  0.00    +0.038 C 
ATOM     10  H   UNL     1      33.684 -23.070 -17.971  0.00  0.00    +0.152 HD
ENDROOT
BRANCH   8  11
ATOM     11  O   UNL     1      34.556 -24.523 -12.004  0.00  0.00    -0.471 OA
ATOM     12  C   UNL     1      35.819 -24.105 -11.490  0.00  0.00    +0.252 C 
ENDBRANCH   8  11
BRANCH   2  13
ATOM     13  C   UNL     1      30.146 -22.975 -15.103  0.00  0.00    +0.039 C 
BRANCH  13  14
ATOM     14  C   UNL     1      29.061 -23.834 -15.783  0.00  0.00    +0.114 C 
BRANCH  14  16
ATOM     15  O   UNL     1      28.112 -21.853 -16.840  0.00  0.00    -0.250 OA
ATOM     16  C   UNL     1      28.239 -23.068 -16.797  0.00  0.00    +0.314 C 
BRANCH  16  17
ATOM     17  O   UNL     1      27.615 -23.908 -17.665  0.00  0.00    -0.480 OA
ATOM     18  H   UNL     1      27.138 -24.646 -17.341  0.00  0.00    +0.295 HD
ENDBRANCH  16  17
ENDBRANCH  14  16
ENDBRANCH  13  14
ENDBRANCH   2  13
TORSDOF 5
ENDMDL
MODEL 8
REMARK VINA RESULT:      -7.4      2.962      4.212
REMARK  Name = 181137
REMARK  5 active torsions:
REMARK  status: ('A' for Active; 'I' for Inactive)
REMARK    1  A    between atoms: C_2  and  C_13
REMARK    2  A    between atoms: C_8  and  O_11
REMARK    3  A    between atoms: C_13  and  C_14
REMARK    4  A    between atoms: C_14  and  C_16
REMARK    5  A    between atoms: C_16  and  O_17
REMARK                            x       y       z     vdW  Elec       q    Type
REMARK                         _______ _______ _______ _____ _____    ______ ____
ROOT
ATOM      1  N   UNL     1      33.125 -22.491 -18.699  0.00  0.00    -0.312 N 
ATOM      2  C   UNL     1      34.901 -21.424 -19.496  0.00  0.00    -0.006 C 
ATOM      3  C   UNL     1      35.254 -22.002 -18.244  0.00  0.00    +0.014 C 
ATOM      4  C   UNL     1      34.122 -22.665 -17.766  0.00  0.00    +0.048 C 
ATOM      5  C   UNL     1      33.586 -21.742 -19.748  0.00  0.00    +0.058 C 
ATOM      6  C   UNL     1      36.432 -22.025 -17.471  0.00  0.00    +0.038 C 
ATOM      7  C   UNL     1      34.109 -23.353 -16.547  0.00  0.00    +0.018 C 
ATOM      8  C   UNL     1      36.434 -22.709 -16.250  0.00  0.00    +0.139 C 
ATOM      9  C   UNL     1      35.289 -23.363 -15.797  0.00  0.00    +0.038 C 
ATOM     10  H   UNL     1      32.212 -22.852 -18.622  0.00  0.00    +0.152 HD
ENDROOT
BRANCH   8  11
ATOM     11  O   UNL     1      37.569 -22.735 -15.496  0.00  0.00    -0.471 OA
ATOM     12  C   UNL     1      37.640 -23.721 -14.469  0.00  0.00    +0.252 C 
ENDBRANCH   8  11
BRANCH   2  13
ATOM     13  C   UNL     1      35.779 -20.626 -20.375  0.00  0.00    +0.039 C 
BRANCH  13  14
ATOM     14  C   UNL     1      35.033 -19.698 -21.355  0.00  0.00    +0.114 C 
BRANCH  14  16
ATOM     15  O   UNL     1      35.381 -17.385 -20.665  0.00  0.00    -0.250 OA
ATOM     16  C   UNL     1      35.626 -18.307 -21.431  0.00  0.00    +0.314 C 
BRANCH  16  17
ATOM     17  O   UNL     1      36.463 -18.182 -22.494  0.00  0.00    -0.480 OA
ATOM     18  H   UNL     1      36.928 -18.929 -22.814  0.00  0.00    +0.295 HD
ENDBRANCH  16  17
ENDBRANCH  14  16
ENDBRANCH  13  14
ENDBRANCH   2  13
TORSDOF 5
ENDMDL
MODEL 9
REMARK VINA RESULT:      -7.4      2.997      6.382
REMARK  Name = 181137
REMARK  5 active torsions:
REMARK  status: ('A' for Active; 'I' for Inactive)
REMARK    1  A    between atoms: C_2  and  C_13
REMARK    2  A    between atoms: C_8  and  O_11
REMARK    3  A    between atoms: C_13  and  C_14
REMARK    4  A    between atoms: C_14  and  C_16
REMARK    5  A    between atoms: C_16  and  O_17
REMARK                            x       y       z     vdW  Elec       q    Type
REMARK                         _______ _______ _______ _____ _____    ______ ____
ROOT
ATOM      1  N   UNL     1      35.365 -17.139 -24.115  0.00  0.00    -0.312 N 
ATOM      2  C   UNL     1      34.918 -18.058 -22.144  0.00  0.00    -0.006 C 
ATOM      3  C   UNL     1      34.418 -16.725 -22.136  0.00  0.00    +0.014 C 
ATOM      4  C   UNL     1      34.711 -16.171 -23.384  0.00  0.00    +0.048 C 
ATOM      5  C   UNL     1      35.494 -18.282 -23.373  0.00  0.00    +0.058 C 
ATOM      6  C   UNL     1      33.742 -15.936 -21.185  0.00  0.00    +0.038 C 
ATOM      7  C   UNL     1      34.361 -14.861 -23.730  0.00  0.00    +0.018 C 
ATOM      8  C   UNL     1      33.385 -14.624 -21.517  0.00  0.00    +0.139 C 
ATOM      9  C   UNL     1      33.690 -14.096 -22.771  0.00  0.00    +0.038 C 
ATOM     10  H   UNL     1      35.692 -17.024 -25.036  0.00  0.00    +0.152 HD
ENDROOT
BRANCH   8  11
ATOM     11  O   UNL     1      32.731 -13.853 -20.602  0.00  0.00    -0.471 OA
ATOM     12  C   UNL     1      32.007 -12.732 -21.101  0.00  0.00    +0.252 C 
ENDBRANCH   8  11
BRANCH   2  13
ATOM     13  C   UNL     1      34.838 -19.033 -21.037  0.00  0.00    +0.039 C 
BRANCH  13  14
ATOM     14  C   UNL     1      33.501 -19.795 -20.949  0.00  0.00    +0.114 C 
BRANCH  14  16
ATOM     15  O   UNL     1      32.523 -21.191 -19.207  0.00  0.00    -0.250 OA
ATOM     16  C   UNL     1      33.491 -20.865 -19.879  0.00  0.00    +0.314 C 
BRANCH  16  17
ATOM     17  O   UNL     1      34.721 -21.421 -19.722  0.00  0.00    -0.480 OA
ATOM     18  H   UNL     1      35.469 -20.873 -19.592  0.00  0.00    +0.295 HD
ENDBRANCH  16  17
ENDBRANCH  14  16
ENDBRANCH  13  14
ENDBRANCH   2  13
TORSDOF 5
ENDMDL
