MODEL 1
REMARK VINA RESULT:      -3.4      0.000      0.000
REMARK  Name = 37851
REMARK  3 active torsions:
REMARK  status: ('A' for Active; 'I' for Inactive)
REMARK    1  A    between atoms: N_1  and  C_5
REMARK    2  A    between atoms: C_5  and  C_6
REMARK    3  A    between atoms: C_6  and  S_7
REMARK                            x       y       z     vdW  Elec       q    Type
REMARK                         _______ _______ _______ _____ _____    ______ ____
ROOT
ATOM      1  N   UNL     1      35.356 -18.563 -21.674  0.00  0.00    +0.386 N 
ATOM      2  C   UNL     1      35.016 -17.194 -21.104  0.00  0.00    -0.096 C 
ATOM      3  C   UNL     1      34.109 -19.434 -21.679  0.00  0.00    -0.096 C 
ATOM      4  C   UNL     1      36.429 -19.218 -20.816  0.00  0.00    -0.096 C 
ENDROOT
BRANCH   1   5
ATOM      5  C   UNL     1      35.871 -18.406 -23.098  0.00  0.00    -0.062 C 
BRANCH   5   6
ATOM      6  C   UNL     1      34.724 -18.512 -24.090  0.00  0.00    +0.031 C 
BRANCH   6   7
ATOM      7  S   UNL     1      34.520 -16.992 -25.066  0.00  0.00    -0.170 S 
ATOM      8  H   UNL     1      34.509 -15.916 -24.233  0.00  0.00    +0.102 HD
ENDBRANCH   6   7
ENDBRANCH   5   6
ENDBRANCH   1   5
TORSDOF 3
ENDMDL
MODEL 2
REMARK VINA RESULT:      -3.3      1.506      2.250
REMARK  Name = 37851
REMARK  3 active torsions:
REMARK  status: ('A' for Active; 'I' for Inactive)
REMARK    1  A    between atoms: N_1  and  C_5
REMARK    2  A    between atoms: C_5  and  C_6
REMARK    3  A    between atoms: C_6  and  S_7
REMARK                            x       y       z     vdW  Elec       q    Type
REMARK                         _______ _______ _______ _____ _____    ______ ____
ROOT
ATOM      1  N   UNL     1      34.904 -18.662 -21.662  0.00  0.00    +0.386 N 
ATOM      2  C   UNL     1      36.241 -19.028 -21.033  0.00  0.00    -0.096 C 
ATOM      3  C   UNL     1      33.792 -19.446 -20.981  0.00  0.00    -0.096 C 
ATOM      4  C   UNL     1      34.931 -19.002 -23.145  0.00  0.00    -0.096 C 
ENDROOT
BRANCH   1   5
ATOM      5  C   UNL     1      34.654 -17.171 -21.487  0.00  0.00    -0.062 C 
BRANCH   5   6
ATOM      6  C   UNL     1      35.035 -16.419 -22.752  0.00  0.00    +0.031 C 
BRANCH   6   7
ATOM      7  S   UNL     1      34.312 -14.751 -22.802  0.00  0.00    -0.170 S 
ATOM      8  H   UNL     1      32.958 -14.841 -22.695  0.00  0.00    +0.102 HD
ENDBRANCH   6   7
ENDBRANCH   5   6
ENDBRANCH   1   5
TORSDOF 3
ENDMDL
MODEL 3
REMARK VINA RESULT:      -3.3      1.514      2.147
REMARK  Name = 37851
REMARK  3 active torsions:
REMARK  status: ('A' for Active; 'I' for Inactive)
REMARK    1  A    between atoms: N_1  and  C_5
REMARK    2  A    between atoms: C_5  and  C_6
REMARK    3  A    between atoms: C_6  and  S_7
REMARK                            x       y       z     vdW  Elec       q    Type
REMARK                         _______ _______ _______ _____ _____    ______ ____
ROOT
ATOM      1  N   UNL     1      34.943 -18.626 -21.661  0.00  0.00    +0.386 N 
ATOM      2  C   UNL     1      33.804 -19.393 -21.004  0.00  0.00    -0.096 C 
ATOM      3  C   UNL     1      34.978 -18.946 -23.148  0.00  0.00    -0.096 C 
ATOM      4  C   UNL     1      36.263 -19.034 -21.023  0.00  0.00    -0.096 C 
ENDROOT
BRANCH   1   5
ATOM      5  C   UNL     1      34.726 -17.132 -21.469  0.00  0.00    -0.062 C 
BRANCH   5   6
ATOM      6  C   UNL     1      35.031 -16.383 -22.755  0.00  0.00    +0.031 C 
BRANCH   6   7
ATOM      7  S   UNL     1      34.311 -14.714 -22.765  0.00  0.00    -0.170 S 
ATOM      8  H   UNL     1      34.918 -13.963 -23.723  0.00  0.00    +0.102 HD
ENDBRANCH   6   7
ENDBRANCH   5   6
ENDBRANCH   1   5
TORSDOF 3
ENDMDL
MODEL 4
REMARK VINA RESULT:      -3.3      3.273      3.983
REMARK  Name = 37851
REMARK  3 active torsions:
REMARK  status: ('A' for Active; 'I' for Inactive)
REMARK    1  A    between atoms: N_1  and  C_5
REMARK    2  A    between atoms: C_5  and  C_6
REMARK    3  A    between atoms: C_6  and  S_7
REMARK                            x       y       z     vdW  Elec       q    Type
REMARK                         _______ _______ _______ _____ _____    ______ ____
ROOT
ATOM      1  N   UNL     1      34.746 -19.050 -21.455  0.00  0.00    +0.386 N 
ATOM      2  C   UNL     1      34.815 -19.278 -22.959  0.00  0.00    -0.096 C 
ATOM      3  C   UNL     1      33.397 -19.522 -20.933  0.00  0.00    -0.096 C 
ATOM      4  C   UNL     1      34.915 -17.568 -21.159  0.00  0.00    -0.096 C 
ENDROOT
BRANCH   1   5
ATOM      5  C   UNL     1      35.857 -19.835 -20.773  0.00  0.00    -0.062 C 
BRANCH   5   6
ATOM      6  C   UNL     1      35.273 -20.963 -19.939  0.00  0.00    +0.031 C 
BRANCH   6   7
ATOM      7  S   UNL     1      36.418 -21.521 -18.642  0.00  0.00    -0.170 S 
ATOM      8  H   UNL     1      35.758 -22.335 -17.774  0.00  0.00    +0.102 HD
ENDBRANCH   6   7
ENDBRANCH   5   6
ENDBRANCH   1   5
TORSDOF 3
ENDMDL
MODEL 5
REMARK VINA RESULT:      -3.3      2.960      3.741
REMARK  Name = 37851
REMARK  3 active torsions:
REMARK  status: ('A' for Active; 'I' for Inactive)
REMARK    1  A    between atoms: N_1  and  C_5
REMARK    2  A    between atoms: C_5  and  C_6
REMARK    3  A    between atoms: C_6  and  S_7
REMARK                            x       y       z     vdW  Elec       q    Type
REMARK                         _______ _______ _______ _____ _____    ______ ____
ROOT
ATOM      1  N   UNL     1      34.978 -18.547 -21.663  0.00  0.00    +0.386 N 
ATOM      2  C   UNL     1      34.583 -17.120 -21.313  0.00  0.00    -0.096 C 
ATOM      3  C   UNL     1      36.383 -18.824 -21.148  0.00  0.00    -0.096 C 
ATOM      4  C   UNL     1      34.948 -18.725 -23.174  0.00  0.00    -0.096 C 
ENDROOT
BRANCH   1   5
ATOM      5  C   UNL     1      34.000 -19.518 -21.018  0.00  0.00    -0.062 C 
BRANCH   5   6
ATOM      6  C   UNL     1      34.749 -20.568 -20.215  0.00  0.00    +0.031 C 
BRANCH   6   7
ATOM      7  S   UNL     1      33.623 -21.739 -19.399  0.00  0.00    -0.170 S 
ATOM      8  H   UNL     1      33.817 -21.692 -18.053  0.00  0.00    +0.102 HD
ENDBRANCH   6   7
ENDBRANCH   5   6
ENDBRANCH   1   5
TORSDOF 3
ENDMDL
MODEL 6
REMARK VINA RESULT:      -3.2     10.586     11.842
REMARK  Name = 37851
REMARK  3 active torsions:
REMARK  status: ('A' for Active; 'I' for Inactive)
REMARK    1  A    between atoms: N_1  and  C_5
REMARK    2  A    between atoms: C_5  and  C_6
REMARK    3  A    between atoms: C_6  and  S_7
REMARK                            x       y       z     vdW  Elec       q    Type
REMARK                         _______ _______ _______ _____ _____    ______ ____
ROOT
ATOM      1  N   UNL     1      38.380 -25.205 -14.466  0.00  0.00    +0.386 N 
ATOM      2  C   UNL     1      39.817 -25.390 -14.932  0.00  0.00    -0.096 C 
ATOM      3  C   UNL     1      37.548 -26.403 -14.902  0.00  0.00    -0.096 C 
ATOM      4  C   UNL     1      37.806 -23.938 -15.083  0.00  0.00    -0.096 C 
ENDROOT
BRANCH   1   5
ATOM      5  C   UNL     1      38.350 -25.091 -12.949  0.00  0.00    -0.062 C 
BRANCH   5   6
ATOM      6  C   UNL     1      37.111 -25.773 -12.392  0.00  0.00    +0.031 C 
BRANCH   6   7
ATOM      7  S   UNL     1      35.883 -24.577 -11.788  0.00  0.00    -0.170 S 
ATOM      8  H   UNL     1      35.132 -24.131 -12.832  0.00  0.00    +0.102 HD
ENDBRANCH   6   7
ENDBRANCH   5   6
ENDBRANCH   1   5
TORSDOF 3
ENDMDL
MODEL 7
REMARK VINA RESULT:      -3.2     10.594     11.847
REMARK  Name = 37851
REMARK  3 active torsions:
REMARK  status: ('A' for Active; 'I' for Inactive)
REMARK    1  A    between atoms: N_1  and  C_5
REMARK    2  A    between atoms: C_5  and  C_6
REMARK    3  A    between atoms: C_6  and  S_7
REMARK                            x       y       z     vdW  Elec       q    Type
REMARK                         _______ _______ _______ _____ _____    ______ ____
ROOT
ATOM      1  N   UNL     1      38.372 -25.209 -14.457  0.00  0.00    +0.386 N 
ATOM      2  C   UNL     1      37.551 -26.414 -14.895  0.00  0.00    -0.096 C 
ATOM      3  C   UNL     1      37.786 -23.946 -15.071  0.00  0.00    -0.096 C 
ATOM      4  C   UNL     1      39.811 -25.379 -14.921  0.00  0.00    -0.096 C 
ENDROOT
BRANCH   1   5
ATOM      5  C   UNL     1      38.338 -25.098 -12.940  0.00  0.00    -0.062 C 
BRANCH   5   6
ATOM      6  C   UNL     1      37.091 -25.769 -12.387  0.00  0.00    +0.031 C 
BRANCH   6   7
ATOM      7  S   UNL     1      35.884 -24.562 -11.760  0.00  0.00    -0.170 S 
ATOM      8  H   UNL     1      35.922 -24.549 -10.400  0.00  0.00    +0.102 HD
ENDBRANCH   6   7
ENDBRANCH   5   6
ENDBRANCH   1   5
TORSDOF 3
ENDMDL
MODEL 8
REMARK VINA RESULT:      -3.2      9.456     10.640
REMARK  Name = 37851
REMARK  3 active torsions:
REMARK  status: ('A' for Active; 'I' for Inactive)
REMARK    1  A    between atoms: N_1  and  C_5
REMARK    2  A    between atoms: C_5  and  C_6
REMARK    3  A    between atoms: C_6  and  S_7
REMARK                            x       y       z     vdW  Elec       q    Type
REMARK                         _______ _______ _______ _____ _____    ______ ____
ROOT
ATOM      1  N   UNL     1      37.537 -25.455 -14.056  0.00  0.00    +0.386 N 
ATOM      2  C   UNL     1      36.689 -26.219 -15.063  0.00  0.00    -0.096 C 
ATOM      3  C   UNL     1      39.004 -25.564 -14.444  0.00  0.00    -0.096 C 
ATOM      4  C   UNL     1      37.334 -26.048 -12.669  0.00  0.00    -0.096 C 
ENDROOT
BRANCH   1   5
ATOM      5  C   UNL     1      37.121 -23.992 -14.049  0.00  0.00    -0.062 C 
BRANCH   5   6
ATOM      6  C   UNL     1      36.430 -23.632 -15.354  0.00  0.00    +0.031 C 
BRANCH   6   7
ATOM      7  S   UNL     1      37.282 -22.288 -16.234  0.00  0.00    -0.170 S 
ATOM      8  H   UNL     1      36.414 -21.684 -17.090  0.00  0.00    +0.102 HD
ENDBRANCH   6   7
ENDBRANCH   5   6
ENDBRANCH   1   5
TORSDOF 3
ENDMDL
MODEL 9
REMARK VINA RESULT:      -3.1      9.530     10.401
REMARK  Name = 37851
REMARK  3 active torsions:
REMARK  status: ('A' for Active; 'I' for Inactive)
REMARK    1  A    between atoms: N_1  and  C_5
REMARK    2  A    between atoms: C_5  and  C_6
REMARK    3  A    between atoms: C_6  and  S_7
REMARK                            x       y       z     vdW  Elec       q    Type
REMARK                         _______ _______ _______ _____ _____    ______ ____
ROOT
ATOM      1  N   UNL     1      42.044 -14.576 -16.764  0.00  0.00    +0.386 N 
ATOM      2  C   UNL     1      41.237 -14.365 -18.037  0.00  0.00    -0.096 C 
ATOM      3  C   UNL     1      43.152 -15.586 -17.028  0.00  0.00    -0.096 C 
ATOM      4  C   UNL     1      41.131 -15.100 -15.666  0.00  0.00    -0.096 C 
ENDROOT
BRANCH   1   5
ATOM      5  C   UNL     1      42.657 -13.253 -16.328  0.00  0.00    -0.062 C 
BRANCH   5   6
ATOM      6  C   UNL     1      43.402 -12.608 -17.484  0.00  0.00    +0.031 C 
BRANCH   6   7
ATOM      7  S   UNL     1      42.876 -10.890 -17.765  0.00  0.00    -0.170 S 
ATOM      8  H   UNL     1      42.191 -10.812 -18.938  0.00  0.00    +0.102 HD
ENDBRANCH   6   7
ENDBRANCH   5   6
ENDBRANCH   1   5
TORSDOF 3
ENDMDL
