MODEL 1
REMARK VINA RESULT:      -6.6      0.000      0.000
REMARK  Name = 2776424
REMARK  3 active torsions:
REMARK  status: ('A' for Active; 'I' for Inactive)
REMARK    1  A    between atoms: C_2  and  C_7
REMARK    2  A    between atoms: C_3  and  C_11
REMARK    3  A    between atoms: C_11  and  N_12
REMARK                            x       y       z     vdW  Elec       q    Type
REMARK                         _______ _______ _______ _____ _____    ______ ____
ROOT
ATOM      1  S   UNL     1      34.382 -17.357 -21.447  0.00  0.00    -0.093 S 
ATOM      2  C   UNL     1      34.597 -19.008 -21.848  0.00  0.00    +0.035 C 
ATOM      3  C   UNL     1      34.751 -16.865 -23.046  0.00  0.00    -0.015 C 
ATOM      4  C   UNL     1      34.942 -19.178 -23.172  0.00  0.00    +0.007 C 
ATOM      5  C   UNL     1      35.031 -17.936 -23.865  0.00  0.00    +0.001 C 
ENDROOT
BRANCH   2   7
ATOM      6  S   UNL     1      35.770 -20.840 -20.207  0.00  0.00    -0.086 S 
ATOM      7  C   UNL     1      34.421 -20.021 -20.871  0.00  0.00    +0.035 C 
ATOM      8  C   UNL     1      33.231 -20.471 -20.342  0.00  0.00    +0.008 C 
ATOM      9  C   UNL     1      33.429 -21.502 -19.379  0.00  0.00    +0.008 C 
ATOM     10  C   UNL     1      34.763 -21.801 -19.208  0.00  0.00    +0.035 C 
ENDBRANCH   2   7
BRANCH   3  11
ATOM     11  C   UNL     1      34.736 -15.425 -23.385  0.00  0.00    -0.052 C 
BRANCH  11  12
ATOM     12  N   UNL     1      33.613 -15.137 -24.280  0.00  0.00    +0.383 N 
ATOM     13  H   UNL     1      33.773 -14.245 -24.748  0.00  0.00    -0.089 HD
ATOM     14  H   UNL     1      32.751 -15.089 -23.739  0.00  0.00    -0.089 HD
ATOM     15  H   UNL     1      33.536 -15.878 -24.977  0.00  0.00    -0.089 HD
ENDBRANCH  11  12
ENDBRANCH   3  11
TORSDOF 3
ENDMDL
MODEL 2
REMARK VINA RESULT:      -6.5      2.800      5.531
REMARK  Name = 2776424
REMARK  3 active torsions:
REMARK  status: ('A' for Active; 'I' for Inactive)
REMARK    1  A    between atoms: C_2  and  C_7
REMARK    2  A    between atoms: C_3  and  C_11
REMARK    3  A    between atoms: C_11  and  N_12
REMARK                            x       y       z     vdW  Elec       q    Type
REMARK                         _______ _______ _______ _____ _____    ______ ____
ROOT
ATOM      1  S   UNL     1      35.696 -20.203 -20.642  0.00  0.00    -0.093 S 
ATOM      2  C   UNL     1      34.376 -19.423 -21.406  0.00  0.00    +0.035 C 
ATOM      3  C   UNL     1      34.646 -21.132 -19.657  0.00  0.00    -0.015 C 
ATOM      4  C   UNL     1      33.164 -19.863 -20.920  0.00  0.00    +0.007 C 
ATOM      5  C   UNL     1      33.321 -20.852 -19.906  0.00  0.00    +0.001 C 
ENDROOT
BRANCH   2   7
ATOM      6  S   UNL     1      34.756 -16.794 -22.011  0.00  0.00    -0.086 S 
ATOM      7  C   UNL     1      34.594 -18.450 -22.415  0.00  0.00    +0.035 C 
ATOM      8  C   UNL     1      34.701 -18.664 -23.771  0.00  0.00    +0.008 C 
ATOM      9  C   UNL     1      34.919 -17.453 -24.489  0.00  0.00    +0.008 C 
ATOM     10  C   UNL     1      34.971 -16.358 -23.654  0.00  0.00    +0.035 C 
ENDBRANCH   2   7
BRANCH   3  11
ATOM     11  C   UNL     1      35.218 -22.091 -18.688  0.00  0.00    -0.052 C 
BRANCH  11  12
ATOM     12  N   UNL     1      36.570 -21.671 -18.312  0.00  0.00    +0.383 N 
ATOM     13  H   UNL     1      36.539 -21.193 -17.411  0.00  0.00    -0.089 HD
ATOM     14  H   UNL     1      36.939 -21.038 -19.021  0.00  0.00    -0.089 HD
ATOM     15  H   UNL     1      37.173 -22.491 -18.242  0.00  0.00    -0.089 HD
ENDBRANCH  11  12
ENDBRANCH   3  11
TORSDOF 3
ENDMDL
MODEL 3
REMARK VINA RESULT:      -6.5      2.835      5.478
REMARK  Name = 2776424
REMARK  3 active torsions:
REMARK  status: ('A' for Active; 'I' for Inactive)
REMARK    1  A    between atoms: C_2  and  C_7
REMARK    2  A    between atoms: C_3  and  C_11
REMARK    3  A    between atoms: C_11  and  N_12
REMARK                            x       y       z     vdW  Elec       q    Type
REMARK                         _______ _______ _______ _____ _____    ______ ____
ROOT
ATOM      1  S   UNL     1      33.820 -20.175 -20.571  0.00  0.00    -0.093 S 
ATOM      2  C   UNL     1      35.198 -19.286 -21.064  0.00  0.00    +0.035 C 
ATOM      3  C   UNL     1      34.785 -21.288 -19.695  0.00  0.00    -0.015 C 
ATOM      4  C   UNL     1      36.366 -19.827 -20.572  0.00  0.00    +0.007 C 
ATOM      5  C   UNL     1      36.126 -20.986 -19.779  0.00  0.00    +0.001 C 
ENDROOT
BRANCH   2   7
ATOM      6  S   UNL     1      34.759 -16.600 -21.197  0.00  0.00    -0.086 S 
ATOM      7  C   UNL     1      35.064 -18.137 -21.886  0.00  0.00    +0.035 C 
ATOM      8  C   UNL     1      35.150 -18.081 -23.260  0.00  0.00    +0.008 C 
ATOM      9  C   UNL     1      34.963 -16.757 -23.753  0.00  0.00    +0.008 C 
ATOM     10  C   UNL     1      34.741 -15.853 -22.738  0.00  0.00    +0.035 C 
ENDBRANCH   2   7
BRANCH   3  11
ATOM     11  C   UNL     1      34.134 -22.402 -18.972  0.00  0.00    -0.052 C 
BRANCH  11  12
ATOM     12  N   UNL     1      32.713 -22.107 -18.780  0.00  0.00    +0.383 N 
ATOM     13  H   UNL     1      32.590 -21.567 -17.924  0.00  0.00    -0.089 HD
ATOM     14  H   UNL     1      32.192 -22.981 -18.709  0.00  0.00    -0.089 HD
ATOM     15  H   UNL     1      32.367 -21.570 -19.575  0.00  0.00    -0.089 HD
ENDBRANCH  11  12
ENDBRANCH   3  11
TORSDOF 3
ENDMDL
MODEL 4
REMARK VINA RESULT:      -6.5      1.105      1.409
REMARK  Name = 2776424
REMARK  3 active torsions:
REMARK  status: ('A' for Active; 'I' for Inactive)
REMARK    1  A    between atoms: C_2  and  C_7
REMARK    2  A    between atoms: C_3  and  C_11
REMARK    3  A    between atoms: C_11  and  N_12
REMARK                            x       y       z     vdW  Elec       q    Type
REMARK                         _______ _______ _______ _____ _____    ______ ____
ROOT
ATOM      1  S   UNL     1      34.608 -19.011 -23.383  0.00  0.00    -0.093 S 
ATOM      2  C   UNL     1      34.624 -18.785 -21.686  0.00  0.00    +0.035 C 
ATOM      3  C   UNL     1      34.825 -17.335 -23.663  0.00  0.00    -0.015 C 
ATOM      4  C   UNL     1      34.790 -17.461 -21.342  0.00  0.00    +0.007 C 
ATOM      5  C   UNL     1      34.907 -16.621 -22.488  0.00  0.00    +0.001 C 
ENDROOT
BRANCH   2   7
ATOM      6  S   UNL     1      35.846 -20.728 -20.217  0.00  0.00    -0.086 S 
ATOM      7  C   UNL     1      34.475 -19.888 -20.806  0.00  0.00    +0.035 C 
ATOM      8  C   UNL     1      33.298 -20.418 -20.325  0.00  0.00    +0.008 C 
ATOM      9  C   UNL     1      33.525 -21.527 -19.460  0.00  0.00    +0.008 C 
ATOM     10  C   UNL     1      34.866 -21.804 -19.314  0.00  0.00    +0.035 C 
ENDBRANCH   2   7
BRANCH   3  11
ATOM     11  C   UNL     1      34.901 -16.834 -25.052  0.00  0.00    -0.052 C 
BRANCH  11  12
ATOM     12  N   UNL     1      33.764 -15.952 -25.326  0.00  0.00    +0.383 N 
ATOM     13  H   UNL     1      34.034 -14.985 -25.145  0.00  0.00    -0.089 HD
ATOM     14  H   UNL     1      32.984 -16.206 -24.721  0.00  0.00    -0.089 HD
ATOM     15  H   UNL     1      33.485 -16.051 -26.301  0.00  0.00    -0.089 HD
ENDBRANCH  11  12
ENDBRANCH   3  11
TORSDOF 3
ENDMDL
MODEL 5
REMARK VINA RESULT:      -6.1      2.732      5.960
REMARK  Name = 2776424
REMARK  3 active torsions:
REMARK  status: ('A' for Active; 'I' for Inactive)
REMARK    1  A    between atoms: C_2  and  C_7
REMARK    2  A    between atoms: C_3  and  C_11
REMARK    3  A    between atoms: C_11  and  N_12
REMARK                            x       y       z     vdW  Elec       q    Type
REMARK                         _______ _______ _______ _____ _____    ______ ____
ROOT
ATOM      1  S   UNL     1      34.553 -17.193 -22.327  0.00  0.00    -0.093 S 
ATOM      2  C   UNL     1      34.323 -16.949 -24.007  0.00  0.00    +0.035 C 
ATOM      3  C   UNL     1      34.986 -18.833 -22.569  0.00  0.00    -0.015 C 
ATOM      4  C   UNL     1      34.571 -18.093 -24.734  0.00  0.00    +0.007 C 
ATOM      5  C   UNL     1      34.956 -19.184 -23.901  0.00  0.00    +0.001 C 
ENDROOT
BRANCH   2   7
ATOM      6  S   UNL     1      34.012 -14.285 -23.524  0.00  0.00    -0.086 S 
ATOM      7  C   UNL     1      33.922 -15.684 -24.507  0.00  0.00    +0.035 C 
ATOM      8  C   UNL     1      33.433 -15.402 -25.764  0.00  0.00    +0.008 C 
ATOM      9  C   UNL     1      33.130 -14.019 -25.922  0.00  0.00    +0.008 C 
ATOM     10  C   UNL     1      33.398 -13.296 -24.780  0.00  0.00    +0.035 C 
ENDBRANCH   2   7
BRANCH   3  11
ATOM     11  C   UNL     1      35.334 -19.673 -21.403  0.00  0.00    -0.052 C 
BRANCH  11  12
ATOM     12  N   UNL     1      36.345 -18.996 -20.587  0.00  0.00    +0.383 N 
ATOM     13  H   UNL     1      36.712 -19.648 -19.893  0.00  0.00    -0.089 HD
ATOM     14  H   UNL     1      35.921 -18.198 -20.114  0.00  0.00    -0.089 HD
ATOM     15  H   UNL     1      37.104 -18.673 -21.186  0.00  0.00    -0.089 HD
ENDBRANCH  11  12
ENDBRANCH   3  11
TORSDOF 3
ENDMDL
MODEL 6
REMARK VINA RESULT:      -6.1      1.634      2.371
REMARK  Name = 2776424
REMARK  3 active torsions:
REMARK  status: ('A' for Active; 'I' for Inactive)
REMARK    1  A    between atoms: C_2  and  C_7
REMARK    2  A    between atoms: C_3  and  C_11
REMARK    3  A    between atoms: C_11  and  N_12
REMARK                            x       y       z     vdW  Elec       q    Type
REMARK                         _______ _______ _______ _____ _____    ______ ____
ROOT
ATOM      1  S   UNL     1      34.217 -16.026 -22.497  0.00  0.00    -0.093 S 
ATOM      2  C   UNL     1      34.805 -17.562 -22.974  0.00  0.00    +0.035 C 
ATOM      3  C   UNL     1      34.014 -15.537 -24.126  0.00  0.00    -0.015 C 
ATOM      4  C   UNL     1      34.845 -17.697 -24.345  0.00  0.00    +0.007 C 
ATOM      5  C   UNL     1      34.386 -16.524 -25.012  0.00  0.00    +0.001 C 
ENDROOT
BRANCH   2   7
ATOM      6  S   UNL     1      34.035 -19.610 -21.351  0.00  0.00    -0.086 S 
ATOM      7  C   UNL     1      35.186 -18.525 -22.005  0.00  0.00    +0.035 C 
ATOM      8  C   UNL     1      36.443 -18.725 -21.478  0.00  0.00    +0.008 C 
ATOM      9  C   UNL     1      36.461 -19.784 -20.524  0.00  0.00    +0.008 C 
ATOM     10  C   UNL     1      35.217 -20.352 -20.359  0.00  0.00    +0.035 C 
ENDBRANCH   2   7
BRANCH   3  11
ATOM     11  C   UNL     1      33.489 -14.186 -24.419  0.00  0.00    -0.052 C 
BRANCH  11  12
ATOM     12  N   UNL     1      34.139 -13.201 -23.552  0.00  0.00    +0.383 N 
ATOM     13  H   UNL     1      33.884 -13.383 -22.581  0.00  0.00    -0.089 HD
ATOM     14  H   UNL     1      33.833 -12.264 -23.814  0.00  0.00    -0.089 HD
ATOM     15  H   UNL     1      35.150 -13.271 -23.658  0.00  0.00    -0.089 HD
ENDBRANCH  11  12
ENDBRANCH   3  11
TORSDOF 3
ENDMDL
MODEL 7
REMARK VINA RESULT:      -6.1      2.660      5.921
REMARK  Name = 2776424
REMARK  3 active torsions:
REMARK  status: ('A' for Active; 'I' for Inactive)
REMARK    1  A    between atoms: C_2  and  C_7
REMARK    2  A    between atoms: C_3  and  C_11
REMARK    3  A    between atoms: C_11  and  N_12
REMARK                            x       y       z     vdW  Elec       q    Type
REMARK                         _______ _______ _______ _____ _____    ______ ____
ROOT
ATOM      1  S   UNL     1      34.630 -17.236 -21.942  0.00  0.00    -0.093 S 
ATOM      2  C   UNL     1      34.450 -16.823 -23.594  0.00  0.00    +0.035 C 
ATOM      3  C   UNL     1      35.020 -18.857 -22.335  0.00  0.00    -0.015 C 
ATOM      4  C   UNL     1      34.683 -17.897 -24.424  0.00  0.00    +0.007 C 
ATOM      5  C   UNL     1      35.013 -19.076 -23.695  0.00  0.00    +0.001 C 
ENDROOT
BRANCH   2   7
ATOM      6  S   UNL     1      33.407 -15.191 -25.512  0.00  0.00    -0.086 S 
ATOM      7  C   UNL     1      34.099 -15.502 -23.977  0.00  0.00    +0.035 C 
ATOM      8  C   UNL     1      34.249 -14.352 -23.235  0.00  0.00    +0.008 C 
ATOM      9  C   UNL     1      33.788 -13.199 -23.935  0.00  0.00    +0.008 C 
ATOM     10  C   UNL     1      33.305 -13.513 -25.186  0.00  0.00    +0.035 C 
ENDBRANCH   2   7
BRANCH   3  11
ATOM     11  C   UNL     1      35.313 -19.817 -21.249  0.00  0.00    -0.052 C 
BRANCH  11  12
ATOM     12  N   UNL     1      36.403 -19.307 -20.414  0.00  0.00    +0.383 N 
ATOM     13  H   UNL     1      37.266 -19.802 -20.642  0.00  0.00    -0.089 HD
ATOM     14  H   UNL     1      36.176 -19.454 -19.431  0.00  0.00    -0.089 HD
ATOM     15  H   UNL     1      36.526 -18.310 -20.589  0.00  0.00    -0.089 HD
ENDBRANCH  11  12
ENDBRANCH   3  11
TORSDOF 3
ENDMDL
MODEL 8
REMARK VINA RESULT:      -6.1      2.938      4.507
REMARK  Name = 2776424
REMARK  3 active torsions:
REMARK  status: ('A' for Active; 'I' for Inactive)
REMARK    1  A    between atoms: C_2  and  C_7
REMARK    2  A    between atoms: C_3  and  C_11
REMARK    3  A    between atoms: C_11  and  N_12
REMARK                            x       y       z     vdW  Elec       q    Type
REMARK                         _______ _______ _______ _____ _____    ______ ____
ROOT
ATOM      1  S   UNL     1      34.209 -14.382 -23.227  0.00  0.00    -0.093 S 
ATOM      2  C   UNL     1      33.994 -15.647 -24.361  0.00  0.00    +0.035 C 
ATOM      3  C   UNL     1      33.537 -13.230 -24.302  0.00  0.00    -0.015 C 
ATOM      4  C   UNL     1      33.423 -15.199 -25.532  0.00  0.00    +0.007 C 
ATOM      5  C   UNL     1      33.158 -13.799 -25.498  0.00  0.00    +0.001 C 
ENDROOT
BRANCH   2   7
ATOM      6  S   UNL     1      34.862 -17.396 -22.460  0.00  0.00    -0.086 S 
ATOM      7  C   UNL     1      34.387 -16.974 -24.050  0.00  0.00    +0.035 C 
ATOM      8  C   UNL     1      34.445 -18.049 -24.910  0.00  0.00    +0.008 C 
ATOM      9  C   UNL     1      34.885 -19.235 -24.254  0.00  0.00    +0.008 C 
ATOM     10  C   UNL     1      35.146 -19.022 -22.919  0.00  0.00    +0.035 C 
ENDBRANCH   2   7
BRANCH   3  11
ATOM     11  C   UNL     1      33.428 -11.817 -23.880  0.00  0.00    -0.052 C 
BRANCH  11  12
ATOM     12  N   UNL     1      34.612 -11.074 -24.319  0.00  0.00    +0.383 N 
ATOM     13  H   UNL     1      35.445 -11.642 -24.166  0.00  0.00    -0.089 HD
ATOM     14  H   UNL     1      34.687 -10.209 -23.784  0.00  0.00    -0.089 HD
ATOM     15  H   UNL     1      34.526 -10.855 -25.310  0.00  0.00    -0.089 HD
ENDBRANCH  11  12
ENDBRANCH   3  11
TORSDOF 3
ENDMDL
MODEL 9
REMARK VINA RESULT:      -6.0      3.241      4.658
REMARK  Name = 2776424
REMARK  3 active torsions:
REMARK  status: ('A' for Active; 'I' for Inactive)
REMARK    1  A    between atoms: C_2  and  C_7
REMARK    2  A    between atoms: C_3  and  C_11
REMARK    3  A    between atoms: C_11  and  N_12
REMARK                            x       y       z     vdW  Elec       q    Type
REMARK                         _______ _______ _______ _____ _____    ______ ____
ROOT
ATOM      1  S   UNL     1      33.424 -14.205 -22.983  0.00  0.00    -0.093 S 
ATOM      2  C   UNL     1      33.733 -15.363 -21.759  0.00  0.00    +0.035 C 
ATOM      3  C   UNL     1      32.513 -13.232 -21.907  0.00  0.00    -0.015 C 
ATOM      4  C   UNL     1      33.154 -15.014 -20.559  0.00  0.00    +0.007 C 
ATOM      5  C   UNL     1      32.448 -13.779 -20.644  0.00  0.00    +0.001 C 
ENDROOT
BRANCH   2   7
ATOM      6  S   UNL     1      34.815 -17.002 -23.649  0.00  0.00    -0.086 S 
ATOM      7  C   UNL     1      34.506 -16.521 -22.035  0.00  0.00    +0.035 C 
ATOM      8  C   UNL     1      35.083 -17.375 -21.121  0.00  0.00    +0.008 C 
ATOM      9  C   UNL     1      35.790 -18.438 -21.754  0.00  0.00    +0.008 C 
ATOM     10  C   UNL     1      35.725 -18.356 -23.128  0.00  0.00    +0.035 C 
ENDBRANCH   2   7
BRANCH   3  11
ATOM     11  C   UNL     1      31.917 -11.970 -22.395  0.00  0.00    -0.052 C 
BRANCH  11  12
ATOM     12  N   UNL     1      30.714 -11.657 -21.621  0.00  0.00    +0.383 N 
ATOM     13  H   UNL     1      30.182 -10.930 -22.100  0.00  0.00    -0.089 HD
ATOM     14  H   UNL     1      30.982 -11.327 -20.695  0.00  0.00    -0.089 HD
ATOM     15  H   UNL     1      30.140 -12.495 -21.531  0.00  0.00    -0.089 HD
ENDBRANCH  11  12
ENDBRANCH   3  11
TORSDOF 3
ENDMDL
