MODEL 1
REMARK VINA RESULT:      -9.8      0.000      0.000
REMARK  Name = 2160
REMARK  3 active torsions:
REMARK  status: ('A' for Active; 'I' for Inactive)
REMARK    1  A    between atoms: C_8  and  C_17
REMARK    2  A    between atoms: C_17  and  C_18
REMARK    3  A    between atoms: C_18  and  N_19
REMARK                            x       y       z     vdW  Elec       q    Type
REMARK                         _______ _______ _______ _____ _____    ______ ____
ROOT
ATOM      1  C   UNL     1      32.103  -6.486 -20.666  0.00  0.00    +0.031 C 
ATOM      2  C   UNL     1      32.929  -7.709 -20.267  0.00  0.00    +0.031 C 
ATOM      3  C   UNL     1      32.350  -8.592 -22.955  0.00  0.00    -0.005 C 
ATOM      4  C   UNL     1      31.817  -6.236 -22.137  0.00  0.00    -0.022 C 
ATOM      5  C   UNL     1      32.180  -8.996 -20.504  0.00  0.00    -0.022 C 
ATOM      6  C   UNL     1      31.926  -7.184 -23.178  0.00  0.00    -0.004 C 
ATOM      7  C   UNL     1      31.898  -9.416 -21.814  0.00  0.00    -0.004 C 
ATOM      8  C   UNL     1      33.271  -9.145 -23.769  0.00  0.00    -0.028 C 
ATOM      9  C   UNL     1      31.364  -4.936 -22.452  0.00  0.00    -0.004 C 
ATOM     10  C   UNL     1      31.751  -9.778 -19.422  0.00  0.00    -0.004 C 
ATOM     11  C   UNL     1      31.566  -6.796 -24.488  0.00  0.00    -0.000 C 
ATOM     12  C   UNL     1      31.188 -10.608 -22.024  0.00  0.00    -0.000 C 
ATOM     13  C   UNL     1      31.031  -4.571 -23.754  0.00  0.00    -0.000 C 
ATOM     14  C   UNL     1      31.050 -10.964 -19.640  0.00  0.00    -0.000 C 
ATOM     15  C   UNL     1      31.130  -5.504 -24.774  0.00  0.00    -0.000 C 
ATOM     16  C   UNL     1      30.767 -11.377 -20.939  0.00  0.00    -0.000 C 
ENDROOT
BRANCH   8  17
ATOM     17  C   UNL     1      33.764 -10.549 -23.630  0.00  0.00    +0.003 C 
BRANCH  17  18
ATOM     18  C   UNL     1      33.831 -11.241 -24.992  0.00  0.00    -0.073 C 
BRANCH  18  19
ATOM     19  N   UNL     1      33.974 -12.682 -24.820  0.00  0.00    +0.384 N 
ATOM     20  C   UNL     1      33.229 -13.400 -25.855  0.00  0.00    -0.101 C 
ATOM     21  C   UNL     1      33.515 -13.090 -23.490  0.00  0.00    -0.101 C 
ATOM     22  H   UNL     1      34.962 -12.919 -24.908  0.00  0.00    -0.080 HD
ENDBRANCH  18  19
ENDBRANCH  17  18
ENDBRANCH   8  17
TORSDOF 3
ENDMDL
MODEL 2
REMARK VINA RESULT:      -9.5     14.657     17.169
REMARK  Name = 2160
REMARK  3 active torsions:
REMARK  status: ('A' for Active; 'I' for Inactive)
REMARK    1  A    between atoms: C_8  and  C_17
REMARK    2  A    between atoms: C_17  and  C_18
REMARK    3  A    between atoms: C_18  and  N_19
REMARK                            x       y       z     vdW  Elec       q    Type
REMARK                         _______ _______ _______ _____ _____    ______ ____
ROOT
ATOM      1  C   UNL     1      32.441 -22.853 -17.503  0.00  0.00    +0.031 C 
ATOM      2  C   UNL     1      33.711 -23.411 -18.145  0.00  0.00    +0.031 C 
ATOM      3  C   UNL     1      34.529 -23.853 -15.411  0.00  0.00    -0.005 C 
ATOM      4  C   UNL     1      32.158 -23.156 -16.042  0.00  0.00    -0.022 C 
ATOM      5  C   UNL     1      34.953 -22.750 -17.603  0.00  0.00    -0.022 C 
ATOM      6  C   UNL     1      33.097 -23.608 -15.089  0.00  0.00    -0.004 C 
ATOM      7  C   UNL     1      35.341 -22.966 -16.271  0.00  0.00    -0.004 C 
ATOM      8  C   UNL     1      35.120 -24.987 -14.988  0.00  0.00    -0.028 C 
ATOM      9  C   UNL     1      30.831 -22.914 -15.621  0.00  0.00    -0.004 C 
ATOM     10  C   UNL     1      35.724 -21.909 -18.418  0.00  0.00    -0.004 C 
ATOM     11  C   UNL     1      32.675 -23.788 -13.754  0.00  0.00    -0.000 C 
ATOM     12  C   UNL     1      36.491 -22.335 -15.771  0.00  0.00    -0.000 C 
ATOM     13  C   UNL     1      30.433 -23.115 -14.301  0.00  0.00    -0.000 C 
ATOM     14  C   UNL     1      36.868 -21.290 -17.914  0.00  0.00    -0.000 C 
ATOM     15  C   UNL     1      31.357 -23.551 -13.366  0.00  0.00    -0.000 C 
ATOM     16  C   UNL     1      37.250 -21.501 -16.592  0.00  0.00    -0.000 C 
ENDROOT
BRANCH   8  17
ATOM     17  C   UNL     1      36.550 -25.328 -15.257  0.00  0.00    +0.003 C 
BRANCH  17  18
ATOM     18  C   UNL     1      36.942 -26.632 -14.562  0.00  0.00    -0.073 C 
BRANCH  18  19
ATOM     19  N   UNL     1      38.175 -26.451 -13.805  0.00  0.00    +0.384 N 
ATOM     20  C   UNL     1      37.902 -25.790 -12.528  0.00  0.00    -0.101 C 
ATOM     21  C   UNL     1      39.145 -25.675 -14.580  0.00  0.00    -0.101 C 
ATOM     22  H   UNL     1      38.572 -27.371 -13.617  0.00  0.00    -0.080 HD
ENDBRANCH  18  19
ENDBRANCH  17  18
ENDBRANCH   8  17
TORSDOF 3
ENDMDL
MODEL 3
REMARK VINA RESULT:      -8.7      6.764     10.700
REMARK  Name = 2160
REMARK  3 active torsions:
REMARK  status: ('A' for Active; 'I' for Inactive)
REMARK    1  A    between atoms: C_8  and  C_17
REMARK    2  A    between atoms: C_17  and  C_18
REMARK    3  A    between atoms: C_18  and  N_19
REMARK                            x       y       z     vdW  Elec       q    Type
REMARK                         _______ _______ _______ _____ _____    ______ ____
ROOT
ATOM      1  C   UNL     1      32.659 -19.794 -20.225  0.00  0.00    +0.031 C 
ATOM      2  C   UNL     1      32.218 -18.756 -21.258  0.00  0.00    +0.031 C 
ATOM      3  C   UNL     1      35.055 -18.334 -21.590  0.00  0.00    -0.005 C 
ATOM      4  C   UNL     1      34.103 -20.265 -20.223  0.00  0.00    -0.022 C 
ATOM      5  C   UNL     1      32.825 -17.403 -20.990  0.00  0.00    -0.022 C 
ATOM      6  C   UNL     1      35.193 -19.609 -20.837  0.00  0.00    -0.004 C 
ATOM      7  C   UNL     1      34.207 -17.206 -21.150  0.00  0.00    -0.004 C 
ATOM      8  C   UNL     1      35.650 -18.205 -22.792  0.00  0.00    -0.028 C 
ATOM      9  C   UNL     1      34.351 -21.450 -19.494  0.00  0.00    -0.004 C 
ATOM     10  C   UNL     1      32.021 -16.333 -20.573  0.00  0.00    -0.004 C 
ATOM     11  C   UNL     1      36.485 -20.159 -20.688  0.00  0.00    -0.000 C 
ATOM     12  C   UNL     1      34.764 -15.946 -20.884  0.00  0.00    -0.000 C 
ATOM     13  C   UNL     1      35.632 -21.983 -19.376  0.00  0.00    -0.000 C 
ATOM     14  C   UNL     1      32.583 -15.082 -20.316  0.00  0.00    -0.000 C 
ATOM     15  C   UNL     1      36.702 -21.335 -19.972  0.00  0.00    -0.000 C 
ATOM     16  C   UNL     1      33.954 -14.890 -20.470  0.00  0.00    -0.000 C 
ENDROOT
BRANCH   8  17
ATOM     17  C   UNL     1      35.574 -16.968 -23.628  0.00  0.00    +0.003 C 
BRANCH  17  18
ATOM     18  C   UNL     1      34.537 -17.123 -24.740  0.00  0.00    -0.073 C 
BRANCH  18  19
ATOM     19  N   UNL     1      34.124 -15.814 -25.232  0.00  0.00    +0.384 N 
ATOM     20  C   UNL     1      33.674 -14.966 -24.126  0.00  0.00    -0.101 C 
ATOM     21  C   UNL     1      33.061 -15.951 -26.231  0.00  0.00    -0.101 C 
ATOM     22  H   UNL     1      34.929 -15.371 -25.675  0.00  0.00    -0.080 HD
ENDBRANCH  18  19
ENDBRANCH  17  18
ENDBRANCH   8  17
TORSDOF 3
ENDMDL
MODEL 4
REMARK VINA RESULT:      -8.6     14.165     17.321
REMARK  Name = 2160
REMARK  3 active torsions:
REMARK  status: ('A' for Active; 'I' for Inactive)
REMARK    1  A    between atoms: C_8  and  C_17
REMARK    2  A    between atoms: C_17  and  C_18
REMARK    3  A    between atoms: C_18  and  N_19
REMARK                            x       y       z     vdW  Elec       q    Type
REMARK                         _______ _______ _______ _____ _____    ______ ____
ROOT
ATOM      1  C   UNL     1      37.950 -22.805 -16.102  0.00  0.00    +0.031 C 
ATOM      2  C   UNL     1      36.911 -21.703 -16.315  0.00  0.00    +0.031 C 
ATOM      3  C   UNL     1      35.033 -23.746 -15.517  0.00  0.00    -0.005 C 
ATOM      4  C   UNL     1      37.558 -24.046 -15.321  0.00  0.00    -0.022 C 
ATOM      5  C   UNL     1      35.813 -22.139 -17.252  0.00  0.00    -0.022 C 
ATOM      6  C   UNL     1      36.241 -24.479 -15.053  0.00  0.00    -0.004 C 
ATOM      7  C   UNL     1      34.906 -23.136 -16.857  0.00  0.00    -0.004 C 
ATOM      8  C   UNL     1      34.019 -23.526 -14.657  0.00  0.00    -0.028 C 
ATOM      9  C   UNL     1      38.635 -24.841 -14.870  0.00  0.00    -0.004 C 
ATOM     10  C   UNL     1      35.691 -21.561 -18.523  0.00  0.00    -0.004 C 
ATOM     11  C   UNL     1      36.055 -25.694 -14.356  0.00  0.00    -0.000 C 
ATOM     12  C   UNL     1      33.895 -23.545 -17.741  0.00  0.00    -0.000 C 
ATOM     13  C   UNL     1      38.429 -26.027 -14.169  0.00  0.00    -0.000 C 
ATOM     14  C   UNL     1      34.681 -21.971 -19.394  0.00  0.00    -0.000 C 
ATOM     15  C   UNL     1      37.136 -26.455 -13.913  0.00  0.00    -0.000 C 
ATOM     16  C   UNL     1      33.785 -22.963 -19.004  0.00  0.00    -0.000 C 
ENDROOT
BRANCH   8  17
ATOM     17  C   UNL     1      32.764 -22.801 -15.023  0.00  0.00    +0.003 C 
BRANCH  17  18
ATOM     18  C   UNL     1      31.637 -23.130 -14.044  0.00  0.00    -0.073 C 
BRANCH  18  19
ATOM     19  N   UNL     1      30.449 -23.565 -14.768  0.00  0.00    +0.384 N 
ATOM     20  C   UNL     1      30.316 -25.021 -14.711  0.00  0.00    -0.101 C 
ATOM     21  C   UNL     1      30.500 -23.113 -16.160  0.00  0.00    -0.101 C 
ATOM     22  H   UNL     1      29.632 -23.147 -14.322  0.00  0.00    -0.080 HD
ENDBRANCH  18  19
ENDBRANCH  17  18
ENDBRANCH   8  17
TORSDOF 3
ENDMDL
MODEL 5
REMARK VINA RESULT:      -7.8      2.230      5.480
REMARK  Name = 2160
REMARK  3 active torsions:
REMARK  status: ('A' for Active; 'I' for Inactive)
REMARK    1  A    between atoms: C_8  and  C_17
REMARK    2  A    between atoms: C_17  and  C_18
REMARK    3  A    between atoms: C_18  and  N_19
REMARK                            x       y       z     vdW  Elec       q    Type
REMARK                         _______ _______ _______ _____ _____    ______ ____
ROOT
ATOM      1  C   UNL     1      32.372 -11.787 -23.229  0.00  0.00    +0.031 C 
ATOM      2  C   UNL     1      31.135 -11.180 -22.566  0.00  0.00    +0.031 C 
ATOM      3  C   UNL     1      32.581  -8.697 -22.850  0.00  0.00    -0.005 C 
ATOM      4  C   UNL     1      33.354 -10.870 -23.938  0.00  0.00    -0.022 C 
ATOM      5  C   UNL     1      31.492 -10.361 -21.352  0.00  0.00    -0.022 C 
ATOM      6  C   UNL     1      33.455  -9.472 -23.771  0.00  0.00    -0.004 C 
ATOM      7  C   UNL     1      32.199  -9.156 -21.498  0.00  0.00    -0.004 C 
ATOM      8  C   UNL     1      32.013  -7.553 -23.280  0.00  0.00    -0.028 C 
ATOM      9  C   UNL     1      34.263 -11.515 -24.807  0.00  0.00    -0.004 C 
ATOM     10  C   UNL     1      31.129 -10.795 -20.070  0.00  0.00    -0.004 C 
ATOM     11  C   UNL     1      34.467  -8.777 -24.471  0.00  0.00    -0.000 C 
ATOM     12  C   UNL     1      32.539  -8.407 -20.361  0.00  0.00    -0.000 C 
ATOM     13  C   UNL     1      35.242 -10.807 -25.499  0.00  0.00    -0.000 C 
ATOM     14  C   UNL     1      31.467 -10.042 -18.945  0.00  0.00    -0.000 C 
ATOM     15  C   UNL     1      35.345  -9.436 -25.330  0.00  0.00    -0.000 C 
ATOM     16  C   UNL     1      32.173  -8.851 -19.091  0.00  0.00    -0.000 C 
ENDROOT
BRANCH   8  17
ATOM     17  C   UNL     1      31.121  -6.701 -22.435  0.00  0.00    +0.003 C 
BRANCH  17  18
ATOM     18  C   UNL     1      31.588  -5.246 -22.441  0.00  0.00    -0.073 C 
BRANCH  18  19
ATOM     19  N   UNL     1      30.684  -4.428 -23.240  0.00  0.00    +0.384 N 
ATOM     20  C   UNL     1      30.956  -4.604 -24.668  0.00  0.00    -0.101 C 
ATOM     21  C   UNL     1      30.806  -3.015 -22.871  0.00  0.00    -0.101 C 
ATOM     22  H   UNL     1      29.728  -4.730 -23.052  0.00  0.00    -0.080 HD
ENDBRANCH  18  19
ENDBRANCH  17  18
ENDBRANCH   8  17
TORSDOF 3
ENDMDL
MODEL 6
REMARK VINA RESULT:      -7.8      2.944      6.896
REMARK  Name = 2160
REMARK  3 active torsions:
REMARK  status: ('A' for Active; 'I' for Inactive)
REMARK    1  A    between atoms: C_8  and  C_17
REMARK    2  A    between atoms: C_17  and  C_18
REMARK    3  A    between atoms: C_18  and  N_19
REMARK                            x       y       z     vdW  Elec       q    Type
REMARK                         _______ _______ _______ _____ _____    ______ ____
ROOT
ATOM      1  C   UNL     1      34.692  -8.919 -23.995  0.00  0.00    +0.031 C 
ATOM      2  C   UNL     1      35.119  -7.454 -23.898  0.00  0.00    +0.031 C 
ATOM      3  C   UNL     1      32.340  -7.008 -23.250  0.00  0.00    -0.005 C 
ATOM      4  C   UNL     1      33.361  -9.341 -23.396  0.00  0.00    -0.022 C 
ATOM      5  C   UNL     1      34.266  -6.561 -24.764  0.00  0.00    -0.022 C 
ATOM      6  C   UNL     1      32.292  -8.482 -23.058  0.00  0.00    -0.004 C 
ATOM      7  C   UNL     1      32.914  -6.353 -24.445  0.00  0.00    -0.004 C 
ATOM      8  C   UNL     1      31.931  -6.196 -22.257  0.00  0.00    -0.028 C 
ATOM      9  C   UNL     1      33.196 -10.732 -23.213  0.00  0.00    -0.004 C 
ATOM     10  C   UNL     1      34.810  -5.939 -25.896  0.00  0.00    -0.004 C 
ATOM     11  C   UNL     1      31.098  -9.051 -22.561  0.00  0.00    -0.000 C 
ATOM     12  C   UNL     1      32.125  -5.532 -25.265  0.00  0.00    -0.000 C 
ATOM     13  C   UNL     1      32.015 -11.268 -22.705  0.00  0.00    -0.000 C 
ATOM     14  C   UNL     1      34.019  -5.121 -26.704  0.00  0.00    -0.000 C 
ATOM     15  C   UNL     1      30.964 -10.426 -22.380  0.00  0.00    -0.000 C 
ATOM     16  C   UNL     1      32.678  -4.919 -26.389  0.00  0.00    -0.000 C 
ENDROOT
BRANCH   8  17
ATOM     17  C   UNL     1      31.939  -4.703 -22.349  0.00  0.00    +0.003 C 
BRANCH  17  18
ATOM     18  C   UNL     1      30.514  -4.151 -22.380  0.00  0.00    -0.073 C 
BRANCH  18  19
ATOM     19  N   UNL     1      30.468  -2.914 -23.151  0.00  0.00    +0.384 N 
ATOM     20  C   UNL     1      31.820  -2.480 -23.508  0.00  0.00    -0.101 C 
ATOM     21  C   UNL     1      29.780  -1.863 -22.398  0.00  0.00    -0.101 C 
ATOM     22  H   UNL     1      29.947  -3.091 -24.010  0.00  0.00    -0.080 HD
ENDBRANCH  18  19
ENDBRANCH  17  18
ENDBRANCH   8  17
TORSDOF 3
ENDMDL
MODEL 7
REMARK VINA RESULT:      -7.6      2.974      6.055
REMARK  Name = 2160
REMARK  3 active torsions:
REMARK  status: ('A' for Active; 'I' for Inactive)
REMARK    1  A    between atoms: C_8  and  C_17
REMARK    2  A    between atoms: C_17  and  C_18
REMARK    3  A    between atoms: C_18  and  N_19
REMARK                            x       y       z     vdW  Elec       q    Type
REMARK                         _______ _______ _______ _____ _____    ______ ____
ROOT
ATOM      1  C   UNL     1      33.707 -11.021 -25.349  0.00  0.00    +0.031 C 
ATOM      2  C   UNL     1      34.144 -10.636 -23.936  0.00  0.00    +0.031 C 
ATOM      3  C   UNL     1      33.365 -13.340 -23.290  0.00  0.00    -0.005 C 
ATOM      4  C   UNL     1      33.521 -12.489 -25.689  0.00  0.00    -0.022 C 
ATOM      5  C   UNL     1      33.060 -10.897 -22.921  0.00  0.00    -0.022 C 
ATOM      6  C   UNL     1      33.364 -13.544 -24.763  0.00  0.00    -0.004 C 
ATOM      7  C   UNL     1      32.684 -12.215 -22.616  0.00  0.00    -0.004 C 
ATOM      8  C   UNL     1      34.097 -14.156 -22.507  0.00  0.00    -0.028 C 
ATOM      9  C   UNL     1      33.463 -12.787 -27.069  0.00  0.00    -0.004 C 
ATOM     10  C   UNL     1      32.414  -9.830 -22.281  0.00  0.00    -0.004 C 
ATOM     11  C   UNL     1      33.144 -14.850 -25.255  0.00  0.00    -0.000 C 
ATOM     12  C   UNL     1      31.664 -12.447 -21.680  0.00  0.00    -0.000 C 
ATOM     13  C   UNL     1      33.262 -14.086 -27.531  0.00  0.00    -0.000 C 
ATOM     14  C   UNL     1      31.404 -10.070 -21.348  0.00  0.00    -0.000 C 
ATOM     15  C   UNL     1      33.101 -15.119 -26.622  0.00  0.00    -0.000 C 
ATOM     16  C   UNL     1      31.028 -11.378 -21.050  0.00  0.00    -0.000 C 
ENDROOT
BRANCH   8  17
ATOM     17  C   UNL     1      34.166 -14.037 -21.019  0.00  0.00    +0.003 C 
BRANCH  17  18
ATOM     18  C   UNL     1      34.545 -15.373 -20.380  0.00  0.00    -0.073 C 
BRANCH  18  19
ATOM     19  N   UNL     1      34.215 -16.474 -21.277  0.00  0.00    +0.384 N 
ATOM     20  C   UNL     1      32.918 -17.053 -20.925  0.00  0.00    -0.101 C 
ATOM     21  C   UNL     1      35.258 -17.502 -21.236  0.00  0.00    -0.101 C 
ATOM     22  H   UNL     1      34.159 -16.107 -22.227  0.00  0.00    -0.080 HD
ENDBRANCH  18  19
ENDBRANCH  17  18
ENDBRANCH   8  17
TORSDOF 3
ENDMDL
MODEL 8
REMARK VINA RESULT:      -7.6      3.717      6.617
REMARK  Name = 2160
REMARK  3 active torsions:
REMARK  status: ('A' for Active; 'I' for Inactive)
REMARK    1  A    between atoms: C_8  and  C_17
REMARK    2  A    between atoms: C_17  and  C_18
REMARK    3  A    between atoms: C_18  and  N_19
REMARK                            x       y       z     vdW  Elec       q    Type
REMARK                         _______ _______ _______ _____ _____    ______ ____
ROOT
ATOM      1  C   UNL     1      33.927 -13.264 -26.817  0.00  0.00    +0.031 C 
ATOM      2  C   UNL     1      32.952 -14.260 -26.188  0.00  0.00    +0.031 C 
ATOM      3  C   UNL     1      33.618 -12.892 -23.734  0.00  0.00    -0.005 C 
ATOM      4  C   UNL     1      34.337 -12.034 -26.026  0.00  0.00    -0.022 C 
ATOM      5  C   UNL     1      33.578 -15.011 -25.040  0.00  0.00    -0.022 C 
ATOM      6  C   UNL     1      34.201 -11.859 -24.631  0.00  0.00    -0.004 C 
ATOM      7  C   UNL     1      33.903 -14.338 -23.852  0.00  0.00    -0.004 C 
ATOM      8  C   UNL     1      32.703 -12.532 -22.814  0.00  0.00    -0.028 C 
ATOM      9  C   UNL     1      34.944 -11.006 -26.781  0.00  0.00    -0.004 C 
ATOM     10  C   UNL     1      33.848 -16.383 -25.150  0.00  0.00    -0.004 C 
ATOM     11  C   UNL     1      34.689 -10.668 -24.048  0.00  0.00    -0.000 C 
ATOM     12  C   UNL     1      34.498 -15.042 -22.794  0.00  0.00    -0.000 C 
ATOM     13  C   UNL     1      35.402  -9.832 -26.186  0.00  0.00    -0.000 C 
ATOM     14  C   UNL     1      34.435 -17.076 -24.092  0.00  0.00    -0.000 C 
ATOM     15  C   UNL     1      35.275  -9.664 -24.816  0.00  0.00    -0.000 C 
ATOM     16  C   UNL     1      34.762 -16.406 -22.916  0.00  0.00    -0.000 C 
ENDROOT
BRANCH   8  17
ATOM     17  C   UNL     1      32.058 -13.491 -21.866  0.00  0.00    +0.003 C 
BRANCH  17  18
ATOM     18  C   UNL     1      32.023 -12.919 -20.449  0.00  0.00    -0.073 C 
BRANCH  18  19
ATOM     19  N   UNL     1      31.666 -11.505 -20.483  0.00  0.00    +0.384 N 
ATOM     20  C   UNL     1      31.643 -10.947 -19.130  0.00  0.00    -0.101 C 
ATOM     21  C   UNL     1      30.365 -11.318 -21.131  0.00  0.00    -0.101 C 
ATOM     22  H   UNL     1      32.372 -11.010 -21.027  0.00  0.00    -0.080 HD
ENDBRANCH  18  19
ENDBRANCH  17  18
ENDBRANCH   8  17
TORSDOF 3
ENDMDL
MODEL 9
REMARK VINA RESULT:      -7.5      4.443      6.824
REMARK  Name = 2160
REMARK  3 active torsions:
REMARK  status: ('A' for Active; 'I' for Inactive)
REMARK    1  A    between atoms: C_8  and  C_17
REMARK    2  A    between atoms: C_17  and  C_18
REMARK    3  A    between atoms: C_18  and  N_19
REMARK                            x       y       z     vdW  Elec       q    Type
REMARK                         _______ _______ _______ _____ _____    ______ ____
ROOT
ATOM      1  C   UNL     1      33.788 -13.252 -27.138  0.00  0.00    +0.031 C 
ATOM      2  C   UNL     1      32.823 -14.292 -26.568  0.00  0.00    +0.031 C 
ATOM      3  C   UNL     1      33.642 -13.206 -24.021  0.00  0.00    -0.005 C 
ATOM      4  C   UNL     1      34.266 -12.121 -26.244  0.00  0.00    -0.022 C 
ATOM      5  C   UNL     1      33.487 -15.172 -25.540  0.00  0.00    -0.022 C 
ATOM      6  C   UNL     1      34.204 -12.093 -24.833  0.00  0.00    -0.004 C 
ATOM      7  C   UNL     1      33.886 -14.636 -24.305  0.00  0.00    -0.004 C 
ATOM      8  C   UNL     1      32.782 -12.929 -23.022  0.00  0.00    -0.028 C 
ATOM      9  C   UNL     1      34.859 -11.029 -26.916  0.00  0.00    -0.004 C 
ATOM     10  C   UNL     1      33.718 -16.529 -25.808  0.00  0.00    -0.004 C 
ATOM     11  C   UNL     1      34.747 -10.981 -24.153  0.00  0.00    -0.000 C 
ATOM     12  C   UNL     1      34.516 -15.460 -23.360  0.00  0.00    -0.000 C 
ATOM     13  C   UNL     1      35.373  -9.935 -26.225  0.00  0.00    -0.000 C 
ATOM     14  C   UNL     1      34.340 -17.342 -24.861  0.00  0.00    -0.000 C 
ATOM     15  C   UNL     1      35.319  -9.911 -24.840  0.00  0.00    -0.000 C 
ATOM     16  C   UNL     1      34.741 -16.807 -23.639  0.00  0.00    -0.000 C 
ENDROOT
BRANCH   8  17
ATOM     17  C   UNL     1      32.162 -13.972 -22.148  0.00  0.00    +0.003 C 
BRANCH  17  18
ATOM     18  C   UNL     1      32.576 -13.780 -20.689  0.00  0.00    -0.073 C 
BRANCH  18  19
ATOM     19  N   UNL     1      32.942 -15.060 -20.095  0.00  0.00    +0.384 N 
ATOM     20  C   UNL     1      34.378 -15.304 -20.242  0.00  0.00    -0.101 C 
ATOM     21  C   UNL     1      32.177 -16.149 -20.707  0.00  0.00    -0.101 C 
ATOM     22  H   UNL     1      32.718 -15.026 -19.100  0.00  0.00    -0.080 HD
ENDBRANCH  18  19
ENDBRANCH  17  18
ENDBRANCH   8  17
TORSDOF 3
ENDMDL
