MODEL 1
REMARK VINA RESULT:      -9.9      0.000      0.000
REMARK  Name = 11561383
REMARK  8 active torsions:
REMARK  status: ('A' for Active; 'I' for Inactive)
REMARK    1  A    between atoms: C_2  and  C_22
REMARK    2  A    between atoms: C_3  and  N_25
REMARK    3  A    between atoms: C_8  and  C_19
REMARK    4  A    between atoms: C_9  and  C_11
REMARK    5  A    between atoms: N_25  and  S_26
REMARK    6  A    between atoms: N_25  and  C_30
REMARK    7  A    between atoms: C_30  and  C_31
REMARK    8  A    between atoms: C_31  and  O_32
REMARK                            x       y       z     vdW  Elec       q    Type
REMARK                         _______ _______ _______ _____ _____    ______ ____
ROOT
ATOM      1  O   UNL     1      34.275 -16.074 -21.633  0.00  0.00    -0.453 OA
ATOM      2  C   UNL     1      33.439 -13.378 -24.600  0.00  0.00    -0.007 C 
ATOM      3  C   UNL     1      33.367 -12.925 -23.280  0.00  0.00    +0.068 C 
ATOM      4  C   UNL     1      33.785 -14.704 -24.891  0.00  0.00    +0.000 C 
ATOM      5  C   UNL     1      34.060 -15.579 -23.825  0.00  0.00    +0.042 A 
ATOM      6  C   UNL     1      33.637 -13.777 -22.205  0.00  0.00    +0.053 C 
ATOM      7  C   UNL     1      33.977 -15.090 -22.526  0.00  0.00    +0.147 A 
ATOM      8  C   UNL     1      34.433 -16.944 -23.702  0.00  0.00    +0.091 A 
ATOM      9  C   UNL     1      34.550 -17.193 -22.353  0.00  0.00    +0.150 A 
ENDROOT
BRANCH   9  11
ATOM     10  F   UNL     1      35.874 -21.676 -19.323  0.00  0.00    -0.204 F 
ATOM     11  C   UNL     1      34.891 -18.349 -21.572  0.00  0.00    +0.035 C 
ATOM     12  C   UNL     1      36.228 -18.619 -21.264  0.00  0.00    +0.005 C 
ATOM     13  C   UNL     1      33.890 -19.209 -21.114  0.00  0.00    +0.005 C 
ATOM     14  C   UNL     1      36.559 -19.742 -20.506  0.00  0.00    +0.030 C 
ATOM     15  C   UNL     1      34.220 -20.331 -20.355  0.00  0.00    +0.030 C 
ATOM     16  C   UNL     1      35.555 -20.598 -20.051  0.00  0.00    +0.140 C 
ENDBRANCH   9  11
BRANCH   8  19
ATOM     17  O   UNL     1      34.843 -17.576 -25.935  0.00  0.00    -0.270 OA
ATOM     18  N   UNL     1      34.670 -19.257 -24.367  0.00  0.00    -0.299 N 
ATOM     19  C   UNL     1      34.651 -17.904 -24.744  0.00  0.00    +0.249 C 
ATOM     20  C   UNL     1      34.907 -20.340 -25.295  0.00  0.00    +0.111 C 
ATOM     21  H   UNL     1      34.514 -19.480 -23.420  0.00  0.00    +0.150 HD
ENDBRANCH   8  19
BRANCH   2  22
ATOM     22  C   UNL     1      33.147 -12.454 -25.739  0.00  0.00    +0.024 C 
ATOM     23  C   UNL     1      32.875 -13.031 -27.090  0.00  0.00    +0.005 C 
ATOM     24  C   UNL     1      34.159 -12.300 -26.827  0.00  0.00    +0.005 C 
ENDBRANCH   2  22
BRANCH   3  25
ATOM     25  N   UNL     1      33.014 -11.567 -22.997  0.00  0.00    -0.192 N 
BRANCH  25  26
ATOM     26  S   UNL     1      31.725 -11.300 -21.883  0.00  0.00    +0.059 S 
ATOM     27  O   UNL     1      31.896 -12.169 -20.732  0.00  0.00    -0.154 OA
ATOM     28  O   UNL     1      30.456 -11.268 -22.588  0.00  0.00    -0.154 OA
ATOM     29  C   UNL     1      32.071  -9.643 -21.333  0.00  0.00    +0.200 C 
ENDBRANCH  25  26
BRANCH  25  30
ATOM     30  C   UNL     1      33.203 -10.569 -24.087  0.00  0.00    +0.147 C 
BRANCH  30  31
ATOM     31  C   UNL     1      34.382  -9.672 -23.759  0.00  0.00    +0.160 C 
BRANCH  31  32
ATOM     32  O   UNL     1      35.557 -10.198 -24.364  0.00  0.00    -0.380 OA
ATOM     33  H   UNL     1      35.632 -11.143 -24.155  0.00  0.00    +0.211 HD
ENDBRANCH  31  32
ENDBRANCH  30  31
ENDBRANCH  25  30
ENDBRANCH   3  25
TORSDOF 8
ENDMDL
MODEL 2
REMARK VINA RESULT:      -9.1      0.982      2.081
REMARK  Name = 11561383
REMARK  8 active torsions:
REMARK  status: ('A' for Active; 'I' for Inactive)
REMARK    1  A    between atoms: C_2  and  C_22
REMARK    2  A    between atoms: C_3  and  N_25
REMARK    3  A    between atoms: C_8  and  C_19
REMARK    4  A    between atoms: C_9  and  C_11
REMARK    5  A    between atoms: N_25  and  S_26
REMARK    6  A    between atoms: N_25  and  C_30
REMARK    7  A    between atoms: C_30  and  C_31
REMARK    8  A    between atoms: C_31  and  O_32
REMARK                            x       y       z     vdW  Elec       q    Type
REMARK                         _______ _______ _______ _____ _____    ______ ____
ROOT
ATOM      1  O   UNL     1      34.271 -16.071 -21.750  0.00  0.00    -0.453 OA
ATOM      2  C   UNL     1      33.346 -13.498 -24.799  0.00  0.00    -0.007 C 
ATOM      3  C   UNL     1      33.264 -13.006 -23.494  0.00  0.00    +0.068 C 
ATOM      4  C   UNL     1      33.731 -14.822 -25.049  0.00  0.00    +0.000 C 
ATOM      5  C   UNL     1      34.036 -15.654 -23.957  0.00  0.00    +0.042 A 
ATOM      6  C   UNL     1      33.562 -13.814 -22.394  0.00  0.00    +0.053 C 
ATOM      7  C   UNL     1      33.941 -15.126 -22.673  0.00  0.00    +0.147 A 
ATOM      8  C   UNL     1      34.450 -17.002 -23.791  0.00  0.00    +0.091 A 
ATOM      9  C   UNL     1      34.577 -17.204 -22.435  0.00  0.00    +0.150 A 
ENDROOT
BRANCH   9  11
ATOM     10  F   UNL     1      36.044 -21.545 -19.267  0.00  0.00    -0.204 F 
ATOM     11  C   UNL     1      34.955 -18.323 -21.618  0.00  0.00    +0.035 C 
ATOM     12  C   UNL     1      36.303 -18.566 -21.340  0.00  0.00    +0.005 C 
ATOM     13  C   UNL     1      33.978 -19.175 -21.096  0.00  0.00    +0.005 C 
ATOM     14  C   UNL     1      36.671 -19.654 -20.547  0.00  0.00    +0.030 C 
ATOM     15  C   UNL     1      34.344 -20.261 -20.303  0.00  0.00    +0.030 C 
ATOM     16  C   UNL     1      35.691 -20.501 -20.028  0.00  0.00    +0.140 C 
ENDBRANCH   9  11
BRANCH   8  19
ATOM     17  O   UNL     1      34.935 -17.690 -25.991  0.00  0.00    -0.270 OA
ATOM     18  N   UNL     1      34.682 -19.332 -24.394  0.00  0.00    -0.299 N 
ATOM     19  C   UNL     1      34.694 -17.988 -24.802  0.00  0.00    +0.249 C 
ATOM     20  C   UNL     1      34.939 -20.439 -25.288  0.00  0.00    +0.111 C 
ATOM     21  H   UNL     1      34.488 -19.532 -23.449  0.00  0.00    +0.150 HD
ENDBRANCH   8  19
BRANCH   2  22
ATOM     22  C   UNL     1      33.023 -12.621 -25.966  0.00  0.00    +0.024 C 
ATOM     23  C   UNL     1      32.551 -13.249 -27.238  0.00  0.00    +0.005 C 
ATOM     24  C   UNL     1      33.921 -12.641 -27.160  0.00  0.00    +0.005 C 
ENDBRANCH   2  22
BRANCH   3  25
ATOM     25  N   UNL     1      32.870 -11.650 -23.254  0.00  0.00    -0.192 N 
BRANCH  25  26
ATOM     26  S   UNL     1      33.803 -10.410 -24.006  0.00  0.00    +0.059 S 
ATOM     27  O   UNL     1      33.171 -10.022 -25.254  0.00  0.00    -0.154 OA
ATOM     28  O   UNL     1      35.211 -10.764 -23.982  0.00  0.00    -0.154 OA
ATOM     29  C   UNL     1      33.574  -9.059 -22.870  0.00  0.00    +0.200 C 
ENDBRANCH  25  26
BRANCH  25  30
ATOM     30  C   UNL     1      32.243 -11.343 -21.938  0.00  0.00    +0.147 C 
BRANCH  30  31
ATOM     31  C   UNL     1      30.772 -11.024 -22.136  0.00  0.00    +0.160 C 
BRANCH  31  32
ATOM     32  O   UNL     1      30.033 -11.494 -21.016  0.00  0.00    -0.380 OA
ATOM     33  H   UNL     1      29.835 -10.750 -20.426  0.00  0.00    +0.211 HD
ENDBRANCH  31  32
ENDBRANCH  30  31
ENDBRANCH  25  30
ENDBRANCH   3  25
TORSDOF 8
ENDMDL
MODEL 3
REMARK VINA RESULT:      -8.9      4.260      8.996
REMARK  Name = 11561383
REMARK  8 active torsions:
REMARK  status: ('A' for Active; 'I' for Inactive)
REMARK    1  A    between atoms: C_2  and  C_22
REMARK    2  A    between atoms: C_3  and  N_25
REMARK    3  A    between atoms: C_8  and  C_19
REMARK    4  A    between atoms: C_9  and  C_11
REMARK    5  A    between atoms: N_25  and  S_26
REMARK    6  A    between atoms: N_25  and  C_30
REMARK    7  A    between atoms: C_30  and  C_31
REMARK    8  A    between atoms: C_31  and  O_32
REMARK                            x       y       z     vdW  Elec       q    Type
REMARK                         _______ _______ _______ _____ _____    ______ ____
ROOT
ATOM      1  O   UNL     1      32.972 -10.743 -24.470  0.00  0.00    -0.453 OA
ATOM      2  C   UNL     1      32.776 -14.394 -22.623  0.00  0.00    -0.007 C 
ATOM      3  C   UNL     1      33.109 -14.376 -23.980  0.00  0.00    +0.068 C 
ATOM      4  C   UNL     1      32.521 -13.205 -21.926  0.00  0.00    +0.000 C 
ATOM      5  C   UNL     1      32.605 -11.985 -22.619  0.00  0.00    +0.042 A 
ATOM      6  C   UNL     1      33.199 -13.175 -24.689  0.00  0.00    +0.053 C 
ATOM      7  C   UNL     1      32.939 -12.010 -23.970  0.00  0.00    +0.147 A 
ATOM      8  C   UNL     1      32.428 -10.615 -22.290  0.00  0.00    +0.091 A 
ATOM      9  C   UNL     1      32.662  -9.906 -23.447  0.00  0.00    +0.150 A 
ENDROOT
BRANCH   9  11
ATOM     10  F   UNL     1      32.607  -4.496 -24.774  0.00  0.00    -0.204 F 
ATOM     11  C   UNL     1      32.648  -8.510 -23.789  0.00  0.00    +0.035 C 
ATOM     12  C   UNL     1      31.433  -7.832 -23.921  0.00  0.00    +0.005 C 
ATOM     13  C   UNL     1      33.848  -7.824 -23.992  0.00  0.00    +0.005 C 
ATOM     14  C   UNL     1      31.419  -6.477 -24.254  0.00  0.00    +0.030 C 
ATOM     15  C   UNL     1      33.835  -6.470 -24.323  0.00  0.00    +0.030 C 
ATOM     16  C   UNL     1      32.620  -5.796 -24.455  0.00  0.00    +0.140 C 
ENDBRANCH   9  11
BRANCH   8  19
ATOM     17  O   UNL     1      32.410  -8.887 -20.688  0.00  0.00    -0.270 OA
ATOM     18  N   UNL     1      31.297 -10.837 -20.165  0.00  0.00    -0.299 N 
ATOM     19  C   UNL     1      32.076 -10.043 -21.024  0.00  0.00    +0.249 C 
ATOM     20  C   UNL     1      30.837 -10.392 -18.868  0.00  0.00    +0.111 C 
ATOM     21  H   UNL     1      31.052 -11.744 -20.461  0.00  0.00    +0.150 HD
ENDBRANCH   8  19
BRANCH   2  22
ATOM     22  C   UNL     1      32.684 -15.687 -21.878  0.00  0.00    +0.024 C 
ATOM     23  C   UNL     1      32.270 -15.669 -20.442  0.00  0.00    +0.005 C 
ATOM     24  C   UNL     1      33.689 -15.986 -20.814  0.00  0.00    +0.005 C 
ENDBRANCH   2  22
BRANCH   3  25
ATOM     25  N   UNL     1      33.368 -15.598 -24.679  0.00  0.00    -0.192 N 
BRANCH  25  26
ATOM     26  S   UNL     1      34.946 -16.278 -24.526  0.00  0.00    +0.059 S 
ATOM     27  O   UNL     1      35.668 -15.585 -23.474  0.00  0.00    -0.154 OA
ATOM     28  O   UNL     1      35.548 -16.439 -25.837  0.00  0.00    -0.154 OA
ATOM     29  C   UNL     1      34.571 -17.904 -23.907  0.00  0.00    +0.200 C 
ENDBRANCH  25  26
BRANCH  25  30
ATOM     30  C   UNL     1      32.640 -15.823 -25.959  0.00  0.00    +0.147 C 
BRANCH  30  31
ATOM     31  C   UNL     1      32.606 -14.534 -26.759  0.00  0.00    +0.160 C 
BRANCH  31  32
ATOM     32  O   UNL     1      33.803 -14.420 -27.519  0.00  0.00    -0.380 OA
ATOM     33  H   UNL     1      34.266 -15.272 -27.520  0.00  0.00    +0.211 HD
ENDBRANCH  31  32
ENDBRANCH  30  31
ENDBRANCH  25  30
ENDBRANCH   3  25
TORSDOF 8
ENDMDL
MODEL 4
REMARK VINA RESULT:      -8.9      3.462      5.821
REMARK  Name = 11561383
REMARK  8 active torsions:
REMARK  status: ('A' for Active; 'I' for Inactive)
REMARK    1  A    between atoms: C_2  and  C_22
REMARK    2  A    between atoms: C_3  and  N_25
REMARK    3  A    between atoms: C_8  and  C_19
REMARK    4  A    between atoms: C_9  and  C_11
REMARK    5  A    between atoms: N_25  and  S_26
REMARK    6  A    between atoms: N_25  and  C_30
REMARK    7  A    between atoms: C_30  and  C_31
REMARK    8  A    between atoms: C_31  and  O_32
REMARK                            x       y       z     vdW  Elec       q    Type
REMARK                         _______ _______ _______ _____ _____    ______ ____
ROOT
ATOM      1  O   UNL     1      33.660 -11.977 -24.280  0.00  0.00    -0.453 OA
ATOM      2  C   UNL     1      32.345  -8.908 -21.908  0.00  0.00    -0.007 C 
ATOM      3  C   UNL     1      32.894  -8.573 -23.149  0.00  0.00    +0.068 C 
ATOM      4  C   UNL     1      32.250 -10.244 -21.498  0.00  0.00    +0.000 C 
ATOM      5  C   UNL     1      32.719 -11.251 -22.360  0.00  0.00    +0.042 A 
ATOM      6  C   UNL     1      33.368  -9.556 -24.022  0.00  0.00    +0.053 C 
ATOM      7  C   UNL     1      33.260 -10.876 -23.585  0.00  0.00    +0.147 A 
ATOM      8  C   UNL     1      32.800 -12.668 -22.319  0.00  0.00    +0.091 A 
ATOM      9  C   UNL     1      33.377 -13.057 -23.506  0.00  0.00    +0.150 A 
ENDROOT
BRANCH   9  11
ATOM     10  F   UNL     1      34.756 -17.972 -25.737  0.00  0.00    -0.204 F 
ATOM     11  C   UNL     1      33.732 -14.325 -24.082  0.00  0.00    +0.035 C 
ATOM     12  C   UNL     1      34.657 -15.153 -23.439  0.00  0.00    +0.005 C 
ATOM     13  C   UNL     1      33.156 -14.736 -25.286  0.00  0.00    +0.005 C 
ATOM     14  C   UNL     1      35.003 -16.384 -23.998  0.00  0.00    +0.030 C 
ATOM     15  C   UNL     1      33.500 -15.967 -25.845  0.00  0.00    +0.030 C 
ATOM     16  C   UNL     1      34.424 -16.790 -25.201  0.00  0.00    +0.140 C 
ENDBRANCH   9  11
BRANCH   8  19
ATOM     17  O   UNL     1      31.999 -13.142 -20.155  0.00  0.00    -0.270 OA
ATOM     18  N   UNL     1      32.382 -14.926 -21.563  0.00  0.00    -0.299 N 
ATOM     19  C   UNL     1      32.379 -13.552 -21.272  0.00  0.00    +0.249 C 
ATOM     20  C   UNL     1      31.959 -15.940 -20.624  0.00  0.00    +0.111 C 
ATOM     21  H   UNL     1      32.689 -15.215 -22.453  0.00  0.00    +0.150 HD
ENDBRANCH   8  19
BRANCH   2  22
ATOM     22  C   UNL     1      31.844  -7.844 -20.985  0.00  0.00    +0.024 C 
ATOM     23  C   UNL     1      32.818  -7.126 -20.109  0.00  0.00    +0.005 C 
ATOM     24  C   UNL     1      31.844  -8.099 -19.513  0.00  0.00    +0.005 C 
ENDBRANCH   2  22
BRANCH   3  25
ATOM     25  N   UNL     1      32.985  -7.203 -23.556  0.00  0.00    -0.192 N 
BRANCH  25  26
ATOM     26  S   UNL     1      31.602  -6.512 -24.320  0.00  0.00    +0.059 S 
ATOM     27  O   UNL     1      30.596  -7.540 -24.515  0.00  0.00    -0.154 OA
ATOM     28  O   UNL     1      32.013  -5.676 -25.433  0.00  0.00    -0.154 OA
ATOM     29  C   UNL     1      30.994  -5.434 -23.040  0.00  0.00    +0.200 C 
ENDBRANCH  25  26
BRANCH  25  30
ATOM     30  C   UNL     1      34.325  -6.697 -23.964  0.00  0.00    +0.147 C 
BRANCH  30  31
ATOM     31  C   UNL     1      34.545  -6.969 -25.441  0.00  0.00    +0.160 C 
BRANCH  31  32
ATOM     32  O   UNL     1      34.739  -5.737 -26.123  0.00  0.00    -0.380 OA
ATOM     33  H   UNL     1      34.534  -5.001 -25.524  0.00  0.00    +0.211 HD
ENDBRANCH  31  32
ENDBRANCH  30  31
ENDBRANCH  25  30
ENDBRANCH   3  25
TORSDOF 8
ENDMDL
MODEL 5
REMARK VINA RESULT:      -8.7      7.674     12.702
REMARK  Name = 11561383
REMARK  8 active torsions:
REMARK  status: ('A' for Active; 'I' for Inactive)
REMARK    1  A    between atoms: C_2  and  C_22
REMARK    2  A    between atoms: C_3  and  N_25
REMARK    3  A    between atoms: C_8  and  C_19
REMARK    4  A    between atoms: C_9  and  C_11
REMARK    5  A    between atoms: N_25  and  S_26
REMARK    6  A    between atoms: N_25  and  C_30
REMARK    7  A    between atoms: C_30  and  C_31
REMARK    8  A    between atoms: C_31  and  O_32
REMARK                            x       y       z     vdW  Elec       q    Type
REMARK                         _______ _______ _______ _____ _____    ______ ____
ROOT
ATOM      1  O   UNL     1      36.664 -21.791 -17.908  0.00  0.00    -0.453 OA
ATOM      2  C   UNL     1      35.708 -24.226 -14.757  0.00  0.00    -0.007 C 
ATOM      3  C   UNL     1      37.045 -23.843 -14.892  0.00  0.00    +0.068 C 
ATOM      4  C   UNL     1      34.736 -23.790 -15.667  0.00  0.00    +0.000 C 
ATOM      5  C   UNL     1      35.131 -22.955 -16.728  0.00  0.00    +0.042 A 
ATOM      6  C   UNL     1      37.460 -23.014 -15.938  0.00  0.00    +0.053 C 
ATOM      7  C   UNL     1      36.471 -22.597 -16.828  0.00  0.00    +0.147 A 
ATOM      8  C   UNL     1      34.479 -22.321 -17.818  0.00  0.00    +0.091 A 
ATOM      9  C   UNL     1      35.453 -21.630 -18.502  0.00  0.00    +0.150 A 
ENDROOT
BRANCH   9  11
ATOM     10  F   UNL     1      35.476 -18.404 -23.044  0.00  0.00    -0.204 F 
ATOM     11  C   UNL     1      35.458 -20.798 -19.674  0.00  0.00    +0.035 C 
ATOM     12  C   UNL     1      36.662 -20.281 -20.162  0.00  0.00    +0.005 C 
ATOM     13  C   UNL     1      34.262 -20.501 -20.332  0.00  0.00    +0.005 C 
ATOM     14  C   UNL     1      36.668 -19.472 -21.299  0.00  0.00    +0.030 C 
ATOM     15  C   UNL     1      34.267 -19.695 -21.469  0.00  0.00    +0.030 C 
ATOM     16  C   UNL     1      35.470 -19.180 -21.953  0.00  0.00    +0.140 C 
ENDBRANCH   9  11
BRANCH   8  19
ATOM     17  O   UNL     1      32.696 -22.345 -19.359  0.00  0.00    -0.270 OA
ATOM     18  N   UNL     1      32.169 -22.474 -17.119  0.00  0.00    -0.299 N 
ATOM     19  C   UNL     1      33.091 -22.369 -18.174  0.00  0.00    +0.249 C 
ATOM     20  C   UNL     1      30.740 -22.562 -17.315  0.00  0.00    +0.111 C 
ATOM     21  H   UNL     1      32.515 -22.490 -16.196  0.00  0.00    +0.150 HD
ENDBRANCH   8  19
BRANCH   2  22
ATOM     22  C   UNL     1      35.280 -25.114 -13.633  0.00  0.00    +0.024 C 
ATOM     23  C   UNL     1      33.833 -25.168 -13.261  0.00  0.00    +0.005 C 
ATOM     24  C   UNL     1      34.821 -24.496 -12.353  0.00  0.00    +0.005 C 
ENDBRANCH   2  22
BRANCH   3  25
ATOM     25  N   UNL     1      38.027 -24.295 -13.953  0.00  0.00    -0.192 N 
BRANCH  25  26
ATOM     26  S   UNL     1      38.917 -25.714 -14.363  0.00  0.00    +0.059 S 
ATOM     27  O   UNL     1      38.128 -26.535 -15.263  0.00  0.00    -0.154 OA
ATOM     28  O   UNL     1      39.500 -26.298 -13.168  0.00  0.00    -0.154 OA
ATOM     29  C   UNL     1      40.249 -25.030 -15.325  0.00  0.00    +0.200 C 
ENDBRANCH  25  26
BRANCH  25  30
ATOM     30  C   UNL     1      37.766 -24.034 -12.510  0.00  0.00    +0.147 C 
BRANCH  30  31
ATOM     31  C   UNL     1      37.881 -22.547 -12.232  0.00  0.00    +0.160 C 
BRANCH  31  32
ATOM     32  O   UNL     1      37.207 -22.241 -11.018  0.00  0.00    -0.380 OA
ATOM     33  H   UNL     1      36.252 -22.196 -11.182  0.00  0.00    +0.211 HD
ENDBRANCH  31  32
ENDBRANCH  30  31
ENDBRANCH  25  30
ENDBRANCH   3  25
TORSDOF 8
ENDMDL
MODEL 6
REMARK VINA RESULT:      -8.6      3.768      8.079
REMARK  Name = 11561383
REMARK  8 active torsions:
REMARK  status: ('A' for Active; 'I' for Inactive)
REMARK    1  A    between atoms: C_2  and  C_22
REMARK    2  A    between atoms: C_3  and  N_25
REMARK    3  A    between atoms: C_8  and  C_19
REMARK    4  A    between atoms: C_9  and  C_11
REMARK    5  A    between atoms: N_25  and  S_26
REMARK    6  A    between atoms: N_25  and  C_30
REMARK    7  A    between atoms: C_30  and  C_31
REMARK    8  A    between atoms: C_31  and  O_32
REMARK                            x       y       z     vdW  Elec       q    Type
REMARK                         _______ _______ _______ _____ _____    ______ ____
ROOT
ATOM      1  O   UNL     1      33.128 -14.559 -20.593  0.00  0.00    -0.453 OA
ATOM      2  C   UNL     1      34.612 -17.636 -22.852  0.00  0.00    -0.007 C 
ATOM      3  C   UNL     1      34.469 -17.856 -21.479  0.00  0.00    +0.068 C 
ATOM      4  C   UNL     1      34.259 -16.408 -23.427  0.00  0.00    +0.000 C 
ATOM      5  C   UNL     1      33.754 -15.393 -22.595  0.00  0.00    +0.042 A 
ATOM      6  C   UNL     1      33.970 -16.861 -20.633  0.00  0.00    +0.053 C 
ATOM      7  C   UNL     1      33.629 -15.651 -21.234  0.00  0.00    +0.147 A 
ATOM      8  C   UNL     1      33.299 -14.061 -22.780  0.00  0.00    +0.091 A 
ATOM      9  C   UNL     1      32.932 -13.601 -21.536  0.00  0.00    +0.150 A 
ENDROOT
BRANCH   9  11
ATOM     10  F   UNL     1      30.869  -8.797 -19.612  0.00  0.00    -0.204 F 
ATOM     11  C   UNL     1      32.400 -12.362 -21.040  0.00  0.00    +0.035 C 
ATOM     12  C   UNL     1      32.077 -12.228 -19.686  0.00  0.00    +0.005 C 
ATOM     13  C   UNL     1      32.202 -11.285 -21.907  0.00  0.00    +0.005 C 
ATOM     14  C   UNL     1      31.560 -11.025 -19.205  0.00  0.00    +0.030 C 
ATOM     15  C   UNL     1      31.686 -10.081 -21.426  0.00  0.00    +0.030 C 
ATOM     16  C   UNL     1      31.365  -9.952 -20.075  0.00  0.00    +0.140 C 
ENDBRANCH   9  11
BRANCH   8  19
ATOM     17  O   UNL     1      32.373 -13.540 -24.883  0.00  0.00    -0.270 OA
ATOM     18  N   UNL     1      34.143 -12.257 -24.152  0.00  0.00    -0.299 N 
ATOM     19  C   UNL     1      33.224 -13.308 -23.998  0.00  0.00    +0.249 C 
ATOM     20  C   UNL     1      34.175 -11.389 -25.308  0.00  0.00    +0.111 C 
ATOM     21  H   UNL     1      34.800 -12.102 -23.435  0.00  0.00    +0.150 HD
ENDBRANCH   8  19
BRANCH   2  22
ATOM     22  C   UNL     1      35.147 -18.710 -23.743  0.00  0.00    +0.024 C 
ATOM     23  C   UNL     1      35.057 -18.536 -25.225  0.00  0.00    +0.005 C 
ATOM     24  C   UNL     1      34.191 -19.545 -24.530  0.00  0.00    +0.005 C 
ENDBRANCH   2  22
BRANCH   3  25
ATOM     25  N   UNL     1      34.833 -19.116 -20.904  0.00  0.00    -0.192 N 
BRANCH  25  26
ATOM     26  S   UNL     1      36.515 -19.433 -20.694  0.00  0.00    +0.059 S 
ATOM     27  O   UNL     1      36.888 -19.160 -19.318  0.00  0.00    -0.154 OA
ATOM     28  O   UNL     1      37.272 -18.844 -21.784  0.00  0.00    -0.154 OA
ATOM     29  C   UNL     1      36.569 -21.200 -20.901  0.00  0.00    +0.200 C 
ENDBRANCH  25  26
BRANCH  25  30
ATOM     30  C   UNL     1      33.939 -20.276 -21.177  0.00  0.00    +0.147 C 
BRANCH  30  31
ATOM     31  C   UNL     1      33.063 -20.540 -19.966  0.00  0.00    +0.160 C 
BRANCH  31  32
ATOM     32  O   UNL     1      32.899 -21.943 -19.800  0.00  0.00    -0.380 OA
ATOM     33  H   UNL     1      33.248 -22.208 -18.935  0.00  0.00    +0.211 HD
ENDBRANCH  31  32
ENDBRANCH  30  31
ENDBRANCH  25  30
ENDBRANCH   3  25
TORSDOF 8
ENDMDL
MODEL 7
REMARK VINA RESULT:      -8.4      4.113      9.116
REMARK  Name = 11561383
REMARK  8 active torsions:
REMARK  status: ('A' for Active; 'I' for Inactive)
REMARK    1  A    between atoms: C_2  and  C_22
REMARK    2  A    between atoms: C_3  and  N_25
REMARK    3  A    between atoms: C_8  and  C_19
REMARK    4  A    between atoms: C_9  and  C_11
REMARK    5  A    between atoms: N_25  and  S_26
REMARK    6  A    between atoms: N_25  and  C_30
REMARK    7  A    between atoms: C_30  and  C_31
REMARK    8  A    between atoms: C_31  and  O_32
REMARK                            x       y       z     vdW  Elec       q    Type
REMARK                         _______ _______ _______ _____ _____    ______ ____
ROOT
ATOM      1  O   UNL     1      33.531 -11.009 -24.153  0.00  0.00    -0.453 OA
ATOM      2  C   UNL     1      33.026 -14.537 -22.134  0.00  0.00    -0.007 C 
ATOM      3  C   UNL     1      33.747 -14.578 -23.331  0.00  0.00    +0.068 C 
ATOM      4  C   UNL     1      32.499 -13.332 -21.648  0.00  0.00    +0.000 C 
ATOM      5  C   UNL     1      32.709 -12.156 -22.390  0.00  0.00    +0.042 A 
ATOM      6  C   UNL     1      33.967 -13.422 -24.084  0.00  0.00    +0.053 C 
ATOM      7  C   UNL     1      33.431 -12.239 -23.576  0.00  0.00    +0.147 A 
ATOM      8  C   UNL     1      32.356 -10.789 -22.247  0.00  0.00    +0.091 A 
ATOM      9  C   UNL     1      32.878 -10.138 -23.342  0.00  0.00    +0.150 A 
ENDROOT
BRANCH   9  11
ATOM     10  F   UNL     1      32.878  -4.849 -25.092  0.00  0.00    -0.204 F 
ATOM     11  C   UNL     1      32.878  -8.774 -23.793  0.00  0.00    +0.035 C 
ATOM     12  C   UNL     1      31.669  -8.106 -24.013  0.00  0.00    +0.005 C 
ATOM     13  C   UNL     1      34.085  -8.106 -24.015  0.00  0.00    +0.005 C 
ATOM     14  C   UNL     1      31.670  -6.782 -24.452  0.00  0.00    +0.030 C 
ATOM     15  C   UNL     1      34.086  -6.782 -24.452  0.00  0.00    +0.030 C 
ATOM     16  C   UNL     1      32.878  -6.120 -24.671  0.00  0.00    +0.140 C 
ENDBRANCH   9  11
BRANCH   8  19
ATOM     17  O   UNL     1      30.496 -10.599 -20.813  0.00  0.00    -0.270 OA
ATOM     18  N   UNL     1      32.189  -9.054 -20.571  0.00  0.00    -0.299 N 
ATOM     19  C   UNL     1      31.606 -10.169 -21.194  0.00  0.00    +0.249 C 
ATOM     20  C   UNL     1      31.573  -8.340 -19.476  0.00  0.00    +0.111 C 
ATOM     21  H   UNL     1      33.065  -8.741 -20.897  0.00  0.00    +0.150 HD
ENDBRANCH   8  19
BRANCH   2  22
ATOM     22  C   UNL     1      32.798 -15.783 -21.339  0.00  0.00    +0.024 C 
ATOM     23  C   UNL     1      31.760 -15.778 -20.264  0.00  0.00    +0.005 C 
ATOM     24  C   UNL     1      33.217 -15.817 -19.906  0.00  0.00    +0.005 C 
ENDBRANCH   2  22
BRANCH   3  25
ATOM     25  N   UNL     1      34.280 -15.815 -23.814  0.00  0.00    -0.192 N 
BRANCH  25  26
ATOM     26  S   UNL     1      34.001 -16.203 -25.471  0.00  0.00    +0.059 S 
ATOM     27  O   UNL     1      35.237 -16.050 -26.216  0.00  0.00    -0.154 OA
ATOM     28  O   UNL     1      32.787 -15.557 -25.936  0.00  0.00    -0.154 OA
ATOM     29  C   UNL     1      33.671 -17.950 -25.374  0.00  0.00    +0.200 C 
ENDBRANCH  25  26
BRANCH  25  30
ATOM     30  C   UNL     1      34.375 -16.944 -22.846  0.00  0.00    +0.147 C 
BRANCH  30  31
ATOM     31  C   UNL     1      35.830 -17.188 -22.489  0.00  0.00    +0.160 C 
BRANCH  31  32
ATOM     32  O   UNL     1      36.304 -18.327 -23.196  0.00  0.00    -0.380 OA
ATOM     33  H   UNL     1      36.795 -18.902 -22.588  0.00  0.00    +0.211 HD
ENDBRANCH  31  32
ENDBRANCH  30  31
ENDBRANCH  25  30
ENDBRANCH   3  25
TORSDOF 8
ENDMDL
MODEL 8
REMARK VINA RESULT:      -8.3      3.681      7.941
REMARK  Name = 11561383
REMARK  8 active torsions:
REMARK  status: ('A' for Active; 'I' for Inactive)
REMARK    1  A    between atoms: C_2  and  C_22
REMARK    2  A    between atoms: C_3  and  N_25
REMARK    3  A    between atoms: C_8  and  C_19
REMARK    4  A    between atoms: C_9  and  C_11
REMARK    5  A    between atoms: N_25  and  S_26
REMARK    6  A    between atoms: N_25  and  C_30
REMARK    7  A    between atoms: C_30  and  C_31
REMARK    8  A    between atoms: C_31  and  O_32
REMARK                            x       y       z     vdW  Elec       q    Type
REMARK                         _______ _______ _______ _____ _____    ______ ____
ROOT
ATOM      1  O   UNL     1      33.208 -14.069 -21.525  0.00  0.00    -0.453 OA
ATOM      2  C   UNL     1      34.578 -17.483 -23.325  0.00  0.00    -0.007 C 
ATOM      3  C   UNL     1      34.377 -17.520 -21.943  0.00  0.00    +0.068 C 
ATOM      4  C   UNL     1      34.319 -16.319 -24.062  0.00  0.00    +0.000 C 
ATOM      5  C   UNL     1      33.849 -15.181 -23.383  0.00  0.00    +0.042 A 
ATOM      6  C   UNL     1      33.911 -16.401 -21.247  0.00  0.00    +0.053 C 
ATOM      7  C   UNL     1      33.663 -15.259 -22.006  0.00  0.00    +0.147 A 
ATOM      8  C   UNL     1      33.481 -13.860 -23.749  0.00  0.00    +0.091 A 
ATOM      9  C   UNL     1      33.101 -13.228 -22.586  0.00  0.00    +0.150 A 
ENDROOT
BRANCH   9  11
ATOM     10  F   UNL     1      31.271  -8.112 -21.357  0.00  0.00    -0.204 F 
ATOM     11  C   UNL     1      32.629 -11.909 -22.269  0.00  0.00    +0.035 C 
ATOM     12  C   UNL     1      33.001 -10.820 -23.063  0.00  0.00    +0.005 C 
ATOM     13  C   UNL     1      31.796 -11.706 -21.166  0.00  0.00    +0.005 C 
ATOM     14  C   UNL     1      32.543  -9.538 -22.754  0.00  0.00    +0.030 C 
ATOM     15  C   UNL     1      31.337 -10.426 -20.858  0.00  0.00    +0.030 C 
ATOM     16  C   UNL     1      31.711  -9.342 -21.652  0.00  0.00    +0.140 C 
ENDBRANCH   9  11
BRANCH   8  19
ATOM     17  O   UNL     1      34.137 -12.226 -25.315  0.00  0.00    -0.270 OA
ATOM     18  N   UNL     1      32.755 -13.915 -26.055  0.00  0.00    -0.299 N 
ATOM     19  C   UNL     1      33.491 -13.263 -25.052  0.00  0.00    +0.249 C 
ATOM     20  C   UNL     1      32.690 -13.456 -27.423  0.00  0.00    +0.111 C 
ATOM     21  H   UNL     1      32.257 -14.730 -25.813  0.00  0.00    +0.150 HD
ENDBRANCH   8  19
BRANCH   2  22
ATOM     22  C   UNL     1      35.078 -18.689 -24.055  0.00  0.00    +0.024 C 
ATOM     23  C   UNL     1      34.940 -18.745 -25.542  0.00  0.00    +0.005 C 
ATOM     24  C   UNL     1      34.090 -19.625 -24.672  0.00  0.00    +0.005 C 
ENDBRANCH   2  22
BRANCH   3  25
ATOM     25  N   UNL     1      34.646 -18.717 -21.203  0.00  0.00    -0.192 N 
BRANCH  25  26
ATOM     26  S   UNL     1      36.298 -19.103 -20.897  0.00  0.00    +0.059 S 
ATOM     27  O   UNL     1      36.650 -18.679 -19.553  0.00  0.00    -0.154 OA
ATOM     28  O   UNL     1      37.120 -18.703 -22.024  0.00  0.00    -0.154 OA
ATOM     29  C   UNL     1      36.247 -20.882 -20.878  0.00  0.00    +0.200 C 
ENDBRANCH  25  26
BRANCH  25  30
ATOM     30  C   UNL     1      33.688 -19.847 -21.359  0.00  0.00    +0.147 C 
BRANCH  30  31
ATOM     31  C   UNL     1      32.653 -19.796 -20.250  0.00  0.00    +0.160 C 
BRANCH  31  32
ATOM     32  O   UNL     1      32.696 -21.010 -19.510  0.00  0.00    -0.380 OA
ATOM     33  H   UNL     1      33.545 -21.074 -19.044  0.00  0.00    +0.211 HD
ENDBRANCH  31  32
ENDBRANCH  30  31
ENDBRANCH  25  30
ENDBRANCH   3  25
TORSDOF 8
ENDMDL
MODEL 9
REMARK VINA RESULT:      -8.2      3.216      5.502
REMARK  Name = 11561383
REMARK  8 active torsions:
REMARK  status: ('A' for Active; 'I' for Inactive)
REMARK    1  A    between atoms: C_2  and  C_22
REMARK    2  A    between atoms: C_3  and  N_25
REMARK    3  A    between atoms: C_8  and  C_19
REMARK    4  A    between atoms: C_9  and  C_11
REMARK    5  A    between atoms: N_25  and  S_26
REMARK    6  A    between atoms: N_25  and  C_30
REMARK    7  A    between atoms: C_30  and  C_31
REMARK    8  A    between atoms: C_31  and  O_32
REMARK                            x       y       z     vdW  Elec       q    Type
REMARK                         _______ _______ _______ _____ _____    ______ ____
ROOT
ATOM      1  O   UNL     1      33.487 -12.804 -24.366  0.00  0.00    -0.453 OA
ATOM      2  C   UNL     1      32.093  -9.747 -22.023  0.00  0.00    -0.007 C 
ATOM      3  C   UNL     1      32.481  -9.432 -23.329  0.00  0.00    +0.068 C 
ATOM      4  C   UNL     1      32.179 -11.060 -21.541  0.00  0.00    +0.000 C 
ATOM      5  C   UNL     1      32.666 -12.063 -22.397  0.00  0.00    +0.042 A 
ATOM      6  C   UNL     1      32.968 -10.413 -24.197  0.00  0.00    +0.053 C 
ATOM      7  C   UNL     1      33.043 -11.709 -23.688  0.00  0.00    +0.147 A 
ATOM      8  C   UNL     1      32.898 -13.460 -22.296  0.00  0.00    +0.091 A 
ATOM      9  C   UNL     1      33.396 -13.859 -23.516  0.00  0.00    +0.150 A 
ENDROOT
BRANCH   9  11
ATOM     10  F   UNL     1      35.056 -18.735 -25.636  0.00  0.00    -0.204 F 
ATOM     11  C   UNL     1      33.824 -15.116 -24.062  0.00  0.00    +0.035 C 
ATOM     12  C   UNL     1      33.322 -15.556 -25.291  0.00  0.00    +0.005 C 
ATOM     13  C   UNL     1      34.744 -15.908 -23.370  0.00  0.00    +0.005 C 
ATOM     14  C   UNL     1      33.738 -16.777 -25.822  0.00  0.00    +0.030 C 
ATOM     15  C   UNL     1      35.161 -17.128 -23.900  0.00  0.00    +0.030 C 
ATOM     16  C   UNL     1      34.657 -17.563 -25.126  0.00  0.00    +0.140 C 
ENDBRANCH   9  11
BRANCH   8  19
ATOM     17  O   UNL     1      32.827 -13.937 -19.989  0.00  0.00    -0.270 OA
ATOM     18  N   UNL     1      32.246 -15.627 -21.444  0.00  0.00    -0.299 N 
ATOM     19  C   UNL     1      32.676 -14.319 -21.169  0.00  0.00    +0.249 C 
ATOM     20  C   UNL     1      31.952 -16.602 -20.418  0.00  0.00    +0.111 C 
ATOM     21  H   UNL     1      32.138 -15.895 -22.386  0.00  0.00    +0.150 HD
ENDBRANCH   8  19
BRANCH   2  22
ATOM     22  C   UNL     1      31.574  -8.686 -21.107  0.00  0.00    +0.024 C 
ATOM     23  C   UNL     1      32.528  -7.988 -20.191  0.00  0.00    +0.005 C 
ATOM     24  C   UNL     1      31.523  -8.955 -19.638  0.00  0.00    +0.005 C 
ENDBRANCH   2  22
BRANCH   3  25
ATOM     25  N   UNL     1      32.387  -8.086 -23.809  0.00  0.00    -0.192 N 
BRANCH  25  26
ATOM     26  S   UNL     1      33.692  -7.022 -23.439  0.00  0.00    +0.059 S 
ATOM     27  O   UNL     1      34.771  -7.777 -22.828  0.00  0.00    -0.154 OA
ATOM     28  O   UNL     1      33.189  -5.822 -22.796  0.00  0.00    -0.154 OA
ATOM     29  C   UNL     1      34.244  -6.562 -25.068  0.00  0.00    +0.200 C 
ENDBRANCH  25  26
BRANCH  25  30
ATOM     30  C   UNL     1      31.025  -7.496 -23.927  0.00  0.00    +0.147 C 
BRANCH  30  31
ATOM     31  C   UNL     1      31.063  -6.310 -24.873  0.00  0.00    +0.160 C 
BRANCH  31  32
ATOM     32  O   UNL     1      30.655  -5.139 -24.177  0.00  0.00    -0.380 OA
ATOM     33  H   UNL     1      31.304  -4.433 -24.326  0.00  0.00    +0.211 HD
ENDBRANCH  31  32
ENDBRANCH  30  31
ENDBRANCH  25  30
ENDBRANCH   3  25
TORSDOF 8
ENDMDL
