MODEL 1
REMARK VINA RESULT:      -5.2      0.000      0.000
REMARK  Name = 6306
REMARK  5 active torsions:
REMARK  status: ('A' for Active; 'I' for Inactive)
REMARK    1  A    between atoms: CA_1  and  N_2
REMARK    2  A    between atoms: CA_1  and  C_7
REMARK    3  A    between atoms: CA_1  and  CB_10
REMARK    4  A    between atoms: C_7  and  O_8
REMARK    5  A    between atoms: CB_10  and  CG1_12
REMARK                            x       y       z     vdW  Elec       q    Type
REMARK                         _______ _______ _______ _____ _____    ______ ____
ROOT
ATOM      1  CA  ILE A   1      35.799 -18.388 -21.603  0.00  0.00    +0.036 C 
ENDROOT
BRANCH   1   2
ATOM      2  N   ILE A   1      35.248 -17.325 -20.758  0.00  0.00    +0.389 N 
ATOM      3  H1  ILE A   1      35.686 -16.436 -21.000  0.00  0.00    -0.088 HD
ATOM      4  H2  ILE A   1      35.433 -17.539 -19.778  0.00  0.00    -0.088 HD
ATOM      5  H3  ILE A   1      34.241 -17.259 -20.907  0.00  0.00    -0.088 HD
ENDBRANCH   1   2
BRANCH   1   7
ATOM      6  OXT ILE A   1      35.249 -18.644 -23.965  0.00  0.00    -0.253 OA
ATOM      7  C   ILE A   1      35.590 -17.922 -23.038  0.00  0.00    +0.293 C 
BRANCH   7   8
ATOM      8  O   ILE A   1      35.799 -16.587 -23.185  0.00  0.00    -0.482 OA
ATOM      9  H   ILE A   1      35.923 -16.046 -22.430  0.00  0.00    +0.295 HD
ENDBRANCH   7   8
ENDBRANCH   1   7
BRANCH   1  10
ATOM     10  CB  ILE A   1      35.095 -19.746 -21.361  0.00  0.00    -0.010 C 
ATOM     11  CG2 ILE A   1      35.853 -20.589 -20.324  0.00  0.00    -0.002 C 
BRANCH  10  12
ATOM     12  CG1 ILE A   1      33.608 -19.620 -20.956  0.00  0.00    -0.002 C 
ATOM     13  CD1 ILE A   1      33.119 -20.655 -19.953  0.00  0.00    -0.000 C 
ENDBRANCH  10  12
ENDBRANCH   1  10
TORSDOF 5
ENDMDL
MODEL 2
REMARK VINA RESULT:      -5.2     10.545     11.235
REMARK  Name = 6306
REMARK  5 active torsions:
REMARK  status: ('A' for Active; 'I' for Inactive)
REMARK    1  A    between atoms: CA_1  and  N_2
REMARK    2  A    between atoms: CA_1  and  C_7
REMARK    3  A    between atoms: CA_1  and  CB_10
REMARK    4  A    between atoms: C_7  and  O_8
REMARK    5  A    between atoms: CB_10  and  CG1_12
REMARK                            x       y       z     vdW  Elec       q    Type
REMARK                         _______ _______ _______ _____ _____    ______ ____
ROOT
ATOM      1  CA  ILE A   1      38.926 -25.155 -14.397  0.00  0.00    +0.036 C 
ENDROOT
BRANCH   1   2
ATOM      2  N   ILE A   1      37.912 -25.699 -15.304  0.00  0.00    +0.389 N 
ATOM      3  H1  ILE A   1      38.232 -25.608 -16.268  0.00  0.00    -0.088 HD
ATOM      4  H2  ILE A   1      37.039 -25.185 -15.186  0.00  0.00    -0.088 HD
ATOM      5  H3  ILE A   1      37.757 -26.685 -15.089  0.00  0.00    -0.088 HD
ENDBRANCH   1   2
BRANCH   1   7
ATOM      6  OXT ILE A   1      40.946 -26.424 -13.892  0.00  0.00    -0.253 OA
ATOM      7  C   ILE A   1      40.212 -25.904 -14.721  0.00  0.00    +0.293 C 
BRANCH   7   8
ATOM      8  O   ILE A   1      40.454 -25.964 -16.057  0.00  0.00    -0.482 OA
ATOM      9  H   ILE A   1      40.693 -26.778 -16.453  0.00  0.00    +0.295 HD
ENDBRANCH   7   8
ENDBRANCH   1   7
BRANCH   1  10
ATOM     10  CB  ILE A   1      38.540 -25.349 -12.910  0.00  0.00    -0.010 C 
ATOM     11  CG2 ILE A   1      38.644 -24.028 -12.130  0.00  0.00    -0.002 C 
BRANCH  10  12
ATOM     12  CG1 ILE A   1      37.143 -25.978 -12.700  0.00  0.00    -0.002 C 
ATOM     13  CD1 ILE A   1      36.096 -25.049 -12.100  0.00  0.00    -0.000 C 
ENDBRANCH  10  12
ENDBRANCH   1  10
TORSDOF 5
ENDMDL
MODEL 3
REMARK VINA RESULT:      -5.1      9.203     10.301
REMARK  Name = 6306
REMARK  5 active torsions:
REMARK  status: ('A' for Active; 'I' for Inactive)
REMARK    1  A    between atoms: CA_1  and  N_2
REMARK    2  A    between atoms: CA_1  and  C_7
REMARK    3  A    between atoms: CA_1  and  CB_10
REMARK    4  A    between atoms: C_7  and  O_8
REMARK    5  A    between atoms: CB_10  and  CG1_12
REMARK                            x       y       z     vdW  Elec       q    Type
REMARK                         _______ _______ _______ _____ _____    ______ ____
ROOT
ATOM      1  CA  ILE A   1      40.942 -14.369 -15.897  0.00  0.00    +0.036 C 
ENDROOT
BRANCH   1   2
ATOM      2  N   ILE A   1      41.244 -13.608 -14.682  0.00  0.00    +0.389 N 
ATOM      3  H1  ILE A   1      40.931 -14.132 -13.865  0.00  0.00    -0.088 HD
ATOM      4  H2  ILE A   1      40.761 -12.710 -14.714  0.00  0.00    -0.088 HD
ATOM      5  H3  ILE A   1      42.250 -13.450 -14.620  0.00  0.00    -0.088 HD
ENDBRANCH   1   2
BRANCH   1   7
ATOM      6  OXT ILE A   1      42.122 -16.454 -15.440  0.00  0.00    -0.253 OA
ATOM      7  C   ILE A   1      41.068 -15.835 -15.505  0.00  0.00    +0.293 C 
BRANCH   7   8
ATOM      8  O   ILE A   1      39.868 -16.395 -15.202  0.00  0.00    -0.482 OA
ATOM      9  H   ILE A   1      39.180 -16.401 -15.837  0.00  0.00    +0.295 HD
ENDBRANCH   7   8
ENDBRANCH   1   7
BRANCH   1  10
ATOM     10  CB  ILE A   1      41.915 -14.026 -17.053  0.00  0.00    -0.010 C 
ATOM     11  CG2 ILE A   1      41.466 -14.677 -18.370  0.00  0.00    -0.002 C 
BRANCH  10  12
ATOM     12  CG1 ILE A   1      42.137 -12.510 -17.260  0.00  0.00    -0.002 C 
ATOM     13  CD1 ILE A   1      43.565 -12.027 -17.044  0.00  0.00    -0.000 C 
ENDBRANCH  10  12
ENDBRANCH   1  10
TORSDOF 5
ENDMDL
MODEL 4
REMARK VINA RESULT:      -5.0      1.387      1.991
REMARK  Name = 6306
REMARK  5 active torsions:
REMARK  status: ('A' for Active; 'I' for Inactive)
REMARK    1  A    between atoms: CA_1  and  N_2
REMARK    2  A    between atoms: CA_1  and  C_7
REMARK    3  A    between atoms: CA_1  and  CB_10
REMARK    4  A    between atoms: C_7  and  O_8
REMARK    5  A    between atoms: CB_10  and  CG1_12
REMARK                            x       y       z     vdW  Elec       q    Type
REMARK                         _______ _______ _______ _____ _____    ______ ____
ROOT
ATOM      1  CA  ILE A   1      35.296 -17.499 -22.002  0.00  0.00    +0.036 C 
ENDROOT
BRANCH   1   2
ATOM      2  N   ILE A   1      35.192 -17.113 -20.592  0.00  0.00    +0.389 N 
ATOM      3  H1  ILE A   1      34.531 -16.343 -20.498  0.00  0.00    -0.088 HD
ATOM      4  H2  ILE A   1      36.107 -16.819 -20.251  0.00  0.00    -0.088 HD
ATOM      5  H3  ILE A   1      34.867 -17.911 -20.044  0.00  0.00    -0.088 HD
ENDBRANCH   1   2
BRANCH   1   7
ATOM      6  OXT ILE A   1      33.822 -15.631 -22.537  0.00  0.00    -0.253 OA
ATOM      7  C   ILE A   1      34.821 -16.289 -22.795  0.00  0.00    +0.293 C 
BRANCH   7   8
ATOM      8  O   ILE A   1      35.652 -15.988 -23.827  0.00  0.00    -0.482 OA
ATOM      9  H   ILE A   1      35.687 -15.113 -24.160  0.00  0.00    +0.295 HD
ENDBRANCH   7   8
ENDBRANCH   1   7
BRANCH   1  10
ATOM     10  CB  ILE A   1      34.430 -18.742 -22.329  0.00  0.00    -0.010 C 
ATOM     11  CG2 ILE A   1      34.889 -19.413 -23.633  0.00  0.00    -0.002 C 
BRANCH  10  12
ATOM     12  CG1 ILE A   1      34.370 -19.785 -21.189  0.00  0.00    -0.002 C 
ATOM     13  CD1 ILE A   1      32.986 -20.025 -20.602  0.00  0.00    -0.000 C 
ENDBRANCH  10  12
ENDBRANCH   1  10
TORSDOF 5
ENDMDL
MODEL 5
REMARK VINA RESULT:      -5.0      1.612      2.345
REMARK  Name = 6306
REMARK  5 active torsions:
REMARK  status: ('A' for Active; 'I' for Inactive)
REMARK    1  A    between atoms: CA_1  and  N_2
REMARK    2  A    between atoms: CA_1  and  C_7
REMARK    3  A    between atoms: CA_1  and  CB_10
REMARK    4  A    between atoms: C_7  and  O_8
REMARK    5  A    between atoms: CB_10  and  CG1_12
REMARK                            x       y       z     vdW  Elec       q    Type
REMARK                         _______ _______ _______ _____ _____    ______ ____
ROOT
ATOM      1  CA  ILE A   1      34.335 -18.698 -21.899  0.00  0.00    +0.036 C 
ENDROOT
BRANCH   1   2
ATOM      2  N   ILE A   1      34.950 -19.374 -23.043  0.00  0.00    +0.389 N 
ATOM      3  H1  ILE A   1      34.279 -20.019 -23.460  0.00  0.00    -0.088 HD
ATOM      4  H2  ILE A   1      35.771 -19.894 -22.730  0.00  0.00    -0.088 HD
ATOM      5  H3  ILE A   1      35.233 -18.681 -23.737  0.00  0.00    -0.088 HD
ENDBRANCH   1   2
BRANCH   1   7
ATOM      6  OXT ILE A   1      35.319 -16.898 -20.579  0.00  0.00    -0.253 OA
ATOM      7  C   ILE A   1      35.169 -17.446 -21.663  0.00  0.00    +0.293 C 
BRANCH   7   8
ATOM      8  O   ILE A   1      35.769 -17.002 -22.799  0.00  0.00    -0.482 OA
ATOM      9  H   ILE A   1      35.785 -16.086 -22.992  0.00  0.00    +0.295 HD
ENDBRANCH   7   8
ENDBRANCH   1   7
BRANCH   1  10
ATOM     10  CB  ILE A   1      34.321 -19.592 -20.633  0.00  0.00    -0.010 C 
ATOM     11  CG2 ILE A   1      33.008 -20.382 -20.524  0.00  0.00    -0.002 C 
BRANCH  10  12
ATOM     12  CG1 ILE A   1      35.528 -20.554 -20.531  0.00  0.00    -0.002 C 
ATOM     13  CD1 ILE A   1      35.418 -21.619 -19.448  0.00  0.00    -0.000 C 
ENDBRANCH  10  12
ENDBRANCH   1  10
TORSDOF 5
ENDMDL
MODEL 6
REMARK VINA RESULT:      -5.0      8.507      9.463
REMARK  Name = 6306
REMARK  5 active torsions:
REMARK  status: ('A' for Active; 'I' for Inactive)
REMARK    1  A    between atoms: CA_1  and  N_2
REMARK    2  A    between atoms: CA_1  and  C_7
REMARK    3  A    between atoms: CA_1  and  CB_10
REMARK    4  A    between atoms: C_7  and  O_8
REMARK    5  A    between atoms: CB_10  and  CG1_12
REMARK                            x       y       z     vdW  Elec       q    Type
REMARK                         _______ _______ _______ _____ _____    ______ ____
ROOT
ATOM      1  CA  ILE A   1      28.848 -23.460 -15.456  0.00  0.00    +0.036 C 
ENDROOT
BRANCH   1   2
ATOM      2  N   ILE A   1      28.978 -24.919 -15.483  0.00  0.00    +0.389 N 
ATOM      3  H1  ILE A   1      29.590 -25.193 -16.251  0.00  0.00    -0.088 HD
ATOM      4  H2  ILE A   1      28.058 -25.341 -15.614  0.00  0.00    -0.088 HD
ATOM      5  H3  ILE A   1      29.376 -25.241 -14.599  0.00  0.00    -0.088 HD
ENDBRANCH   1   2
BRANCH   1   7
ATOM      6  OXT ILE A   1      27.785 -23.885 -17.610  0.00  0.00    -0.253 OA
ATOM      7  C   ILE A   1      28.143 -23.087 -16.754  0.00  0.00    +0.293 C 
BRANCH   7   8
ATOM      8  O   ILE A   1      27.922 -21.750 -16.858  0.00  0.00    -0.482 OA
ATOM      9  H   ILE A   1      28.556 -21.144 -16.531  0.00  0.00    +0.295 HD
ENDBRANCH   7   8
ENDBRANCH   1   7
BRANCH   1  10
ATOM     10  CB  ILE A   1      30.224 -22.755 -15.360  0.00  0.00    -0.010 C 
ATOM     11  CG2 ILE A   1      30.977 -23.176 -14.087  0.00  0.00    -0.002 C 
BRANCH  10  12
ATOM     12  CG1 ILE A   1      31.125 -22.961 -16.600  0.00  0.00    -0.002 C 
ATOM     13  CD1 ILE A   1      32.565 -23.354 -16.298  0.00  0.00    -0.000 C 
ENDBRANCH  10  12
ENDBRANCH   1  10
TORSDOF 5
ENDMDL
MODEL 7
REMARK VINA RESULT:      -4.9      9.777     10.845
REMARK  Name = 6306
REMARK  5 active torsions:
REMARK  status: ('A' for Active; 'I' for Inactive)
REMARK    1  A    between atoms: CA_1  and  N_2
REMARK    2  A    between atoms: CA_1  and  C_7
REMARK    3  A    between atoms: CA_1  and  CB_10
REMARK    4  A    between atoms: C_7  and  O_8
REMARK    5  A    between atoms: CB_10  and  CG1_12
REMARK                            x       y       z     vdW  Elec       q    Type
REMARK                         _______ _______ _______ _____ _____    ______ ____
ROOT
ATOM      1  CA  ILE A   1      36.902 -25.643 -13.710  0.00  0.00    +0.036 C 
ENDROOT
BRANCH   1   2
ATOM      2  N   ILE A   1      37.098 -27.054 -13.371  0.00  0.00    +0.389 N 
ATOM      3  H1  ILE A   1      37.865 -27.435 -13.925  0.00  0.00    -0.088 HD
ATOM      4  H2  ILE A   1      36.244 -27.575 -13.572  0.00  0.00    -0.088 HD
ATOM      5  H3  ILE A   1      37.321 -27.138 -12.379  0.00  0.00    -0.088 HD
ENDBRANCH   1   2
BRANCH   1   7
ATOM      6  OXT ILE A   1      35.855 -24.751 -15.724  0.00  0.00    -0.253 OA
ATOM      7  C   ILE A   1      36.523 -25.623 -15.185  0.00  0.00    +0.293 C 
BRANCH   7   8
ATOM      8  O   ILE A   1      37.035 -26.682 -15.866  0.00  0.00    -0.482 OA
ATOM      9  H   ILE A   1      37.124 -26.641 -16.797  0.00  0.00    +0.295 HD
ENDBRANCH   7   8
ENDBRANCH   1   7
BRANCH   1  10
ATOM     10  CB  ILE A   1      38.181 -24.803 -13.463  0.00  0.00    -0.010 C 
ATOM     11  CG2 ILE A   1      38.144 -24.125 -12.085  0.00  0.00    -0.002 C 
BRANCH  10  12
ATOM     12  CG1 ILE A   1      39.497 -25.599 -13.627  0.00  0.00    -0.002 C 
ATOM     13  CD1 ILE A   1      40.244 -25.354 -14.931  0.00  0.00    -0.000 C 
ENDBRANCH  10  12
ENDBRANCH   1  10
TORSDOF 5
ENDMDL
MODEL 8
REMARK VINA RESULT:      -4.9      9.088     10.210
REMARK  Name = 6306
REMARK  5 active torsions:
REMARK  status: ('A' for Active; 'I' for Inactive)
REMARK    1  A    between atoms: CA_1  and  N_2
REMARK    2  A    between atoms: CA_1  and  C_7
REMARK    3  A    between atoms: CA_1  and  CB_10
REMARK    4  A    between atoms: C_7  and  O_8
REMARK    5  A    between atoms: CB_10  and  CG1_12
REMARK                            x       y       z     vdW  Elec       q    Type
REMARK                         _______ _______ _______ _____ _____    ______ ____
ROOT
ATOM      1  CA  ILE A   1      38.497 -25.661 -14.630  0.00  0.00    +0.036 C 
ENDROOT
BRANCH   1   2
ATOM      2  N   ILE A   1      38.482 -26.169 -13.256  0.00  0.00    +0.389 N 
ATOM      3  H1  ILE A   1      39.436 -26.219 -12.900  0.00  0.00    -0.088 HD
ATOM      4  H2  ILE A   1      38.065 -27.100 -13.241  0.00  0.00    -0.088 HD
ATOM      5  H3  ILE A   1      37.931 -25.542 -12.668  0.00  0.00    -0.088 HD
ENDBRANCH   1   2
BRANCH   1   7
ATOM      6  OXT ILE A   1      40.709 -24.720 -14.216  0.00  0.00    -0.253 OA
ATOM      7  C   ILE A   1      39.957 -25.360 -14.941  0.00  0.00    +0.293 C 
BRANCH   7   8
ATOM      8  O   ILE A   1      40.361 -25.907 -16.117  0.00  0.00    -0.482 OA
ATOM      9  H   ILE A   1      39.803 -25.866 -16.868  0.00  0.00    +0.295 HD
ENDBRANCH   7   8
ENDBRANCH   1   7
BRANCH   1  10
ATOM     10  CB  ILE A   1      37.630 -24.387 -14.788  0.00  0.00    -0.010 C 
ATOM     11  CG2 ILE A   1      37.371 -23.717 -13.430  0.00  0.00    -0.002 C 
BRANCH  10  12
ATOM     12  CG1 ILE A   1      38.204 -23.356 -15.788  0.00  0.00    -0.002 C 
ATOM     13  CD1 ILE A   1      37.192 -22.368 -16.353  0.00  0.00    -0.000 C 
ENDBRANCH  10  12
ENDBRANCH   1  10
TORSDOF 5
ENDMDL
MODEL 9
REMARK VINA RESULT:      -4.8     10.571     11.695
REMARK  Name = 6306
REMARK  5 active torsions:
REMARK  status: ('A' for Active; 'I' for Inactive)
REMARK    1  A    between atoms: CA_1  and  N_2
REMARK    2  A    between atoms: CA_1  and  C_7
REMARK    3  A    between atoms: CA_1  and  CB_10
REMARK    4  A    between atoms: C_7  and  O_8
REMARK    5  A    between atoms: CB_10  and  CG1_12
REMARK                            x       y       z     vdW  Elec       q    Type
REMARK                         _______ _______ _______ _____ _____    ______ ____
ROOT
ATOM      1  CA  ILE A   1      36.874 -23.874 -12.258  0.00  0.00    +0.036 C 
ENDROOT
BRANCH   1   2
ATOM      2  N   ILE A   1      38.086 -23.431 -11.562  0.00  0.00    +0.389 N 
ATOM      3  H1  ILE A   1      38.131 -22.412 -11.570  0.00  0.00    -0.088 HD
ATOM      4  H2  ILE A   1      38.907 -23.811 -12.033  0.00  0.00    -0.088 HD
ATOM      5  H3  ILE A   1      38.065 -23.763 -10.597  0.00  0.00    -0.088 HD
ENDBRANCH   1   2
BRANCH   1   7
ATOM      6  OXT ILE A   1      36.095 -24.180  -9.967  0.00  0.00    -0.253 OA
ATOM      7  C   ILE A   1      35.928 -24.356 -11.167  0.00  0.00    +0.293 C 
BRANCH   7   8
ATOM      8  O   ILE A   1      34.838 -24.991 -11.670  0.00  0.00    -0.482 OA
ATOM      9  H   ILE A   1      34.237 -24.528 -12.220  0.00  0.00    +0.295 HD
ENDBRANCH   7   8
ENDBRANCH   1   7
BRANCH   1  10
ATOM     10  CB  ILE A   1      37.168 -25.010 -13.269  0.00  0.00    -0.010 C 
ATOM     11  CG2 ILE A   1      37.076 -24.504 -14.717  0.00  0.00    -0.002 C 
BRANCH  10  12
ATOM     12  CG1 ILE A   1      38.522 -25.720 -13.041  0.00  0.00    -0.002 C 
ATOM     13  CD1 ILE A   1      39.547 -25.534 -14.152  0.00  0.00    -0.000 C 
ENDBRANCH  10  12
ENDBRANCH   1  10
TORSDOF 5
ENDMDL
