MODEL 1
REMARK VINA RESULT:      -8.6      0.000      0.000
REMARK  Name = 9867642
REMARK  6 active torsions:
REMARK  status: ('A' for Active; 'I' for Inactive)
REMARK    1  A    between atoms: N_2  and  C_23
REMARK    2  A    between atoms: C_3  and  C_18
REMARK    3  A    between atoms: C_10  and  S_14
REMARK    4  A    between atoms: C_18  and  C_20
REMARK    5  A    between atoms: C_20  and  O_21
REMARK    6  A    between atoms: C_23  and  C_25
REMARK                            x       y       z     vdW  Elec       q    Type
REMARK                         _______ _______ _______ _____ _____    ______ ____
ROOT
ATOM      1  F   UNL     1      33.190  -6.604 -20.657  0.00  0.00    -0.204 F 
ATOM      2  N   UNL     1      32.846 -11.412 -23.263  0.00  0.00    -0.326 N 
ATOM      3  C   UNL     1      34.114 -11.944 -25.484  0.00  0.00    +0.049 C 
ATOM      4  C   UNL     1      33.658 -11.162 -24.314  0.00  0.00    +0.034 A 
ATOM      5  C   UNL     1      34.158  -9.895 -24.226  0.00  0.00    -0.009 A 
ATOM      6  C   UNL     1      35.284 -11.015 -25.984  0.00  0.00    +0.011 C 
ATOM      7  C   UNL     1      35.056  -9.591 -25.358  0.00  0.00    +0.028 C 
ATOM      8  C   UNL     1      33.636  -9.300 -23.066  0.00  0.00    +0.016 A 
ATOM      9  C   UNL     1      32.809 -10.272 -22.472  0.00  0.00    +0.077 A 
ATOM     10  C   UNL     1      32.110 -10.031 -21.282  0.00  0.00    +0.124 C 
ATOM     11  C   UNL     1      33.766  -8.043 -22.445  0.00  0.00    +0.031 C 
ATOM     12  C   UNL     1      32.257  -8.775 -20.686  0.00  0.00    +0.049 C 
ATOM     13  C   UNL     1      33.070  -7.797 -21.257  0.00  0.00    +0.142 C 
ENDROOT
BRANCH  10  14
ATOM     14  S   UNL     1      31.060 -11.179 -20.471  0.00  0.00    +0.012 S 
ATOM     15  O   UNL     1      29.905 -11.397 -21.324  0.00  0.00    -0.169 OA
ATOM     16  O   UNL     1      31.863 -12.307 -20.027  0.00  0.00    -0.169 OA
ATOM     17  C   UNL     1      30.518 -10.316 -19.016  0.00  0.00    +0.182 C 
ENDBRANCH  10  14
BRANCH   3  18
ATOM     18  C   UNL     1      33.023 -12.093 -26.534  0.00  0.00    +0.115 C 
BRANCH  18  20
ATOM     19  O   UNL     1      34.008 -13.800 -27.966  0.00  0.00    -0.250 OA
ATOM     20  C   UNL     1      33.101 -13.420 -27.241  0.00  0.00    +0.314 C 
BRANCH  20  21
ATOM     21  O   UNL     1      31.998 -14.161 -26.960  0.00  0.00    -0.480 OA
ATOM     22  H   UNL     1      31.499 -13.983 -26.188  0.00  0.00    +0.295 HD
ENDBRANCH  20  21
ENDBRANCH  18  20
ENDBRANCH   3  18
BRANCH   2  23
ATOM     23  C   UNL     1      32.157 -12.661 -23.031  0.00  0.00    +0.132 C 
BRANCH  23  25
ATOM     24 CL   UNL     1      36.008 -17.243 -22.581  0.00  0.00    -0.082 Cl
ATOM     25  C   UNL     1      33.124 -13.809 -22.920  0.00  0.00    +0.000 C 
ATOM     26  C   UNL     1      33.235 -14.715 -23.965  0.00  0.00    -0.002 C 
ATOM     27  C   UNL     1      33.891 -13.947 -21.771  0.00  0.00    -0.002 C 
ATOM     28  C   UNL     1      34.129 -15.780 -23.861  0.00  0.00    +0.011 C 
ATOM     29  C   UNL     1      34.787 -15.012 -21.666  0.00  0.00    +0.011 C 
ATOM     30  C   UNL     1      34.906 -15.929 -22.711  0.00  0.00    +0.058 C 
ENDBRANCH  23  25
ENDBRANCH   2  23
TORSDOF 6
ENDMDL
MODEL 2
REMARK VINA RESULT:      -7.1     12.317     15.449
REMARK  Name = 9867642
REMARK  6 active torsions:
REMARK  status: ('A' for Active; 'I' for Inactive)
REMARK    1  A    between atoms: N_2  and  C_23
REMARK    2  A    between atoms: C_3  and  C_18
REMARK    3  A    between atoms: C_10  and  S_14
REMARK    4  A    between atoms: C_18  and  C_20
REMARK    5  A    between atoms: C_20  and  O_21
REMARK    6  A    between atoms: C_23  and  C_25
REMARK                            x       y       z     vdW  Elec       q    Type
REMARK                         _______ _______ _______ _____ _____    ______ ____
ROOT
ATOM      1  F   UNL     1      36.271 -24.011 -10.199  0.00  0.00    -0.204 F 
ATOM      2  N   UNL     1      33.899 -24.278 -15.131  0.00  0.00    -0.326 N 
ATOM      3  C   UNL     1      31.456 -23.483 -15.602  0.00  0.00    +0.049 C 
ATOM      4  C   UNL     1      32.685 -23.765 -14.830  0.00  0.00    +0.034 A 
ATOM      5  C   UNL     1      32.634 -23.435 -13.506  0.00  0.00    -0.009 A 
ATOM      6  C   UNL     1      30.684 -22.592 -14.556  0.00  0.00    +0.011 C 
ATOM      7  C   UNL     1      31.321 -22.865 -13.145  0.00  0.00    +0.028 C 
ATOM      8  C   UNL     1      33.872 -23.758 -12.928  0.00  0.00    +0.016 A 
ATOM      9  C   UNL     1      34.658 -24.290 -13.969  0.00  0.00    +0.077 A 
ATOM     10  C   UNL     1      35.971 -24.729 -13.762  0.00  0.00    +0.124 C 
ATOM     11  C   UNL     1      34.425 -23.663 -11.637  0.00  0.00    +0.031 C 
ATOM     12  C   UNL     1      36.496 -24.623 -12.470  0.00  0.00    +0.049 C 
ATOM     13  C   UNL     1      35.737 -24.099 -11.424  0.00  0.00    +0.142 C 
ENDROOT
BRANCH  10  14
ATOM     14  S   UNL     1      37.023 -25.403 -14.995  0.00  0.00    +0.012 S 
ATOM     15  O   UNL     1      36.306 -26.492 -15.635  0.00  0.00    -0.169 OA
ATOM     16  O   UNL     1      37.558 -24.313 -15.793  0.00  0.00    -0.169 OA
ATOM     17  C   UNL     1      38.376 -26.096 -14.076  0.00  0.00    +0.182 C 
ENDBRANCH  10  14
BRANCH   3  18
ATOM     18  C   UNL     1      30.688 -24.752 -15.940  0.00  0.00    +0.115 C 
BRANCH  18  20
ATOM     19  O   UNL     1      28.414 -23.970 -16.331  0.00  0.00    -0.250 OA
ATOM     20  C   UNL     1      29.214 -24.607 -15.664  0.00  0.00    +0.314 C 
BRANCH  20  21
ATOM     21  O   UNL     1      28.883 -25.299 -14.544  0.00  0.00    -0.480 OA
ATOM     22  H   UNL     1      28.367 -26.078 -14.610  0.00  0.00    +0.295 HD
ENDBRANCH  20  21
ENDBRANCH  18  20
ENDBRANCH   3  18
BRANCH   2  23
ATOM     23  C   UNL     1      34.304 -24.720 -16.445  0.00  0.00    +0.132 C 
BRANCH  23  25
ATOM     24 CL   UNL     1      34.892 -20.104 -20.236  0.00  0.00    -0.082 Cl
ATOM     25  C   UNL     1      34.450 -23.562 -17.395  0.00  0.00    +0.000 C 
ATOM     26  C   UNL     1      33.477 -23.340 -18.358  0.00  0.00    -0.002 C 
ATOM     27  C   UNL     1      35.558 -22.732 -17.294  0.00  0.00    -0.002 C 
ATOM     28  C   UNL     1      33.613 -22.268 -19.240  0.00  0.00    +0.011 C 
ATOM     29  C   UNL     1      35.695 -21.658 -18.176  0.00  0.00    +0.011 C 
ATOM     30  C   UNL     1      34.723 -21.426 -19.148  0.00  0.00    +0.058 C 
ENDBRANCH  23  25
ENDBRANCH   2  23
TORSDOF 6
ENDMDL
MODEL 3
REMARK VINA RESULT:      -6.4     12.217     15.537
REMARK  Name = 9867642
REMARK  6 active torsions:
REMARK  status: ('A' for Active; 'I' for Inactive)
REMARK    1  A    between atoms: N_2  and  C_23
REMARK    2  A    between atoms: C_3  and  C_18
REMARK    3  A    between atoms: C_10  and  S_14
REMARK    4  A    between atoms: C_18  and  C_20
REMARK    5  A    between atoms: C_20  and  O_21
REMARK    6  A    between atoms: C_23  and  C_25
REMARK                            x       y       z     vdW  Elec       q    Type
REMARK                         _______ _______ _______ _____ _____    ______ ____
ROOT
ATOM      1  F   UNL     1      29.606 -22.941 -16.497  0.00  0.00    -0.204 F 
ATOM      2  N   UNL     1      34.973 -23.427 -15.504  0.00  0.00    -0.326 N 
ATOM      3  C   UNL     1      35.959 -24.034 -13.163  0.00  0.00    +0.049 C 
ATOM      4  C   UNL     1      34.937 -23.735 -14.188  0.00  0.00    +0.034 A 
ATOM      5  C   UNL     1      33.642 -23.782 -13.757  0.00  0.00    -0.009 A 
ATOM      6  C   UNL     1      35.032 -24.606 -12.024  0.00  0.00    +0.011 C 
ATOM      7  C   UNL     1      33.566 -24.122 -12.322  0.00  0.00    +0.028 C 
ATOM      8  C   UNL     1      32.808 -23.483 -14.846  0.00  0.00    +0.016 A 
ATOM      9  C   UNL     1      33.666 -23.261 -15.941  0.00  0.00    +0.077 A 
ATOM     10  C   UNL     1      33.183 -22.933 -17.213  0.00  0.00    +0.124 C 
ATOM     11  C   UNL     1      31.418 -23.373 -15.037  0.00  0.00    +0.031 C 
ATOM     12  C   UNL     1      31.797 -22.831 -17.375  0.00  0.00    +0.049 C 
ATOM     13  C   UNL     1      30.929 -23.046 -16.306  0.00  0.00    +0.142 C 
ENDROOT
BRANCH  10  14
ATOM     14  S   UNL     1      34.173 -22.640 -18.632  0.00  0.00    +0.012 S 
ATOM     15  O   UNL     1      35.453 -22.126 -18.175  0.00  0.00    -0.169 OA
ATOM     16  O   UNL     1      34.122 -23.817 -19.484  0.00  0.00    -0.169 OA
ATOM     17  C   UNL     1      33.326 -21.335 -19.488  0.00  0.00    +0.182 C 
ENDBRANCH  10  14
BRANCH   3  18
ATOM     18  C   UNL     1      36.702 -22.785 -12.713  0.00  0.00    +0.115 C 
BRANCH  18  20
ATOM     19  O   UNL     1      38.785 -23.545 -11.702  0.00  0.00    -0.250 OA
ATOM     20  C   UNL     1      37.662 -23.076 -11.590  0.00  0.00    +0.314 C 
BRANCH  20  21
ATOM     21  O   UNL     1      37.100 -22.739 -10.401  0.00  0.00    -0.480 OA
ATOM     22  H   UNL     1      36.209 -22.969 -10.222  0.00  0.00    +0.295 HD
ENDBRANCH  20  21
ENDBRANCH  18  20
ENDBRANCH   3  18
BRANCH   2  23
ATOM     23  C   UNL     1      36.180 -23.307 -16.289  0.00  0.00    +0.132 C 
BRANCH  23  25
ATOM     24 CL   UNL     1      40.625 -26.625 -13.995  0.00  0.00    -0.082 Cl
ATOM     25  C   UNL     1      37.295 -24.140 -15.716  0.00  0.00    +0.000 C 
ATOM     26  C   UNL     1      37.035 -25.438 -15.300  0.00  0.00    -0.002 C 
ATOM     27  C   UNL     1      38.568 -23.597 -15.609  0.00  0.00    -0.002 C 
ATOM     28  C   UNL     1      38.067 -26.209 -14.766  0.00  0.00    +0.011 C 
ATOM     29  C   UNL     1      39.602 -24.369 -15.076  0.00  0.00    +0.011 C 
ATOM     30  C   UNL     1      39.351 -25.674 -14.654  0.00  0.00    +0.058 C 
ENDBRANCH  23  25
ENDBRANCH   2  23
TORSDOF 6
ENDMDL
MODEL 4
REMARK VINA RESULT:      -6.3     11.665     14.830
REMARK  Name = 9867642
REMARK  6 active torsions:
REMARK  status: ('A' for Active; 'I' for Inactive)
REMARK    1  A    between atoms: N_2  and  C_23
REMARK    2  A    between atoms: C_3  and  C_18
REMARK    3  A    between atoms: C_10  and  S_14
REMARK    4  A    between atoms: C_18  and  C_20
REMARK    5  A    between atoms: C_20  and  O_21
REMARK    6  A    between atoms: C_23  and  C_25
REMARK                            x       y       z     vdW  Elec       q    Type
REMARK                         _______ _______ _______ _____ _____    ______ ____
ROOT
ATOM      1  F   UNL     1      37.721 -19.760 -19.116  0.00  0.00    -0.204 F 
ATOM      2  N   UNL     1      34.925 -23.507 -16.257  0.00  0.00    -0.326 N 
ATOM      3  C   UNL     1      35.710 -24.443 -13.949  0.00  0.00    +0.049 C 
ATOM      4  C   UNL     1      35.741 -23.637 -15.188  0.00  0.00    +0.034 A 
ATOM      5  C   UNL     1      36.818 -22.809 -15.321  0.00  0.00    -0.009 A 
ATOM      6  C   UNL     1      36.852 -23.724 -13.137  0.00  0.00    +0.011 C 
ATOM      7  C   UNL     1      37.729 -22.922 -14.166  0.00  0.00    +0.028 C 
ATOM      8  C   UNL     1      36.690 -22.118 -16.537  0.00  0.00    +0.016 A 
ATOM      9  C   UNL     1      35.488 -22.573 -17.115  0.00  0.00    +0.077 A 
ATOM     10  C   UNL     1      35.029 -22.100 -18.350  0.00  0.00    +0.124 C 
ATOM     11  C   UNL     1      37.454 -21.156 -17.223  0.00  0.00    +0.031 C 
ATOM     12  C   UNL     1      35.807 -21.143 -19.010  0.00  0.00    +0.049 C 
ATOM     13  C   UNL     1      37.000 -20.678 -18.457  0.00  0.00    +0.142 C 
ENDROOT
BRANCH  10  14
ATOM     14  S   UNL     1      33.549 -22.606 -19.145  0.00  0.00    +0.012 S 
ATOM     15  O   UNL     1      33.809 -23.883 -19.786  0.00  0.00    -0.169 OA
ATOM     16  O   UNL     1      32.449 -22.473 -18.203  0.00  0.00    -0.169 OA
ATOM     17  C   UNL     1      33.302 -21.389 -20.415  0.00  0.00    +0.182 C 
ENDBRANCH  10  14
BRANCH   3  18
ATOM     18  C   UNL     1      36.036 -25.907 -14.209  0.00  0.00    +0.115 C 
BRANCH  18  20
ATOM     19  O   UNL     1      38.358 -26.536 -13.825  0.00  0.00    -0.250 OA
ATOM     20  C   UNL     1      37.223 -26.369 -13.405  0.00  0.00    +0.314 C 
BRANCH  20  21
ATOM     21  O   UNL     1      36.855 -26.582 -12.116  0.00  0.00    -0.480 OA
ATOM     22  H   UNL     1      36.990 -27.422 -11.724  0.00  0.00    +0.295 HD
ENDBRANCH  20  21
ENDBRANCH  18  20
ENDBRANCH   3  18
BRANCH   2  23
ATOM     23  C   UNL     1      33.684 -24.226 -16.440  0.00  0.00    +0.132 C 
BRANCH  23  25
ATOM     24 CL   UNL     1      30.007 -23.464 -11.758  0.00  0.00    -0.082 Cl
ATOM     25  C   UNL     1      32.760 -24.035 -15.267  0.00  0.00    +0.000 C 
ATOM     26  C   UNL     1      32.336 -22.757 -14.932  0.00  0.00    -0.002 C 
ATOM     27  C   UNL     1      32.347 -25.140 -14.536  0.00  0.00    -0.002 C 
ATOM     28  C   UNL     1      31.482 -22.579 -13.843  0.00  0.00    +0.011 C 
ATOM     29  C   UNL     1      31.492 -24.963 -13.447  0.00  0.00    +0.011 C 
ATOM     30  C   UNL     1      31.059 -23.683 -13.101  0.00  0.00    +0.058 C 
ENDBRANCH  23  25
ENDBRANCH   2  23
TORSDOF 6
ENDMDL
