MODEL 1
REMARK VINA RESULT:      -4.3      0.000      0.000
REMARK  Name = 656958
REMARK  11 active torsions:
REMARK  status: ('A' for Active; 'I' for Inactive)
REMARK    1  A    between atoms: C_9  and  O_24
REMARK    2  A    between atoms: C_12  and  O_20
REMARK    3  A    between atoms: C_14  and  C_22
REMARK    4  A    between atoms: O_24  and  C_26
REMARK    5  A    between atoms: C_26  and  C_27
REMARK    6  A    between atoms: C_27  and  S_28
REMARK    7  A    between atoms: S_28  and  C_29
REMARK    8  A    between atoms: C_29  and  C_30
REMARK    9  A    between atoms: C_30  and  N_31
REMARK   10  A    between atoms: N_31  and  C_33
REMARK   11  A    between atoms: N_31  and  C_35
REMARK                            x       y       z     vdW  Elec       q    Type
REMARK                         _______ _______ _______ _____ _____    ______ ____
ROOT
ATOM      1  O   UNL     1      30.630  -5.540 -23.547  0.00  0.00    -0.296 OA
ATOM      2  C   UNL     1      32.219  -7.512 -21.051  0.00  0.00    +0.009 C 
ATOM      3  C   UNL     1      31.456  -7.562 -22.410  0.00  0.00    +0.061 C 
ATOM      4  C   UNL     1      32.248  -8.164 -23.615  0.00  0.00    +0.043 C 
ATOM      5  C   UNL     1      32.372  -8.901 -20.305  0.00  0.00    +0.028 C 
ATOM      6  C   UNL     1      33.613  -7.394 -23.745  0.00  0.00    +0.004 C 
ATOM      7  C   UNL     1      33.614  -6.841 -21.263  0.00  0.00    +0.001 C 
ATOM      8  C   UNL     1      31.326  -6.545 -20.223  0.00  0.00    +0.008 C 
ATOM      9  C   UNL     1      32.484  -9.713 -23.402  0.00  0.00    +0.169 C 
ATOM     10  C   UNL     1      34.413  -7.408 -22.430  0.00  0.00    +0.000 C 
ATOM     11  C   UNL     1      30.974  -6.108 -22.518  0.00  0.00    +0.150 C 
ATOM     12  C   UNL     1      31.116  -9.841 -20.418  0.00  0.00    +0.114 C 
ATOM     13  C   UNL     1      30.897  -5.436 -21.173  0.00  0.00    +0.065 C 
ATOM     14  C   UNL     1      31.207 -11.005 -21.473  0.00  0.00    +0.047 C 
ATOM     15  C   UNL     1      31.246 -10.524 -22.957  0.00  0.00    +0.050 C 
ATOM     16  C   UNL     1      31.427  -7.974 -24.923  0.00  0.00    +0.004 C 
ATOM     17  C   UNL     1      32.801  -8.712 -18.829  0.00  0.00    +0.003 C 
ATOM     18  C   UNL     1      34.530  -7.850 -24.887  0.00  0.00    +0.000 C 
ATOM     19  C   UNL     1      29.952 -11.908 -21.344  0.00  0.00    +0.007 C 
ENDROOT
BRANCH  12  20
ATOM     20  O   UNL     1      30.847 -10.423 -19.130  0.00  0.00    -0.384 OA
ATOM     21  H   UNL     1      30.395  -9.773 -18.569  0.00  0.00    +0.210 HD
ENDBRANCH  12  20
BRANCH  14  22
ATOM     22  C   UNL     1      32.395 -11.901 -21.194  0.00  0.00    -0.024 C 
ATOM     23  C   UNL     1      32.302 -13.212 -20.943  0.00  0.00    -0.005 C 
ENDBRANCH  14  22
BRANCH   9  24
ATOM     24  O   UNL     1      32.946 -10.301 -24.630  0.00  0.00    -0.452 OA
BRANCH  24  26
ATOM     25  O   UNL     1      34.975 -10.991 -23.783  0.00  0.00    -0.249 OA
ATOM     26  C   UNL     1      34.003 -11.158 -24.507  0.00  0.00    +0.328 C 
BRANCH  26  27
ATOM     27  C   UNL     1      33.759 -12.335 -25.417  0.00  0.00    +0.167 C 
BRANCH  27  28
ATOM     28  S   UNL     1      32.750 -13.598 -24.605  0.00  0.00    -0.131 S 
BRANCH  28  29
ATOM     29  C   UNL     1      33.873 -15.002 -24.793  0.00  0.00    +0.035 C 
BRANCH  29  30
ATOM     30  C   UNL     1      34.514 -15.352 -23.455  0.00  0.00    -0.066 C 
BRANCH  30  31
ATOM     31  N   UNL     1      35.341 -16.545 -23.599  0.00  0.00    +0.388 N 
ATOM     32  H   UNL     1      36.282 -16.253 -23.865  0.00  0.00    -0.080 HD
BRANCH  31  33
ATOM     33  C   UNL     1      34.811 -17.416 -24.649  0.00  0.00    -0.077 C 
ATOM     34  C   UNL     1      34.729 -18.845 -24.148  0.00  0.00    -0.025 C 
ENDBRANCH  31  33
BRANCH  31  35
ATOM     35  C   UNL     1      35.423 -17.270 -22.330  0.00  0.00    -0.077 C 
ATOM     36  C   UNL     1      34.801 -16.449 -21.217  0.00  0.00    -0.025 C 
ENDBRANCH  31  35
ENDBRANCH  30  31
ENDBRANCH  29  30
ENDBRANCH  28  29
ENDBRANCH  27  28
ENDBRANCH  26  27
ENDBRANCH  24  26
ENDBRANCH   9  24
TORSDOF 11
ENDMDL
MODEL 2
REMARK VINA RESULT:      -4.1      1.616      2.124
REMARK  Name = 656958
REMARK  11 active torsions:
REMARK  status: ('A' for Active; 'I' for Inactive)
REMARK    1  A    between atoms: C_9  and  O_24
REMARK    2  A    between atoms: C_12  and  O_20
REMARK    3  A    between atoms: C_14  and  C_22
REMARK    4  A    between atoms: O_24  and  C_26
REMARK    5  A    between atoms: C_26  and  C_27
REMARK    6  A    between atoms: C_27  and  S_28
REMARK    7  A    between atoms: S_28  and  C_29
REMARK    8  A    between atoms: C_29  and  C_30
REMARK    9  A    between atoms: C_30  and  N_31
REMARK   10  A    between atoms: N_31  and  C_33
REMARK   11  A    between atoms: N_31  and  C_35
REMARK                            x       y       z     vdW  Elec       q    Type
REMARK                         _______ _______ _______ _____ _____    ______ ____
ROOT
ATOM      1  O   UNL     1      31.397  -6.804 -25.190  0.00  0.00    -0.296 OA
ATOM      2  C   UNL     1      32.612  -7.586 -21.941  0.00  0.00    +0.009 C 
ATOM      3  C   UNL     1      31.961  -8.180 -23.227  0.00  0.00    +0.061 C 
ATOM      4  C   UNL     1      32.797  -9.269 -23.975  0.00  0.00    +0.043 C 
ATOM      5  C   UNL     1      32.591  -8.530 -20.670  0.00  0.00    +0.028 C 
ATOM      6  C   UNL     1      34.226  -8.681 -24.268  0.00  0.00    +0.004 C 
ATOM      7  C   UNL     1      34.070  -7.125 -22.264  0.00  0.00    +0.001 C 
ATOM      8  C   UNL     1      31.736  -6.325 -21.697  0.00  0.00    +0.008 C 
ATOM      9  C   UNL     1      32.888 -10.587 -23.107  0.00  0.00    +0.169 C 
ATOM     10  C   UNL     1      34.913  -8.165 -22.991  0.00  0.00    +0.000 C 
ATOM     11  C   UNL     1      31.608  -6.893 -23.987  0.00  0.00    +0.150 C 
ATOM     12  C   UNL     1      31.277  -9.380 -20.512  0.00  0.00    +0.114 C 
ATOM     13  C   UNL     1      31.478  -5.710 -23.066  0.00  0.00    +0.065 C 
ATOM     14  C   UNL     1      31.358 -10.885 -20.965  0.00  0.00    +0.047 C 
ATOM     15  C   UNL     1      31.556 -11.083 -22.500  0.00  0.00    +0.050 C 
ATOM     16  C   UNL     1      32.102  -9.621 -25.322  0.00  0.00    +0.004 C 
ATOM     17  C   UNL     1      32.913  -7.748 -19.373  0.00  0.00    +0.003 C 
ATOM     18  C   UNL     1      35.192  -9.616 -25.007  0.00  0.00    +0.000 C 
ATOM     19  C   UNL     1      30.027 -11.597 -20.605  0.00  0.00    +0.007 C 
ENDROOT
BRANCH  12  20
ATOM     20  O   UNL     1      30.857  -9.346 -19.136  0.00  0.00    -0.384 OA
ATOM     21  H   UNL     1      31.578  -9.003 -18.586  0.00  0.00    +0.210 HD
ENDBRANCH  12  20
BRANCH  14  22
ATOM     22  C   UNL     1      32.443 -11.622 -20.209  0.00  0.00    -0.024 C 
ATOM     23  C   UNL     1      32.383 -12.920 -19.889  0.00  0.00    -0.005 C 
ENDBRANCH  14  22
BRANCH   9  24
ATOM     24  O   UNL     1      33.398 -11.660 -23.918  0.00  0.00    -0.452 OA
BRANCH  24  26
ATOM     25  O   UNL     1      31.941 -13.429 -23.677  0.00  0.00    -0.249 OA
ATOM     26  C   UNL     1      33.041 -12.916 -23.517  0.00  0.00    +0.328 C 
BRANCH  26  27
ATOM     27  C   UNL     1      34.234 -13.551 -22.850  0.00  0.00    +0.167 C 
BRANCH  27  28
ATOM     28  S   UNL     1      34.354 -15.311 -23.249  0.00  0.00    -0.131 S 
BRANCH  28  29
ATOM     29  C   UNL     1      34.125 -15.982 -21.586  0.00  0.00    +0.035 C 
BRANCH  29  30
ATOM     30  C   UNL     1      35.089 -17.137 -21.343  0.00  0.00    -0.066 C 
BRANCH  30  31
ATOM     31  N   UNL     1      34.592 -18.343 -21.996  0.00  0.00    +0.388 N 
ATOM     32  H   UNL     1      33.661 -18.148 -22.363  0.00  0.00    -0.080 HD
BRANCH  31  33
ATOM     33  C   UNL     1      34.492 -19.444 -21.037  0.00  0.00    -0.077 C 
ATOM     34  C   UNL     1      33.036 -19.769 -20.766  0.00  0.00    -0.025 C 
ENDBRANCH  31  33
BRANCH  31  35
ATOM     35  C   UNL     1      35.461 -18.719 -23.112  0.00  0.00    -0.077 C 
ATOM     36  C   UNL     1      34.628 -19.045 -24.337  0.00  0.00    -0.025 C 
ENDBRANCH  31  35
ENDBRANCH  30  31
ENDBRANCH  29  30
ENDBRANCH  28  29
ENDBRANCH  27  28
ENDBRANCH  26  27
ENDBRANCH  24  26
ENDBRANCH   9  24
TORSDOF 11
ENDMDL
MODEL 3
REMARK VINA RESULT:      -2.5      1.851      4.128
REMARK  Name = 656958
REMARK  11 active torsions:
REMARK  status: ('A' for Active; 'I' for Inactive)
REMARK    1  A    between atoms: C_9  and  O_24
REMARK    2  A    between atoms: C_12  and  O_20
REMARK    3  A    between atoms: C_14  and  C_22
REMARK    4  A    between atoms: O_24  and  C_26
REMARK    5  A    between atoms: C_26  and  C_27
REMARK    6  A    between atoms: C_27  and  S_28
REMARK    7  A    between atoms: S_28  and  C_29
REMARK    8  A    between atoms: C_29  and  C_30
REMARK    9  A    between atoms: C_30  and  N_31
REMARK   10  A    between atoms: N_31  and  C_33
REMARK   11  A    between atoms: N_31  and  C_35
REMARK                            x       y       z     vdW  Elec       q    Type
REMARK                         _______ _______ _______ _____ _____    ______ ____
ROOT
ATOM      1  O   UNL     1      32.271  -8.473 -19.312  0.00  0.00    -0.296 OA
ATOM      2  C   UNL     1      32.243  -7.792 -22.801  0.00  0.00    +0.009 C 
ATOM      3  C   UNL     1      32.713  -8.803 -21.711  0.00  0.00    +0.061 C 
ATOM      4  C   UNL     1      32.132 -10.250 -21.829  0.00  0.00    +0.043 C 
ATOM      5  C   UNL     1      32.897  -7.980 -24.231  0.00  0.00    +0.028 C 
ATOM      6  C   UNL     1      30.564 -10.151 -21.889  0.00  0.00    +0.004 C 
ATOM      7  C   UNL     1      30.684  -7.820 -22.898  0.00  0.00    +0.001 C 
ATOM      8  C   UNL     1      32.675  -6.434 -22.179  0.00  0.00    +0.008 C 
ATOM      9  C   UNL     1      32.710 -10.974 -23.110  0.00  0.00    +0.169 C 
ATOM     10  C   UNL     1      30.086  -9.217 -23.016  0.00  0.00    +0.000 C 
ATOM     11  C   UNL     1      32.410  -8.006 -20.435  0.00  0.00    +0.150 C 
ATOM     12  C   UNL     1      34.416  -8.389 -24.202  0.00  0.00    +0.114 C 
ATOM     13  C   UNL     1      32.361  -6.523 -20.692  0.00  0.00    +0.065 C 
ATOM     14  C   UNL     1      34.735  -9.911 -24.447  0.00  0.00    +0.047 C 
ATOM     15  C   UNL     1      34.237 -10.860 -23.313  0.00  0.00    +0.050 C 
ATOM     16  C   UNL     1      32.545 -11.077 -20.577  0.00  0.00    +0.004 C 
ATOM     17  C   UNL     1      32.667  -6.741 -25.131  0.00  0.00    +0.003 C 
ATOM     18  C   UNL     1      29.816 -11.485 -22.003  0.00  0.00    +0.000 C 
ATOM     19  C   UNL     1      36.272 -10.102 -24.528  0.00  0.00    +0.007 C 
ENDROOT
BRANCH  12  20
ATOM     20  O   UNL     1      35.129  -7.617 -25.185  0.00  0.00    -0.384 OA
ATOM     21  H   UNL     1      35.669  -8.209 -25.732  0.00  0.00    +0.210 HD
ENDBRANCH  12  20
BRANCH  14  22
ATOM     22  C   UNL     1      34.186 -10.374 -25.779  0.00  0.00    -0.024 C 
ATOM     23  C   UNL     1      34.896 -11.060 -26.683  0.00  0.00    -0.005 C 
ENDBRANCH  14  22
BRANCH   9  24
ATOM     24  O   UNL     1      32.404 -12.378 -23.045  0.00  0.00    -0.452 OA
BRANCH  24  26
ATOM     25  O   UNL     1      33.208 -13.337 -24.981  0.00  0.00    -0.249 OA
ATOM     26  C   UNL     1      33.233 -13.190 -23.766  0.00  0.00    +0.328 C 
BRANCH  26  27
ATOM     27  C   UNL     1      34.175 -13.868 -22.804  0.00  0.00    +0.167 C 
BRANCH  27  28
ATOM     28  S   UNL     1      33.322 -15.123 -21.819  0.00  0.00    -0.131 S 
BRANCH  28  29
ATOM     29  C   UNL     1      34.724 -16.219 -21.506  0.00  0.00    +0.035 C 
BRANCH  29  30
ATOM     30  C   UNL     1      35.266 -16.775 -22.817  0.00  0.00    -0.066 C 
BRANCH  30  31
ATOM     31  N   UNL     1      35.663 -18.168 -22.639  0.00  0.00    +0.388 N 
ATOM     32  H   UNL     1      36.664 -18.243 -22.824  0.00  0.00    -0.080 HD
BRANCH  31  33
ATOM     33  C   UNL     1      34.951 -19.031 -23.582  0.00  0.00    -0.077 C 
ATOM     34  C   UNL     1      34.513 -18.229 -24.793  0.00  0.00    -0.025 C 
ENDBRANCH  31  33
BRANCH  31  35
ATOM     35  C   UNL     1      35.413 -18.602 -21.263  0.00  0.00    -0.077 C 
ATOM     36  C   UNL     1      34.396 -19.727 -21.248  0.00  0.00    -0.025 C 
ENDBRANCH  31  35
ENDBRANCH  30  31
ENDBRANCH  29  30
ENDBRANCH  28  29
ENDBRANCH  27  28
ENDBRANCH  26  27
ENDBRANCH  24  26
ENDBRANCH   9  24
TORSDOF 11
ENDMDL
MODEL 4
REMARK VINA RESULT:      -1.8      9.710     14.859
REMARK  Name = 656958
REMARK  11 active torsions:
REMARK  status: ('A' for Active; 'I' for Inactive)
REMARK    1  A    between atoms: C_9  and  O_24
REMARK    2  A    between atoms: C_12  and  O_20
REMARK    3  A    between atoms: C_14  and  C_22
REMARK    4  A    between atoms: O_24  and  C_26
REMARK    5  A    between atoms: C_26  and  C_27
REMARK    6  A    between atoms: C_27  and  S_28
REMARK    7  A    between atoms: S_28  and  C_29
REMARK    8  A    between atoms: C_29  and  C_30
REMARK    9  A    between atoms: C_30  and  N_31
REMARK   10  A    between atoms: N_31  and  C_33
REMARK   11  A    between atoms: N_31  and  C_35
REMARK                            x       y       z     vdW  Elec       q    Type
REMARK                         _______ _______ _______ _____ _____    ______ ____
ROOT
ATOM      1  O   UNL     1      30.363 -25.865 -16.760  0.00  0.00    -0.296 OA
ATOM      2  C   UNL     1      31.792 -23.908 -14.158  0.00  0.00    +0.009 C 
ATOM      3  C   UNL     1      32.109 -24.736 -15.441  0.00  0.00    +0.061 C 
ATOM      4  C   UNL     1      32.773 -23.946 -16.615  0.00  0.00    +0.043 C 
ATOM      5  C   UNL     1      33.042 -23.545 -13.257  0.00  0.00    +0.028 C 
ATOM      6  C   UNL     1      31.877 -22.694 -16.940  0.00  0.00    +0.004 C 
ATOM      7  C   UNL     1      31.001 -22.620 -14.553  0.00  0.00    +0.001 C 
ATOM      8  C   UNL     1      30.831 -24.864 -13.395  0.00  0.00    +0.008 C 
ATOM      9  C   UNL     1      34.242 -23.511 -16.227  0.00  0.00    +0.169 C 
ATOM     10  C   UNL     1      31.624 -21.825 -15.695  0.00  0.00    +0.000 C 
ATOM     11  C   UNL     1      30.747 -25.397 -15.696  0.00  0.00    +0.150 C 
ATOM     12  C   UNL     1      34.126 -24.681 -13.160  0.00  0.00    +0.114 C 
ATOM     13  C   UNL     1      29.914 -25.478 -14.444  0.00  0.00    +0.065 C 
ATOM     14  C   UNL     1      35.403 -24.509 -14.064  0.00  0.00    +0.047 C 
ATOM     15  C   UNL     1      35.122 -24.613 -15.595  0.00  0.00    +0.050 C 
ATOM     16  C   UNL     1      32.853 -24.858 -17.873  0.00  0.00    +0.004 C 
ATOM     17  C   UNL     1      32.611 -23.059 -11.851  0.00  0.00    +0.003 C 
ATOM     18  C   UNL     1      32.374 -21.795 -18.078  0.00  0.00    +0.000 C 
ATOM     19  C   UNL     1      36.417 -25.635 -13.732  0.00  0.00    +0.007 C 
ENDROOT
BRANCH  12  20
ATOM     20  O   UNL     1      34.557 -24.803 -11.792  0.00  0.00    -0.384 OA
ATOM     21  H   UNL     1      34.680 -23.920 -11.411  0.00  0.00    +0.210 HD
ENDBRANCH  12  20
BRANCH  14  22
ATOM     22  C   UNL     1      36.112 -23.207 -13.761  0.00  0.00    -0.024 C 
ATOM     23  C   UNL     1      37.175 -23.103 -12.955  0.00  0.00    -0.005 C 
ENDBRANCH  14  22
BRANCH   9  24
ATOM     24  O   UNL     1      34.932 -23.052 -17.402  0.00  0.00    -0.452 OA
BRANCH  24  26
ATOM     25  O   UNL     1      36.323 -21.776 -16.078  0.00  0.00    -0.249 OA
ATOM     26  C   UNL     1      35.934 -22.151 -17.177  0.00  0.00    +0.328 C 
BRANCH  26  27
ATOM     27  C   UNL     1      36.469 -21.704 -18.513  0.00  0.00    +0.167 C 
BRANCH  27  28
ATOM     28  S   UNL     1      35.201 -21.807 -19.799  0.00  0.00    -0.131 S 
BRANCH  28  29
ATOM     29  C   UNL     1      35.561 -20.257 -20.657  0.00  0.00    +0.035 C 
BRANCH  29  30
ATOM     30  C   UNL     1      34.270 -19.612 -21.150  0.00  0.00    -0.066 C 
BRANCH  30  31
ATOM     31  N   UNL     1      34.577 -18.395 -21.893  0.00  0.00    +0.388 N 
ATOM     32  H   UNL     1      33.702 -18.005 -22.244  0.00  0.00    -0.080 HD
BRANCH  31  33
ATOM     33  C   UNL     1      35.443 -18.693 -23.034  0.00  0.00    -0.077 C 
ATOM     34  C   UNL     1      34.605 -19.081 -24.238  0.00  0.00    -0.025 C 
ENDBRANCH  31  33
BRANCH  31  35
ATOM     35  C   UNL     1      35.209 -17.404 -21.020  0.00  0.00    -0.077 C 
ATOM     36  C   UNL     1      34.405 -16.118 -21.020  0.00  0.00    -0.025 C 
ENDBRANCH  31  35
ENDBRANCH  30  31
ENDBRANCH  29  30
ENDBRANCH  28  29
ENDBRANCH  27  28
ENDBRANCH  26  27
ENDBRANCH  24  26
ENDBRANCH   9  24
TORSDOF 11
ENDMDL
MODEL 5
REMARK VINA RESULT:      -1.3     10.011     15.339
REMARK  Name = 656958
REMARK  11 active torsions:
REMARK  status: ('A' for Active; 'I' for Inactive)
REMARK    1  A    between atoms: C_9  and  O_24
REMARK    2  A    between atoms: C_12  and  O_20
REMARK    3  A    between atoms: C_14  and  C_22
REMARK    4  A    between atoms: O_24  and  C_26
REMARK    5  A    between atoms: C_26  and  C_27
REMARK    6  A    between atoms: C_27  and  S_28
REMARK    7  A    between atoms: S_28  and  C_29
REMARK    8  A    between atoms: C_29  and  C_30
REMARK    9  A    between atoms: C_30  and  N_31
REMARK   10  A    between atoms: N_31  and  C_33
REMARK   11  A    between atoms: N_31  and  C_35
REMARK                            x       y       z     vdW  Elec       q    Type
REMARK                         _______ _______ _______ _____ _____    ______ ____
ROOT
ATOM      1  O   UNL     1      38.142 -22.081 -12.016  0.00  0.00    -0.296 OA
ATOM      2  C   UNL     1      35.459 -24.381 -12.401  0.00  0.00    +0.009 C 
ATOM      3  C   UNL     1      36.165 -23.141 -13.030  0.00  0.00    +0.061 C 
ATOM      4  C   UNL     1      36.755 -23.345 -14.462  0.00  0.00    +0.043 C 
ATOM      5  C   UNL     1      34.026 -24.717 -12.986  0.00  0.00    +0.028 C 
ATOM      6  C   UNL     1      37.704 -24.599 -14.433  0.00  0.00    +0.004 C 
ATOM      7  C   UNL     1      36.402 -25.622 -12.504  0.00  0.00    +0.001 C 
ATOM      8  C   UNL     1      35.353 -23.962 -10.908  0.00  0.00    +0.008 C 
ATOM      9  C   UNL     1      35.592 -23.534 -15.517  0.00  0.00    +0.169 C 
ATOM     10  C   UNL     1      36.993 -25.851 -13.890  0.00  0.00    +0.000 C 
ATOM     11  C   UNL     1      37.131 -22.761 -11.899  0.00  0.00    +0.150 C 
ATOM     12  C   UNL     1      33.149 -23.455 -13.323  0.00  0.00    +0.114 C 
ATOM     13  C   UNL     1      36.666 -23.273 -10.561  0.00  0.00    +0.065 C 
ATOM     14  C   UNL     1      33.080 -23.036 -14.838  0.00  0.00    +0.047 C 
ATOM     15  C   UNL     1      34.431 -22.519 -15.423  0.00  0.00    +0.050 C 
ATOM     16  C   UNL     1      37.578 -22.089 -14.868  0.00  0.00    +0.004 C 
ATOM     17  C   UNL     1      33.257 -25.707 -12.077  0.00  0.00    +0.003 C 
ATOM     18  C   UNL     1      38.383 -24.953 -15.762  0.00  0.00    +0.000 C 
ATOM     19  C   UNL     1      32.065 -21.873 -14.999  0.00  0.00    +0.007 C 
ENDROOT
BRANCH  12  20
ATOM     20  O   UNL     1      31.806 -23.677 -12.857  0.00  0.00    -0.384 OA
ATOM     21  H   UNL     1      31.764 -24.520 -12.380  0.00  0.00    +0.210 HD
ENDBRANCH  12  20
BRANCH  14  22
ATOM     22  C   UNL     1      32.553 -24.169 -15.692  0.00  0.00    -0.024 C 
ATOM     23  C   UNL     1      31.374 -24.145 -16.324  0.00  0.00    -0.005 C 
ENDBRANCH  14  22
BRANCH   9  24
ATOM     24  O   UNL     1      36.129 -23.427 -16.847  0.00  0.00    -0.452 OA
BRANCH  24  26
ATOM     25  O   UNL     1      34.234 -23.094 -18.115  0.00  0.00    -0.249 OA
ATOM     26  C   UNL     1      35.347 -22.752 -17.740  0.00  0.00    +0.328 C 
BRANCH  26  27
ATOM     27  C   UNL     1      36.097 -21.519 -18.178  0.00  0.00    +0.167 C 
BRANCH  27  28
ATOM     28  S   UNL     1      36.046 -21.321 -19.975  0.00  0.00    -0.131 S 
BRANCH  28  29
ATOM     29  C   UNL     1      34.435 -20.512 -20.112  0.00  0.00    +0.035 C 
BRANCH  29  30
ATOM     30  C   UNL     1      34.342 -19.733 -21.419  0.00  0.00    -0.066 C 
BRANCH  30  31
ATOM     31  N   UNL     1      35.018 -18.448 -21.279  0.00  0.00    +0.388 N 
ATOM     32  H   UNL     1      35.570 -18.467 -20.421  0.00  0.00    -0.080 HD
BRANCH  31  33
ATOM     33  C   UNL     1      34.042 -17.362 -21.178  0.00  0.00    -0.077 C 
ATOM     34  C   UNL     1      34.754 -16.038 -20.972  0.00  0.00    -0.025 C 
ENDBRANCH  31  33
BRANCH  31  35
ATOM     35  C   UNL     1      35.922 -18.216 -22.406  0.00  0.00    -0.077 C 
ATOM     36  C   UNL     1      35.256 -18.631 -23.704  0.00  0.00    -0.025 C 
ENDBRANCH  31  35
ENDBRANCH  30  31
ENDBRANCH  29  30
ENDBRANCH  28  29
ENDBRANCH  27  28
ENDBRANCH  26  27
ENDBRANCH  24  26
ENDBRANCH   9  24
TORSDOF 11
ENDMDL
