MODEL 1
REMARK VINA RESULT:      -9.9      0.000      0.000
REMARK  Name = 9429
REMARK  6 active torsions:
REMARK  status: ('A' for Active; 'I' for Inactive)
REMARK    1  A    between atoms: N_2  and  C_21
REMARK    2  A    between atoms: C_8  and  S_15
REMARK    3  A    between atoms: S_15  and  N_18
REMARK    4  A    between atoms: C_21  and  C_22
REMARK    5  A    between atoms: C_22  and  C_23
REMARK    6  A    between atoms: C_23  and  N_24
REMARK                            x       y       z     vdW  Elec       q    Type
REMARK                         _______ _______ _______ _____ _____    ______ ____
ROOT
ATOM      1  S   UNL     1      36.854 -21.287 -19.100  0.00  0.00    -0.084 S 
ATOM      2  N   UNL     1      34.167 -22.475 -18.082  0.00  0.00    -0.286 N 
ATOM      3  C   UNL     1      35.260 -22.569 -17.184  0.00  0.00    +0.059 C 
ATOM      4  C   UNL     1      34.063 -21.543 -19.145  0.00  0.00    +0.058 C 
ATOM      5  C   UNL     1      36.524 -22.044 -17.521  0.00  0.00    +0.043 C 
ATOM      6  C   UNL     1      35.209 -20.917 -19.677  0.00  0.00    +0.043 C 
ATOM      7  C   UNL     1      35.129 -23.152 -15.905  0.00  0.00    +0.035 C 
ATOM      8  C   UNL     1      36.203 -23.232 -15.014  0.00  0.00    +0.123 C 
ATOM      9  C   UNL     1      32.817 -21.170 -19.694  0.00  0.00    +0.015 C 
ATOM     10  C   UNL     1      37.602 -22.133 -16.624  0.00  0.00    +0.009 C 
ATOM     11  C   UNL     1      37.442 -22.725 -15.375  0.00  0.00    +0.021 C 
ATOM     12  C   UNL     1      35.100 -19.987 -20.726  0.00  0.00    +0.008 C 
ATOM     13  C   UNL     1      32.713 -20.242 -20.734  0.00  0.00    +0.001 C 
ATOM     14  C   UNL     1      33.856 -19.652 -21.252  0.00  0.00    +0.001 C 
ENDROOT
BRANCH   8  15
ATOM     15  S   UNL     1      35.984 -23.963 -13.444  0.00  0.00    +0.063 S 
ATOM     16  O   UNL     1      36.638 -23.117 -12.452  0.00  0.00    -0.153 OA
ATOM     17  O   UNL     1      34.566 -24.263 -13.275  0.00  0.00    -0.153 OA
BRANCH  15  18
ATOM     18  N   UNL     1      36.857 -25.451 -13.568  0.00  0.00    -0.153 NA
ATOM     19  C   UNL     1      36.710 -26.230 -14.824  0.00  0.00    +0.115 C 
ATOM     20  C   UNL     1      38.253 -25.472 -13.061  0.00  0.00    +0.115 C 
ENDBRANCH  15  18
ENDBRANCH   8  15
BRANCH   2  21
ATOM     21  C   UNL     1      33.022 -23.365 -17.850  0.00  0.00    +0.093 C 
BRANCH  21  22
ATOM     22  C   UNL     1      32.215 -22.901 -16.636  0.00  0.00    -0.001 C 
BRANCH  22  23
ATOM     23  C   UNL     1      31.497 -24.024 -15.882  0.00  0.00    -0.076 C 
BRANCH  23  24
ATOM     24  N   UNL     1      30.072 -23.746 -15.716  0.00  0.00    +0.384 N 
ATOM     25  N   UNL     1      27.663 -22.236 -16.239  0.00  0.00    +0.383 N 
ATOM     26  C   UNL     1      29.864 -22.417 -15.130  0.00  0.00    -0.101 C 
ATOM     27  C   UNL     1      29.367 -23.857 -16.999  0.00  0.00    -0.101 C 
ATOM     28  C   UNL     1      28.369 -22.125 -14.957  0.00  0.00    -0.101 C 
ATOM     29  C   UNL     1      27.871 -23.566 -16.825  0.00  0.00    -0.101 C 
ATOM     30  C   UNL     1      26.237 -21.961 -16.072  0.00  0.00    -0.101 C 
ATOM     31  H   UNL     1      29.688 -24.443 -15.076  0.00  0.00    -0.080 HD
ATOM     32  H   UNL     1      28.045 -21.540 -16.879  0.00  0.00    -0.080 HD
ENDBRANCH  23  24
ENDBRANCH  22  23
ENDBRANCH  21  22
ENDBRANCH   2  21
TORSDOF 6
ENDMDL
MODEL 2
REMARK VINA RESULT:      -9.7      7.967     11.108
REMARK  Name = 9429
REMARK  6 active torsions:
REMARK  status: ('A' for Active; 'I' for Inactive)
REMARK    1  A    between atoms: N_2  and  C_21
REMARK    2  A    between atoms: C_8  and  S_15
REMARK    3  A    between atoms: S_15  and  N_18
REMARK    4  A    between atoms: C_21  and  C_22
REMARK    5  A    between atoms: C_22  and  C_23
REMARK    6  A    between atoms: C_23  and  N_24
REMARK                            x       y       z     vdW  Elec       q    Type
REMARK                         _______ _______ _______ _____ _____    ______ ____
ROOT
ATOM      1  S   UNL     1      33.251 -15.931 -26.219  0.00  0.00    -0.084 S 
ATOM      2  N   UNL     1      34.026 -14.472 -23.585  0.00  0.00    -0.286 N 
ATOM      3  C   UNL     1      34.342 -15.853 -23.639  0.00  0.00    +0.059 C 
ATOM      4  C   UNL     1      33.825 -13.638 -24.713  0.00  0.00    +0.058 C 
ATOM      5  C   UNL     1      34.062 -16.618 -24.789  0.00  0.00    +0.043 C 
ATOM      6  C   UNL     1      33.493 -14.183 -25.970  0.00  0.00    +0.043 C 
ATOM      7  C   UNL     1      34.980 -16.517 -22.569  0.00  0.00    +0.035 C 
ATOM      8  C   UNL     1      35.304 -17.875 -22.627  0.00  0.00    +0.123 C 
ATOM      9  C   UNL     1      33.980 -12.236 -24.645  0.00  0.00    +0.015 C 
ATOM     10  C   UNL     1      34.384 -17.985 -24.840  0.00  0.00    +0.009 C 
ATOM     11  C   UNL     1      35.003 -18.611 -23.762  0.00  0.00    +0.021 C 
ATOM     12  C   UNL     1      33.302 -13.351 -27.088  0.00  0.00    +0.008 C 
ATOM     13  C   UNL     1      33.794 -11.414 -25.760  0.00  0.00    +0.001 C 
ATOM     14  C   UNL     1      33.452 -11.972 -26.982  0.00  0.00    +0.001 C 
ENDROOT
BRANCH   8  15
ATOM     15  S   UNL     1      36.095 -18.644 -21.273  0.00  0.00    +0.063 S 
ATOM     16  O   UNL     1      37.444 -19.016 -21.685  0.00  0.00    -0.153 OA
ATOM     17  O   UNL     1      35.937 -17.785 -20.105  0.00  0.00    -0.153 OA
BRANCH  15  18
ATOM     18  N   UNL     1      35.169 -20.086 -21.034  0.00  0.00    -0.153 NA
ATOM     19  C   UNL     1      35.780 -21.166 -20.218  0.00  0.00    +0.115 C 
ATOM     20  C   UNL     1      33.718 -19.932 -20.755  0.00  0.00    +0.115 C 
ENDBRANCH  15  18
ENDBRANCH   8  15
BRANCH   2  21
ATOM     21  C   UNL     1      33.973 -13.841 -22.260  0.00  0.00    +0.093 C 
BRANCH  21  22
ATOM     22  C   UNL     1      32.572 -13.961 -21.660  0.00  0.00    -0.001 C 
BRANCH  22  23
ATOM     23  C   UNL     1      31.635 -12.796 -21.991  0.00  0.00    -0.076 C 
BRANCH  23  24
ATOM     24  N   UNL     1      32.135 -11.527 -21.467  0.00  0.00    +0.384 N 
ATOM     25  N   UNL     1      31.806  -8.787 -20.602  0.00  0.00    +0.383 N 
ATOM     26  C   UNL     1      31.923 -10.443 -22.434  0.00  0.00    -0.101 C 
ATOM     27  C   UNL     1      31.494 -11.204 -20.186  0.00  0.00    -0.101 C 
ATOM     28  C   UNL     1      32.445  -9.111 -21.883  0.00  0.00    -0.101 C 
ATOM     29  C   UNL     1      32.018  -9.872 -19.635  0.00  0.00    -0.101 C 
ATOM     30  C   UNL     1      32.308  -7.519 -20.077  0.00  0.00    -0.101 C 
ATOM     31  H   UNL     1      33.138 -11.625 -21.309  0.00  0.00    -0.080 HD
ATOM     32  H   UNL     1      30.803  -8.689 -20.759  0.00  0.00    -0.080 HD
ENDBRANCH  23  24
ENDBRANCH  22  23
ENDBRANCH  21  22
ENDBRANCH   2  21
TORSDOF 6
ENDMDL
MODEL 3
REMARK VINA RESULT:      -9.3      2.496      5.982
REMARK  Name = 9429
REMARK  6 active torsions:
REMARK  status: ('A' for Active; 'I' for Inactive)
REMARK    1  A    between atoms: N_2  and  C_21
REMARK    2  A    between atoms: C_8  and  S_15
REMARK    3  A    between atoms: S_15  and  N_18
REMARK    4  A    between atoms: C_21  and  C_22
REMARK    5  A    between atoms: C_22  and  C_23
REMARK    6  A    between atoms: C_23  and  N_24
REMARK                            x       y       z     vdW  Elec       q    Type
REMARK                         _______ _______ _______ _____ _____    ______ ____
ROOT
ATOM      1  S   UNL     1      32.303 -22.750 -13.207  0.00  0.00    -0.084 S 
ATOM      2  N   UNL     1      33.016 -23.643 -16.098  0.00  0.00    -0.286 N 
ATOM      3  C   UNL     1      33.906 -24.078 -15.084  0.00  0.00    +0.059 C 
ATOM      4  C   UNL     1      31.668 -23.256 -15.889  0.00  0.00    +0.058 C 
ATOM      5  C   UNL     1      33.676 -23.757 -13.731  0.00  0.00    +0.043 C 
ATOM      6  C   UNL     1      31.217 -22.854 -14.616  0.00  0.00    +0.043 C 
ATOM      7  C   UNL     1      35.034 -24.876 -15.371  0.00  0.00    +0.035 C 
ATOM      8  C   UNL     1      35.904 -25.316 -14.369  0.00  0.00    +0.123 C 
ATOM      9  C   UNL     1      30.711 -23.288 -16.926  0.00  0.00    +0.015 C 
ATOM     10  C   UNL     1      34.558 -24.197 -12.728  0.00  0.00    +0.009 C 
ATOM     11  C   UNL     1      35.668 -24.973 -13.047  0.00  0.00    +0.021 C 
ATOM     12  C   UNL     1      29.878 -22.478 -14.412  0.00  0.00    +0.008 C 
ATOM     13  C   UNL     1      29.379 -22.919 -16.717  0.00  0.00    +0.001 C 
ATOM     14  C   UNL     1      28.963 -22.510 -15.460  0.00  0.00    +0.001 C 
ENDROOT
BRANCH   8  15
ATOM     15  S   UNL     1      37.284 -26.304 -14.781  0.00  0.00    +0.063 S 
ATOM     16  O   UNL     1      37.609 -27.137 -13.628  0.00  0.00    -0.153 OA
ATOM     17  O   UNL     1      37.011 -26.958 -16.056  0.00  0.00    -0.153 OA
BRANCH  15  18
ATOM     18  N   UNL     1      38.551 -25.148 -15.007  0.00  0.00    -0.153 NA
ATOM     19  C   UNL     1      38.157 -23.745 -15.294  0.00  0.00    +0.115 C 
ATOM     20  C   UNL     1      39.718 -25.221 -14.091  0.00  0.00    +0.115 C 
ENDBRANCH  15  18
ENDBRANCH   8  15
BRANCH   2  21
ATOM     21  C   UNL     1      33.506 -23.663 -17.483  0.00  0.00    +0.093 C 
BRANCH  21  22
ATOM     22  C   UNL     1      34.273 -22.380 -17.803  0.00  0.00    -0.001 C 
BRANCH  22  23
ATOM     23  C   UNL     1      34.722 -22.253 -19.261  0.00  0.00    -0.076 C 
BRANCH  23  24
ATOM     24  N   UNL     1      34.847 -20.858 -19.675  0.00  0.00    +0.384 N 
ATOM     25  N   UNL     1      35.128 -18.774 -21.661  0.00  0.00    +0.383 N 
ATOM     26  C   UNL     1      36.122 -20.631 -20.368  0.00  0.00    -0.101 C 
ATOM     27  C   UNL     1      33.722 -20.466 -20.532  0.00  0.00    -0.101 C 
ATOM     28  C   UNL     1      36.253 -19.168 -20.804  0.00  0.00    -0.101 C 
ATOM     29  C   UNL     1      33.852 -19.001 -20.968  0.00  0.00    -0.101 C 
ATOM     30  C   UNL     1      35.252 -17.377 -22.073  0.00  0.00    -0.101 C 
ATOM     31  H   UNL     1      34.830 -20.277 -18.836  0.00  0.00    -0.080 HD
ATOM     32  H   UNL     1      35.144 -19.353 -22.500  0.00  0.00    -0.080 HD
ENDBRANCH  23  24
ENDBRANCH  22  23
ENDBRANCH  21  22
ENDBRANCH   2  21
TORSDOF 6
ENDMDL
MODEL 4
REMARK VINA RESULT:      -8.8      7.985     11.158
REMARK  Name = 9429
REMARK  6 active torsions:
REMARK  status: ('A' for Active; 'I' for Inactive)
REMARK    1  A    between atoms: N_2  and  C_21
REMARK    2  A    between atoms: C_8  and  S_15
REMARK    3  A    between atoms: S_15  and  N_18
REMARK    4  A    between atoms: C_21  and  C_22
REMARK    5  A    between atoms: C_22  and  C_23
REMARK    6  A    between atoms: C_23  and  N_24
REMARK                            x       y       z     vdW  Elec       q    Type
REMARK                         _______ _______ _______ _____ _____    ______ ____
ROOT
ATOM      1  S   UNL     1      33.342 -15.434 -26.061  0.00  0.00    -0.084 S 
ATOM      2  N   UNL     1      33.795 -14.490 -23.134  0.00  0.00    -0.286 N 
ATOM      3  C   UNL     1      34.057 -15.860 -23.385  0.00  0.00    +0.059 C 
ATOM      4  C   UNL     1      33.792 -13.467 -24.116  0.00  0.00    +0.058 C 
ATOM      5  C   UNL     1      33.911 -16.402 -24.678  0.00  0.00    +0.043 C 
ATOM      6  C   UNL     1      33.619 -13.772 -25.481  0.00  0.00    +0.043 C 
ATOM      7  C   UNL     1      34.508 -16.733 -22.372  0.00  0.00    +0.035 C 
ATOM      8  C   UNL     1      34.779 -18.082 -22.623  0.00  0.00    +0.123 C 
ATOM      9  C   UNL     1      33.995 -12.110 -23.783  0.00  0.00    +0.015 C 
ATOM     10  C   UNL     1      34.180 -17.760 -24.923  0.00  0.00    +0.009 C 
ATOM     11  C   UNL     1      34.612 -18.596 -23.899  0.00  0.00    +0.021 C 
ATOM     12  C   UNL     1      33.625 -12.755 -26.452  0.00  0.00    +0.008 C 
ATOM     13  C   UNL     1      34.004 -11.103 -24.753  0.00  0.00    +0.001 C 
ATOM     14  C   UNL     1      33.816 -11.426 -26.088  0.00  0.00    +0.001 C 
ENDROOT
BRANCH   8  15
ATOM     15  S   UNL     1      35.336 -19.116 -21.331  0.00  0.00    +0.063 S 
ATOM     16  O   UNL     1      35.978 -20.283 -21.926  0.00  0.00    -0.153 OA
ATOM     17  O   UNL     1      36.104 -18.302 -20.395  0.00  0.00    -0.153 OA
BRANCH  15  18
ATOM     18  N   UNL     1      33.872 -19.620 -20.561  0.00  0.00    -0.153 NA
ATOM     19  C   UNL     1      32.599 -19.395 -21.292  0.00  0.00    +0.115 C 
ATOM     20  C   UNL     1      33.883 -20.926 -19.853  0.00  0.00    +0.115 C 
ENDBRANCH  15  18
ENDBRANCH   8  15
BRANCH   2  21
ATOM     21  C   UNL     1      33.581 -14.087 -21.738  0.00  0.00    +0.093 C 
BRANCH  21  22
ATOM     22  C   UNL     1      32.102 -13.795 -21.480  0.00  0.00    -0.001 C 
BRANCH  22  23
ATOM     23  C   UNL     1      31.839 -12.710 -20.433  0.00  0.00    -0.076 C 
BRANCH  23  24
ATOM     24  N   UNL     1      32.115 -11.372 -20.952  0.00  0.00    +0.384 N 
ATOM     25  N   UNL     1      31.391  -8.633 -21.531  0.00  0.00    +0.383 N 
ATOM     26  C   UNL     1      31.203 -11.041 -22.054  0.00  0.00    -0.101 C 
ATOM     27  C   UNL     1      32.015 -10.369 -19.885  0.00  0.00    -0.101 C 
ATOM     28  C   UNL     1      31.491  -9.637 -22.597  0.00  0.00    -0.101 C 
ATOM     29  C   UNL     1      32.303  -8.964 -20.428  0.00  0.00    -0.101 C 
ATOM     30  C   UNL     1      31.669  -7.295 -22.049  0.00  0.00    -0.101 C 
ATOM     31  H   UNL     1      33.070 -11.364 -21.312  0.00  0.00    -0.080 HD
ATOM     32  H   UNL     1      30.437  -8.639 -21.171  0.00  0.00    -0.080 HD
ENDBRANCH  23  24
ENDBRANCH  22  23
ENDBRANCH  21  22
ENDBRANCH   2  21
TORSDOF 6
ENDMDL
MODEL 5
REMARK VINA RESULT:      -8.7      3.092      7.621
REMARK  Name = 9429
REMARK  6 active torsions:
REMARK  status: ('A' for Active; 'I' for Inactive)
REMARK    1  A    between atoms: N_2  and  C_21
REMARK    2  A    between atoms: C_8  and  S_15
REMARK    3  A    between atoms: S_15  and  N_18
REMARK    4  A    between atoms: C_21  and  C_22
REMARK    5  A    between atoms: C_22  and  C_23
REMARK    6  A    between atoms: C_23  and  N_24
REMARK                            x       y       z     vdW  Elec       q    Type
REMARK                         _______ _______ _______ _____ _____    ______ ____
ROOT
ATOM      1  S   UNL     1      33.698 -24.448 -13.516  0.00  0.00    -0.084 S 
ATOM      2  N   UNL     1      33.563 -23.537 -16.485  0.00  0.00    -0.286 N 
ATOM      3  C   UNL     1      32.314 -23.709 -15.838  0.00  0.00    +0.059 C 
ATOM      4  C   UNL     1      34.797 -23.306 -15.827  0.00  0.00    +0.058 C 
ATOM      5  C   UNL     1      32.245 -24.096 -14.484  0.00  0.00    +0.043 C 
ATOM      6  C   UNL     1      34.974 -23.654 -14.472  0.00  0.00    +0.043 C 
ATOM      7  C   UNL     1      31.090 -23.467 -16.498  0.00  0.00    +0.035 C 
ATOM      8  C   UNL     1      29.858 -23.624 -15.856  0.00  0.00    +0.123 C 
ATOM      9  C   UNL     1      35.889 -22.689 -16.477  0.00  0.00    +0.015 C 
ATOM     10  C   UNL     1      31.003 -24.258 -13.845  0.00  0.00    +0.009 C 
ATOM     11  C   UNL     1      29.815 -24.023 -14.529  0.00  0.00    +0.021 C 
ATOM     12  C   UNL     1      36.198 -23.415 -13.822  0.00  0.00    +0.008 C 
ATOM     13  C   UNL     1      37.101 -22.450 -15.824  0.00  0.00    +0.001 C 
ATOM     14  C   UNL     1      37.257 -22.816 -14.497  0.00  0.00    +0.001 C 
ENDROOT
BRANCH   8  15
ATOM     15  S   UNL     1      28.375 -23.309 -16.721  0.00  0.00    +0.063 S 
ATOM     16  O   UNL     1      28.655 -22.329 -17.765  0.00  0.00    -0.153 OA
ATOM     17  O   UNL     1      27.793 -24.590 -17.109  0.00  0.00    -0.153 OA
BRANCH  15  18
ATOM     18  N   UNL     1      27.361 -22.575 -15.527  0.00  0.00    -0.153 NA
ATOM     19  C   UNL     1      28.022 -21.783 -14.459  0.00  0.00    +0.115 C 
ATOM     20  C   UNL     1      26.102 -21.939 -15.991  0.00  0.00    +0.115 C 
ENDBRANCH  15  18
ENDBRANCH   8  15
BRANCH   2  21
ATOM     21  C   UNL     1      33.569 -23.526 -17.954  0.00  0.00    +0.093 C 
BRANCH  21  22
ATOM     22  C   UNL     1      33.606 -22.092 -18.483  0.00  0.00    -0.001 C 
BRANCH  22  23
ATOM     23  C   UNL     1      34.613 -21.855 -19.611  0.00  0.00    -0.076 C 
BRANCH  23  24
ATOM     24  N   UNL     1      34.717 -20.441 -19.964  0.00  0.00    +0.384 N 
ATOM     25  N   UNL     1      34.958 -18.268 -21.857  0.00  0.00    +0.383 N 
ATOM     26  C   UNL     1      35.985 -20.166 -20.651  0.00  0.00    -0.101 C 
ATOM     27  C   UNL     1      33.582 -20.028 -20.799  0.00  0.00    -0.101 C 
ATOM     28  C   UNL     1      36.093 -18.683 -21.023  0.00  0.00    -0.101 C 
ATOM     29  C   UNL     1      33.690 -18.544 -21.170  0.00  0.00    -0.101 C 
ATOM     30  C   UNL     1      35.061 -16.854 -22.208  0.00  0.00    -0.101 C 
ATOM     31  H   UNL     1      34.695 -19.898 -19.100  0.00  0.00    -0.080 HD
ATOM     32  H   UNL     1      34.979 -18.810 -22.721  0.00  0.00    -0.080 HD
ENDBRANCH  23  24
ENDBRANCH  22  23
ENDBRANCH  21  22
ENDBRANCH   2  21
TORSDOF 6
ENDMDL
MODEL 6
REMARK VINA RESULT:      -8.4     10.576     14.373
REMARK  Name = 9429
REMARK  6 active torsions:
REMARK  status: ('A' for Active; 'I' for Inactive)
REMARK    1  A    between atoms: N_2  and  C_21
REMARK    2  A    between atoms: C_8  and  S_15
REMARK    3  A    between atoms: S_15  and  N_18
REMARK    4  A    between atoms: C_21  and  C_22
REMARK    5  A    between atoms: C_22  and  C_23
REMARK    6  A    between atoms: C_23  and  N_24
REMARK                            x       y       z     vdW  Elec       q    Type
REMARK                         _______ _______ _______ _____ _____    ______ ____
ROOT
ATOM      1  S   UNL     1      35.376 -10.321 -25.603  0.00  0.00    -0.084 S 
ATOM      2  N   UNL     1      33.135 -11.574 -23.850  0.00  0.00    -0.286 N 
ATOM      3  C   UNL     1      33.452 -10.221 -23.568  0.00  0.00    +0.059 C 
ATOM      4  C   UNL     1      33.395 -12.233 -25.078  0.00  0.00    +0.058 C 
ATOM      5  C   UNL     1      34.434  -9.536 -24.311  0.00  0.00    +0.043 C 
ATOM      6  C   UNL     1      34.373 -11.747 -25.970  0.00  0.00    +0.043 C 
ATOM      7  C   UNL     1      32.781  -9.490 -22.565  0.00  0.00    +0.035 C 
ATOM      8  C   UNL     1      33.084  -8.152 -22.295  0.00  0.00    +0.123 C 
ATOM      9  C   UNL     1      32.673 -13.377 -25.482  0.00  0.00    +0.015 C 
ATOM     10  C   UNL     1      34.739  -8.192 -24.032  0.00  0.00    +0.009 C 
ATOM     11  C   UNL     1      34.067  -7.504 -23.027  0.00  0.00    +0.021 C 
ATOM     12  C   UNL     1      34.622 -12.400 -27.190  0.00  0.00    +0.008 C 
ATOM     13  C   UNL     1      32.921 -14.019 -26.698  0.00  0.00    +0.001 C 
ATOM     14  C   UNL     1      33.899 -13.532 -27.551  0.00  0.00    +0.001 C 
ENDROOT
BRANCH   8  15
ATOM     15  S   UNL     1      32.221  -7.295 -21.043  0.00  0.00    +0.063 S 
ATOM     16  O   UNL     1      31.697  -8.274 -20.098  0.00  0.00    -0.153 OA
ATOM     17  O   UNL     1      33.086  -6.234 -20.537  0.00  0.00    -0.153 OA
BRANCH  15  18
ATOM     18  N   UNL     1      30.895  -6.576 -21.890  0.00  0.00    -0.153 NA
ATOM     19  C   UNL     1      30.517  -5.187 -21.522  0.00  0.00    +0.115 C 
ATOM     20  C   UNL     1      30.811  -6.804 -23.355  0.00  0.00    +0.115 C 
ENDBRANCH  15  18
ENDBRANCH   8  15
BRANCH   2  21
ATOM     21  C   UNL     1      32.416 -12.330 -22.817  0.00  0.00    +0.093 C 
BRANCH  21  22
ATOM     22  C   UNL     1      33.351 -13.324 -22.126  0.00  0.00    -0.001 C 
BRANCH  22  23
ATOM     23  C   UNL     1      32.651 -14.547 -21.529  0.00  0.00    -0.076 C 
BRANCH  23  24
ATOM     24  N   UNL     1      33.367 -15.786 -21.825  0.00  0.00    +0.384 N 
ATOM     25  N   UNL     1      35.753 -17.300 -22.439  0.00  0.00    +0.383 N 
ATOM     26  C   UNL     1      33.987 -15.725 -23.155  0.00  0.00    -0.101 C 
ATOM     27  C   UNL     1      34.379 -16.062 -20.799  0.00  0.00    -0.101 C 
ATOM     28  C   UNL     1      34.740 -17.023 -23.465  0.00  0.00    -0.101 C 
ATOM     29  C   UNL     1      35.131 -17.361 -21.110  0.00  0.00    -0.101 C 
ATOM     30  C   UNL     1      36.466 -18.541 -22.735  0.00  0.00    -0.101 C 
ATOM     31  H   UNL     1      32.690 -16.550 -21.822  0.00  0.00    -0.080 HD
ATOM     32  H   UNL     1      36.430 -16.538 -22.442  0.00  0.00    -0.080 HD
ENDBRANCH  23  24
ENDBRANCH  22  23
ENDBRANCH  21  22
ENDBRANCH   2  21
TORSDOF 6
ENDMDL
MODEL 7
REMARK VINA RESULT:      -8.2      2.165      6.027
REMARK  Name = 9429
REMARK  6 active torsions:
REMARK  status: ('A' for Active; 'I' for Inactive)
REMARK    1  A    between atoms: N_2  and  C_21
REMARK    2  A    between atoms: C_8  and  S_15
REMARK    3  A    between atoms: S_15  and  N_18
REMARK    4  A    between atoms: C_21  and  C_22
REMARK    5  A    between atoms: C_22  and  C_23
REMARK    6  A    between atoms: C_23  and  N_24
REMARK                            x       y       z     vdW  Elec       q    Type
REMARK                         _______ _______ _______ _____ _____    ______ ____
ROOT
ATOM      1  S   UNL     1      31.101 -24.028 -13.073  0.00  0.00    -0.084 S 
ATOM      2  N   UNL     1      32.191 -23.227 -15.872  0.00  0.00    -0.286 N 
ATOM      3  C   UNL     1      33.170 -23.572 -14.907  0.00  0.00    +0.059 C 
ATOM      4  C   UNL     1      30.832 -23.628 -15.834  0.00  0.00    +0.058 C 
ATOM      5  C   UNL     1      32.799 -23.975 -13.608  0.00  0.00    +0.043 C 
ATOM      6  C   UNL     1      30.229 -24.037 -14.627  0.00  0.00    +0.043 C 
ATOM      7  C   UNL     1      34.550 -23.564 -15.205  0.00  0.00    +0.035 C 
ATOM      8  C   UNL     1      35.515 -23.917 -14.257  0.00  0.00    +0.123 C 
ATOM      9  C   UNL     1      30.032 -23.673 -16.997  0.00  0.00    +0.015 C 
ATOM     10  C   UNL     1      33.774 -24.324 -12.657  0.00  0.00    +0.009 C 
ATOM     11  C   UNL     1      35.127 -24.294 -12.981  0.00  0.00    +0.021 C 
ATOM     12  C   UNL     1      28.883 -24.442 -14.596  0.00  0.00    +0.008 C 
ATOM     13  C   UNL     1      28.696 -24.081 -16.961  0.00  0.00    +0.001 C 
ATOM     14  C   UNL     1      28.120 -24.463 -15.759  0.00  0.00    +0.001 C 
ENDROOT
BRANCH   8  15
ATOM     15  S   UNL     1      37.208 -23.892 -14.682  0.00  0.00    +0.063 S 
ATOM     16  O   UNL     1      37.322 -23.488 -16.080  0.00  0.00    -0.153 OA
ATOM     17  O   UNL     1      37.919 -23.113 -13.674  0.00  0.00    -0.153 OA
BRANCH  15  18
ATOM     18  N   UNL     1      37.682 -25.549 -14.542  0.00  0.00    -0.153 NA
ATOM     19  C   UNL     1      36.869 -26.559 -15.266  0.00  0.00    +0.115 C 
ATOM     20  C   UNL     1      39.134 -25.856 -14.606  0.00  0.00    +0.115 C 
ENDBRANCH  15  18
ENDBRANCH   8  15
BRANCH   2  21
ATOM     21  C   UNL     1      32.635 -22.453 -17.039  0.00  0.00    +0.093 C 
BRANCH  21  22
ATOM     22  C   UNL     1      33.684 -23.230 -17.835  0.00  0.00    -0.001 C 
BRANCH  22  23
ATOM     23  C   UNL     1      33.740 -22.883 -19.325  0.00  0.00    -0.076 C 
BRANCH  23  24
ATOM     24  N   UNL     1      34.219 -21.521 -19.551  0.00  0.00    +0.384 N 
ATOM     25  N   UNL     1      35.198 -19.379 -21.229  0.00  0.00    +0.383 N 
ATOM     26  C   UNL     1      35.590 -21.531 -20.077  0.00  0.00    -0.101 C 
ATOM     27  C   UNL     1      33.325 -20.799 -20.464  0.00  0.00    -0.101 C 
ATOM     28  C   UNL     1      36.092 -20.102 -20.317  0.00  0.00    -0.101 C 
ATOM     29  C   UNL     1      33.827 -19.370 -20.702  0.00  0.00    -0.101 C 
ATOM     30  C   UNL     1      35.676 -18.016 -21.453  0.00  0.00    -0.101 C 
ATOM     31  H   UNL     1      34.224 -21.035 -18.653  0.00  0.00    -0.080 HD
ATOM     32  H   UNL     1      35.194 -19.863 -22.126  0.00  0.00    -0.080 HD
ENDBRANCH  23  24
ENDBRANCH  22  23
ENDBRANCH  21  22
ENDBRANCH   2  21
TORSDOF 6
ENDMDL
MODEL 8
REMARK VINA RESULT:      -7.9      2.415      5.978
REMARK  Name = 9429
REMARK  6 active torsions:
REMARK  status: ('A' for Active; 'I' for Inactive)
REMARK    1  A    between atoms: N_2  and  C_21
REMARK    2  A    between atoms: C_8  and  S_15
REMARK    3  A    between atoms: S_15  and  N_18
REMARK    4  A    between atoms: C_21  and  C_22
REMARK    5  A    between atoms: C_22  and  C_23
REMARK    6  A    between atoms: C_23  and  N_24
REMARK                            x       y       z     vdW  Elec       q    Type
REMARK                         _______ _______ _______ _____ _____    ______ ____
ROOT
ATOM      1  S   UNL     1      38.046 -22.582 -14.762  0.00  0.00    -0.084 S 
ATOM      2  N   UNL     1      35.403 -24.215 -14.844  0.00  0.00    -0.286 N 
ATOM      3  C   UNL     1      35.601 -23.312 -15.918  0.00  0.00    +0.059 C 
ATOM      4  C   UNL     1      36.432 -24.753 -14.031  0.00  0.00    +0.058 C 
ATOM      5  C   UNL     1      36.772 -22.533 -16.006  0.00  0.00    +0.043 C 
ATOM      6  C   UNL     1      37.686 -24.116 -13.930  0.00  0.00    +0.043 C 
ATOM      7  C   UNL     1      34.662 -23.177 -16.964  0.00  0.00    +0.035 C 
ATOM      8  C   UNL     1      34.863 -22.296 -18.031  0.00  0.00    +0.123 C 
ATOM      9  C   UNL     1      36.268 -25.959 -13.316  0.00  0.00    +0.015 C 
ATOM     10  C   UNL     1      36.966 -21.645 -17.078  0.00  0.00    +0.009 C 
ATOM     11  C   UNL     1      36.015 -21.527 -18.086  0.00  0.00    +0.021 C 
ATOM     12  C   UNL     1      38.706 -24.657 -13.129  0.00  0.00    +0.008 C 
ATOM     13  C   UNL     1      37.288 -26.496 -12.525  0.00  0.00    +0.001 C 
ATOM     14  C   UNL     1      38.506 -25.842 -12.428  0.00  0.00    +0.001 C 
ENDROOT
BRANCH   8  15
ATOM     15  S   UNL     1      33.669 -22.170 -19.298  0.00  0.00    +0.063 S 
ATOM     16  O   UNL     1      33.915 -23.235 -20.264  0.00  0.00    -0.153 OA
ATOM     17  O   UNL     1      32.351 -22.087 -18.676  0.00  0.00    -0.153 OA
BRANCH  15  18
ATOM     18  N   UNL     1      34.031 -20.650 -20.041  0.00  0.00    -0.153 NA
ATOM     19  C   UNL     1      35.230 -20.582 -20.915  0.00  0.00    +0.115 C 
ATOM     20  C   UNL     1      32.895 -19.868 -20.594  0.00  0.00    +0.115 C 
ENDBRANCH  15  18
ENDBRANCH   8  15
BRANCH   2  21
ATOM     21  C   UNL     1      34.033 -24.686 -14.599  0.00  0.00    +0.093 C 
BRANCH  21  22
ATOM     22  C   UNL     1      33.329 -23.793 -13.578  0.00  0.00    -0.001 C 
BRANCH  22  23
ATOM     23  C   UNL     1      31.857 -24.138 -13.337  0.00  0.00    -0.076 C 
BRANCH  23  24
ATOM     24  N   UNL     1      31.071 -24.068 -14.567  0.00  0.00    +0.384 N 
ATOM     25  N   UNL     1      28.727 -23.324 -16.088  0.00  0.00    +0.383 N 
ATOM     26  C   UNL     1      29.804 -24.794 -14.418  0.00  0.00    -0.101 C 
ATOM     27  C   UNL     1      30.820 -22.672 -14.946  0.00  0.00    -0.101 C 
ATOM     28  C   UNL     1      28.978 -24.719 -15.707  0.00  0.00    -0.101 C 
ATOM     29  C   UNL     1      29.995 -22.598 -16.236  0.00  0.00    -0.101 C 
ATOM     30  C   UNL     1      27.943 -23.255 -17.319  0.00  0.00    -0.101 C 
ATOM     31  H   UNL     1      31.610 -24.512 -15.311  0.00  0.00    -0.080 HD
ATOM     32  H   UNL     1      28.188 -22.880 -15.345  0.00  0.00    -0.080 HD
ENDBRANCH  23  24
ENDBRANCH  22  23
ENDBRANCH  21  22
ENDBRANCH   2  21
TORSDOF 6
ENDMDL
MODEL 9
REMARK VINA RESULT:      -7.8     14.997     18.822
REMARK  Name = 9429
REMARK  6 active torsions:
REMARK  status: ('A' for Active; 'I' for Inactive)
REMARK    1  A    between atoms: N_2  and  C_21
REMARK    2  A    between atoms: C_8  and  S_15
REMARK    3  A    between atoms: S_15  and  N_18
REMARK    4  A    between atoms: C_21  and  C_22
REMARK    5  A    between atoms: C_22  and  C_23
REMARK    6  A    between atoms: C_23  and  N_24
REMARK                            x       y       z     vdW  Elec       q    Type
REMARK                         _______ _______ _______ _____ _____    ______ ____
ROOT
ATOM      1  S   UNL     1      31.151  -5.448 -24.226  0.00  0.00    -0.084 S 
ATOM      2  N   UNL     1      33.884  -6.929 -24.169  0.00  0.00    -0.286 N 
ATOM      3  C   UNL     1      33.716  -5.991 -25.218  0.00  0.00    +0.059 C 
ATOM      4  C   UNL     1      33.161  -6.927 -22.949  0.00  0.00    +0.058 C 
ATOM      5  C   UNL     1      32.529  -5.239 -25.336  0.00  0.00    +0.043 C 
ATOM      6  C   UNL     1      31.919  -6.269 -22.843  0.00  0.00    +0.043 C 
ATOM      7  C   UNL     1      34.731  -5.738 -26.165  0.00  0.00    +0.035 C 
ATOM      8  C   UNL     1      34.570  -4.804 -27.192  0.00  0.00    +0.123 C 
ATOM      9  C   UNL     1      33.658  -7.548 -21.783  0.00  0.00    +0.015 C 
ATOM     10  C   UNL     1      32.370  -4.305 -26.374  0.00  0.00    +0.009 C 
ATOM     11  C   UNL     1      33.387  -4.089 -27.299  0.00  0.00    +0.021 C 
ATOM     12  C   UNL     1      31.209  -6.263 -21.629  0.00  0.00    +0.008 C 
ATOM     13  C   UNL     1      32.951  -7.535 -20.578  0.00  0.00    +0.001 C 
ATOM     14  C   UNL     1      31.723  -6.895 -20.502  0.00  0.00    +0.001 C 
ENDROOT
BRANCH   8  15
ATOM     15  S   UNL     1      35.860  -4.530 -28.336  0.00  0.00    +0.063 S 
ATOM     16  O   UNL     1      36.878  -5.555 -28.129  0.00  0.00    -0.153 OA
ATOM     17  O   UNL     1      35.271  -4.394 -29.664  0.00  0.00    -0.153 OA
BRANCH  15  18
ATOM     18  N   UNL     1      36.506  -3.000 -27.853  0.00  0.00    -0.153 NA
ATOM     19  C   UNL     1      37.971  -2.914 -27.626  0.00  0.00    +0.115 C 
ATOM     20  C   UNL     1      35.977  -1.787 -28.529  0.00  0.00    +0.115 C 
ENDBRANCH  15  18
ENDBRANCH   8  15
BRANCH   2  21
ATOM     21  C   UNL     1      34.940  -7.938 -24.326  0.00  0.00    +0.093 C 
BRANCH  21  22
ATOM     22  C   UNL     1      34.366  -9.235 -24.897  0.00  0.00    -0.001 C 
BRANCH  22  23
ATOM     23  C   UNL     1      34.206 -10.365 -23.876  0.00  0.00    -0.076 C 
BRANCH  23  24
ATOM     24  N   UNL     1      34.231 -11.682 -24.510  0.00  0.00    +0.384 N 
ATOM     25  N   UNL     1      32.964 -14.018 -25.647  0.00  0.00    +0.383 N 
ATOM     26  C   UNL     1      33.574 -12.682 -23.659  0.00  0.00    -0.101 C 
ATOM     27  C   UNL     1      33.597 -11.636 -25.832  0.00  0.00    -0.101 C 
ATOM     28  C   UNL     1      33.598 -14.063 -24.324  0.00  0.00    -0.101 C 
ATOM     29  C   UNL     1      33.622 -13.017 -26.497  0.00  0.00    -0.101 C 
ATOM     30  C   UNL     1      32.991 -15.335 -26.281  0.00  0.00    -0.101 C 
ATOM     31  H   UNL     1      35.207 -11.955 -24.630  0.00  0.00    -0.080 HD
ATOM     32  H   UNL     1      31.989 -13.746 -25.528  0.00  0.00    -0.080 HD
ENDBRANCH  23  24
ENDBRANCH  22  23
ENDBRANCH  21  22
ENDBRANCH   2  21
TORSDOF 6
ENDMDL
