MODEL 1
REMARK VINA RESULT:      -4.7      0.000      0.000
REMARK  Name = 445528
REMARK  2 active torsions:
REMARK  status: ('A' for Active; 'I' for Inactive)
REMARK    1  A    between atoms: C_3  and  O_7
REMARK    2  A    between atoms: C_4  and  O_9
REMARK                            x       y       z     vdW  Elec       q    Type
REMARK                         _______ _______ _______ _____ _____    ______ ____
ROOT
ATOM      1  S   UNL     1      36.522 -23.676 -14.907  0.00  0.00    -0.079 S 
ATOM      2  S   UNL     1      36.910 -23.422 -12.914  0.00  0.00    -0.079 S 
ATOM      3  C   UNL     1      37.360 -26.300 -14.467  0.00  0.00    +0.150 C 
ATOM      4  C   UNL     1      37.838 -26.049 -13.027  0.00  0.00    +0.150 C 
ATOM      5  C   UNL     1      36.165 -25.458 -14.937  0.00  0.00    +0.100 C 
ATOM      6  C   UNL     1      38.266 -24.612 -12.700  0.00  0.00    +0.100 C 
ENDROOT
BRANCH   3   7
ATOM      7  O   UNL     1      38.464 -26.124 -15.356  0.00  0.00    -0.381 OA
ATOM      8  H   UNL     1      38.254 -26.525 -16.214  0.00  0.00    +0.210 HD
ENDBRANCH   3   7
BRANCH   4   9
ATOM      9  O   UNL     1      36.818 -26.476 -12.124  0.00  0.00    -0.381 OA
ATOM     10  H   UNL     1      36.366 -25.700 -11.755  0.00  0.00    +0.210 HD
ENDBRANCH   4   9
TORSDOF 2
ENDMDL
MODEL 2
REMARK VINA RESULT:      -4.7      0.109      2.737
REMARK  Name = 445528
REMARK  2 active torsions:
REMARK  status: ('A' for Active; 'I' for Inactive)
REMARK    1  A    between atoms: C_3  and  O_7
REMARK    2  A    between atoms: C_4  and  O_9
REMARK                            x       y       z     vdW  Elec       q    Type
REMARK                         _______ _______ _______ _____ _____    ______ ____
ROOT
ATOM      1  S   UNL     1      36.813 -23.438 -13.023  0.00  0.00    -0.079 S 
ATOM      2  S   UNL     1      36.485 -23.797 -15.010  0.00  0.00    -0.079 S 
ATOM      3  C   UNL     1      37.842 -26.030 -12.993  0.00  0.00    +0.150 C 
ATOM      4  C   UNL     1      37.410 -26.363 -14.431  0.00  0.00    +0.150 C 
ATOM      5  C   UNL     1      38.208 -24.564 -12.723  0.00  0.00    +0.100 C 
ATOM      6  C   UNL     1      36.196 -25.590 -14.966  0.00  0.00    +0.100 C 
ENDROOT
BRANCH   3   7
ATOM      7  O   UNL     1      36.817 -26.454 -12.094  0.00  0.00    -0.381 OA
ATOM      8  H   UNL     1      36.285 -25.688 -11.828  0.00  0.00    +0.210 HD
ENDBRANCH   3   7
BRANCH   4   9
ATOM      9  O   UNL     1      38.528 -26.186 -15.300  0.00  0.00    -0.381 OA
ATOM     10  H   UNL     1      38.394 -25.392 -15.842  0.00  0.00    +0.210 HD
ENDBRANCH   4   9
TORSDOF 2
ENDMDL
MODEL 3
REMARK VINA RESULT:      -4.4      2.451      3.039
REMARK  Name = 445528
REMARK  2 active torsions:
REMARK  status: ('A' for Active; 'I' for Inactive)
REMARK    1  A    between atoms: C_3  and  O_7
REMARK    2  A    between atoms: C_4  and  O_9
REMARK                            x       y       z     vdW  Elec       q    Type
REMARK                         _______ _______ _______ _____ _____    ______ ____
ROOT
ATOM      1  S   UNL     1      37.963 -24.553 -14.519  0.00  0.00    -0.079 S 
ATOM      2  S   UNL     1      35.954 -24.912 -14.375  0.00  0.00    -0.079 S 
ATOM      3  C   UNL     1      37.792 -23.989 -11.793  0.00  0.00    +0.150 C 
ATOM      4  C   UNL     1      36.257 -24.064 -11.736  0.00  0.00    +0.150 C 
ATOM      5  C   UNL     1      38.473 -24.913 -12.812  0.00  0.00    +0.100 C 
ATOM      6  C   UNL     1      35.518 -23.753 -13.046  0.00  0.00    +0.100 C 
ENDROOT
BRANCH   3   7
ATOM      7  O   UNL     1      38.179 -22.634 -12.023  0.00  0.00    -0.381 OA
ATOM      8  H   UNL     1      38.428 -22.223 -11.181  0.00  0.00    +0.210 HD
ENDBRANCH   3   7
BRANCH   4   9
ATOM      9  O   UNL     1      35.876 -25.351 -11.250  0.00  0.00    -0.381 OA
ATOM     10  H   UNL     1      36.118 -26.027 -11.902  0.00  0.00    +0.210 HD
ENDBRANCH   4   9
TORSDOF 2
ENDMDL
MODEL 4
REMARK VINA RESULT:      -4.4      2.449      3.001
REMARK  Name = 445528
REMARK  2 active torsions:
REMARK  status: ('A' for Active; 'I' for Inactive)
REMARK    1  A    between atoms: C_3  and  O_7
REMARK    2  A    between atoms: C_4  and  O_9
REMARK                            x       y       z     vdW  Elec       q    Type
REMARK                         _______ _______ _______ _____ _____    ______ ____
ROOT
ATOM      1  S   UNL     1      36.235 -24.807 -14.731  0.00  0.00    -0.079 S 
ATOM      2  S   UNL     1      38.190 -25.075 -14.191  0.00  0.00    -0.079 S 
ATOM      3  C   UNL     1      35.917 -23.867 -12.125  0.00  0.00    +0.150 C 
ATOM      4  C   UNL     1      37.332 -24.259 -11.667  0.00  0.00    +0.150 C 
ATOM      5  C   UNL     1      35.775 -23.462 -13.599  0.00  0.00    +0.100 C 
ATOM      6  C   UNL     1      37.986 -25.426 -12.420  0.00  0.00    +0.100 C 
ENDROOT
BRANCH   3   7
ATOM      7  O   UNL     1      35.022 -24.937 -11.821  0.00  0.00    -0.381 OA
ATOM      8  H   UNL     1      35.241 -25.303 -10.950  0.00  0.00    +0.210 HD
ENDBRANCH   3   7
BRANCH   4   9
ATOM      9  O   UNL     1      38.171 -23.105 -11.726  0.00  0.00    -0.381 OA
ATOM     10  H   UNL     1      37.991 -22.616 -12.545  0.00  0.00    +0.210 HD
ENDBRANCH   4   9
TORSDOF 2
ENDMDL
MODEL 5
REMARK VINA RESULT:      -4.3      1.231      2.710
REMARK  Name = 445528
REMARK  2 active torsions:
REMARK  status: ('A' for Active; 'I' for Inactive)
REMARK    1  A    between atoms: C_3  and  O_7
REMARK    2  A    between atoms: C_4  and  O_9
REMARK                            x       y       z     vdW  Elec       q    Type
REMARK                         _______ _______ _______ _____ _____    ______ ____
ROOT
ATOM      1  S   UNL     1      35.791 -23.867 -13.336  0.00  0.00    -0.079 S 
ATOM      2  S   UNL     1      36.845 -24.007 -15.083  0.00  0.00    -0.079 S 
ATOM      3  C   UNL     1      37.836 -25.443 -12.280  0.00  0.00    +0.150 C 
ATOM      4  C   UNL     1      38.513 -25.710 -13.635  0.00  0.00    +0.150 C 
ATOM      5  C   UNL     1      37.136 -24.084 -12.134  0.00  0.00    +0.100 C 
ATOM      6  C   UNL     1      37.601 -25.646 -14.869  0.00  0.00    +0.100 C 
ENDROOT
BRANCH   3   7
ATOM      7  O   UNL     1      36.916 -26.500 -12.008  0.00  0.00    -0.381 OA
ATOM      8  H   UNL     1      37.329 -27.140 -11.407  0.00  0.00    +0.210 HD
ENDBRANCH   3   7
BRANCH   4   9
ATOM      9  O   UNL     1      39.610 -24.809 -13.787  0.00  0.00    -0.381 OA
ATOM     10  H   UNL     1      39.617 -24.181 -13.048  0.00  0.00    +0.210 HD
ENDBRANCH   4   9
TORSDOF 2
ENDMDL
MODEL 6
REMARK VINA RESULT:      -4.3      1.950      2.518
REMARK  Name = 445528
REMARK  2 active torsions:
REMARK  status: ('A' for Active; 'I' for Inactive)
REMARK    1  A    between atoms: C_3  and  O_7
REMARK    2  A    between atoms: C_4  and  O_9
REMARK                            x       y       z     vdW  Elec       q    Type
REMARK                         _______ _______ _______ _____ _____    ______ ____
ROOT
ATOM      1  S   UNL     1      35.899 -24.556 -12.806  0.00  0.00    -0.079 S 
ATOM      2  S   UNL     1      37.334 -25.973 -12.464  0.00  0.00    -0.079 S 
ATOM      3  C   UNL     1      37.323 -24.056 -15.151  0.00  0.00    +0.150 C 
ATOM      4  C   UNL     1      38.502 -24.976 -14.792  0.00  0.00    +0.150 C 
ATOM      5  C   UNL     1      35.948 -24.486 -14.621  0.00  0.00    +0.100 C 
ATOM      6  C   UNL     1      38.752 -25.197 -13.294  0.00  0.00    +0.100 C 
ENDROOT
BRANCH   3   7
ATOM      7  O   UNL     1      37.624 -22.730 -14.716  0.00  0.00    -0.381 OA
ATOM      8  H   UNL     1      37.477 -22.109 -15.447  0.00  0.00    +0.210 HD
ENDBRANCH   3   7
BRANCH   4   9
ATOM      9  O   UNL     1      38.324 -26.230 -15.451  0.00  0.00    -0.381 OA
ATOM     10  H   UNL     1      39.134 -26.460 -15.933  0.00  0.00    +0.210 HD
ENDBRANCH   4   9
TORSDOF 2
ENDMDL
MODEL 7
REMARK VINA RESULT:      -4.2      1.844      2.770
REMARK  Name = 445528
REMARK  2 active torsions:
REMARK  status: ('A' for Active; 'I' for Inactive)
REMARK    1  A    between atoms: C_3  and  O_7
REMARK    2  A    between atoms: C_4  and  O_9
REMARK                            x       y       z     vdW  Elec       q    Type
REMARK                         _______ _______ _______ _____ _____    ______ ____
ROOT
ATOM      1  S   UNL     1      36.830 -25.340 -12.189  0.00  0.00    -0.079 S 
ATOM      2  S   UNL     1      37.160 -23.361 -12.583  0.00  0.00    -0.079 S 
ATOM      3  C   UNL     1      37.028 -25.654 -14.953  0.00  0.00    +0.150 C 
ATOM      4  C   UNL     1      37.073 -24.147 -15.257  0.00  0.00    +0.150 C 
ATOM      5  C   UNL     1      37.656 -26.092 -13.622  0.00  0.00    +0.100 C 
ATOM      6  C   UNL     1      36.397 -23.231 -14.227  0.00  0.00    +0.100 C 
ENDROOT
BRANCH   3   7
ATOM      7  O   UNL     1      35.673 -26.098 -15.025  0.00  0.00    -0.381 OA
ATOM      8  H   UNL     1      35.104 -25.357 -15.285  0.00  0.00    +0.210 HD
ENDBRANCH   3   7
BRANCH   4   9
ATOM      9  O   UNL     1      38.433 -23.756 -15.444  0.00  0.00    -0.381 OA
ATOM     10  H   UNL     1      38.616 -23.663 -16.392  0.00  0.00    +0.210 HD
ENDBRANCH   4   9
TORSDOF 2
ENDMDL
MODEL 8
REMARK VINA RESULT:      -4.1      1.826      2.300
REMARK  Name = 445528
REMARK  2 active torsions:
REMARK  status: ('A' for Active; 'I' for Inactive)
REMARK    1  A    between atoms: C_3  and  O_7
REMARK    2  A    between atoms: C_4  and  O_9
REMARK                            x       y       z     vdW  Elec       q    Type
REMARK                         _______ _______ _______ _____ _____    ______ ____
ROOT
ATOM      1  S   UNL     1      36.988 -23.211 -13.741  0.00  0.00    -0.079 S 
ATOM      2  S   UNL     1      35.802 -24.870 -13.585  0.00  0.00    -0.079 S 
ATOM      3  C   UNL     1      38.846 -24.966 -14.856  0.00  0.00    +0.150 C 
ATOM      4  C   UNL     1      38.033 -26.235 -14.552  0.00  0.00    +0.150 C 
ATOM      5  C   UNL     1      38.031 -23.698 -15.147  0.00  0.00    +0.100 C 
ATOM      6  C   UNL     1      37.072 -26.149 -13.357  0.00  0.00    +0.100 C 
ENDROOT
BRANCH   3   7
ATOM      7  O   UNL     1      39.754 -24.731 -13.779  0.00  0.00    -0.381 OA
ATOM      8  H   UNL     1      40.421 -24.084 -14.056  0.00  0.00    +0.210 HD
ENDBRANCH   3   7
BRANCH   4   9
ATOM      9  O   UNL     1      37.321 -26.619 -15.728  0.00  0.00    -0.381 OA
ATOM     10  H   UNL     1      36.973 -27.518 -15.617  0.00  0.00    +0.210 HD
ENDBRANCH   4   9
TORSDOF 2
ENDMDL
MODEL 9
REMARK VINA RESULT:      -4.1      2.674      3.373
REMARK  Name = 445528
REMARK  2 active torsions:
REMARK  status: ('A' for Active; 'I' for Inactive)
REMARK    1  A    between atoms: C_3  and  O_7
REMARK    2  A    between atoms: C_4  and  O_9
REMARK                            x       y       z     vdW  Elec       q    Type
REMARK                         _______ _______ _______ _____ _____    ______ ____
ROOT
ATOM      1  S   UNL     1      37.195 -25.976 -12.593  0.00  0.00    -0.079 S 
ATOM      2  S   UNL     1      37.891 -26.405 -14.468  0.00  0.00    -0.079 S 
ATOM      3  C   UNL     1      36.855 -23.395 -13.595  0.00  0.00    +0.150 C 
ATOM      4  C   UNL     1      37.563 -23.675 -14.931  0.00  0.00    +0.150 C 
ATOM      5  C   UNL     1      36.098 -24.578 -12.974  0.00  0.00    +0.100 C 
ATOM      6  C   UNL     1      38.610 -24.798 -14.916  0.00  0.00    +0.100 C 
ENDROOT
BRANCH   3   7
ATOM      7  O   UNL     1      37.809 -22.881 -12.666  0.00  0.00    -0.381 OA
ATOM      8  H   UNL     1      38.685 -23.247 -12.867  0.00  0.00    +0.210 HD
ENDBRANCH   3   7
BRANCH   4   9
ATOM      9  O   UNL     1      36.577 -23.936 -15.929  0.00  0.00    -0.381 OA
ATOM     10  H   UNL     1      35.768 -24.264 -15.507  0.00  0.00    +0.210 HD
ENDBRANCH   4   9
TORSDOF 2
ENDMDL
