MODEL 1
REMARK VINA RESULT:      -7.3      0.000      0.000
REMARK  Name = 4369560
REMARK  5 active torsions:
REMARK  status: ('A' for Active; 'I' for Inactive)
REMARK    1  A    between atoms: C_1  and  N_2
REMARK    2  A    between atoms: C_1  and  C_7
REMARK    3  A    between atoms: C_1  and  C_10
REMARK    4  A    between atoms: C_7  and  C_9
REMARK    5  A    between atoms: C_10  and  C_11
REMARK                            x       y       z     vdW  Elec       q    Type
REMARK                         _______ _______ _______ _____ _____    ______ ____
ROOT
ATOM      1  C   UNL     1      34.879 -17.648 -22.723  0.00  0.00    -0.001 C 
ENDROOT
BRANCH   1   2
ATOM      2  N   UNL     1      35.383 -17.704 -24.095  0.00  0.00    +0.386 N 
ATOM      3  H   UNL     1      36.356 -18.008 -24.086  0.00  0.00    -0.089 HD
ATOM      4  H   UNL     1      35.320 -16.779 -24.518  0.00  0.00    -0.089 HD
ATOM      5  H   UNL     1      34.824 -18.364 -24.635  0.00  0.00    -0.089 HD
ENDBRANCH   1   2
BRANCH   1   7
ATOM      6  O   UNL     1      35.067 -15.279 -23.168  0.00  0.00    -0.297 OA
ATOM      7  C   UNL     1      34.875 -16.171 -22.341  0.00  0.00    +0.147 C 
BRANCH   7   9
ATOM      8 CL   UNL     1      32.881 -15.528 -20.709  0.00  0.00    -0.105 Cl
ATOM      9  C   UNL     1      34.611 -15.834 -20.895  0.00  0.00    +0.157 C 
ENDBRANCH   7   9
ENDBRANCH   1   7
BRANCH   1  10
ATOM     10  C   UNL     1      35.774 -18.484 -21.799  0.00  0.00    +0.012 C 
BRANCH  10  11
ATOM     11  C   UNL     1      34.997 -19.513 -21.010  0.00  0.00    -0.024 C 
ATOM     12  C   UNL     1      33.615 -19.446 -20.986  0.00  0.00    -0.004 C 
ATOM     13  C   UNL     1      35.684 -20.504 -20.327  0.00  0.00    -0.004 C 
ATOM     14  C   UNL     1      32.898 -20.396 -20.259  0.00  0.00    -0.000 C 
ATOM     15  C   UNL     1      34.967 -21.454 -19.600  0.00  0.00    -0.000 C 
ATOM     16  C   UNL     1      33.573 -21.400 -19.565  0.00  0.00    -0.000 C 
ENDBRANCH  10  11
ENDBRANCH   1  10
TORSDOF 5
ENDMDL
MODEL 2
REMARK VINA RESULT:      -7.3      0.023      1.340
REMARK  Name = 4369560
REMARK  5 active torsions:
REMARK  status: ('A' for Active; 'I' for Inactive)
REMARK    1  A    between atoms: C_1  and  N_2
REMARK    2  A    between atoms: C_1  and  C_7
REMARK    3  A    between atoms: C_1  and  C_10
REMARK    4  A    between atoms: C_7  and  C_9
REMARK    5  A    between atoms: C_10  and  C_11
REMARK                            x       y       z     vdW  Elec       q    Type
REMARK                         _______ _______ _______ _____ _____    ______ ____
ROOT
ATOM      1  C   UNL     1      34.874 -17.656 -22.726  0.00  0.00    -0.001 C 
ENDROOT
BRANCH   1   2
ATOM      2  N   UNL     1      35.362 -17.719 -24.103  0.00  0.00    +0.386 N 
ATOM      3  H   UNL     1      36.378 -17.634 -24.108  0.00  0.00    -0.089 HD
ATOM      4  H   UNL     1      34.954 -16.956 -24.643  0.00  0.00    -0.089 HD
ATOM      5  H   UNL     1      35.093 -18.611 -24.518  0.00  0.00    -0.089 HD
ENDBRANCH   1   2
BRANCH   1   7
ATOM      6  O   UNL     1      35.083 -15.290 -23.178  0.00  0.00    -0.297 OA
ATOM      7  C   UNL     1      34.882 -16.178 -22.348  0.00  0.00    +0.147 C 
BRANCH   7   9
ATOM      8 CL   UNL     1      32.881 -15.585 -20.707  0.00  0.00    -0.105 Cl
ATOM      9  C   UNL     1      34.618 -15.834 -20.904  0.00  0.00    +0.157 C 
ENDBRANCH   7   9
ENDBRANCH   1   7
BRANCH   1  10
ATOM     10  C   UNL     1      35.776 -18.494 -21.810  0.00  0.00    +0.012 C 
BRANCH  10  11
ATOM     11  C   UNL     1      35.005 -19.522 -21.015  0.00  0.00    -0.024 C 
ATOM     12  C   UNL     1      35.696 -20.504 -20.326  0.00  0.00    -0.004 C 
ATOM     13  C   UNL     1      33.620 -19.462 -20.992  0.00  0.00    -0.004 C 
ATOM     14  C   UNL     1      34.983 -21.453 -19.592  0.00  0.00    -0.000 C 
ATOM     15  C   UNL     1      32.908 -20.411 -20.258  0.00  0.00    -0.000 C 
ATOM     16  C   UNL     1      33.590 -21.407 -19.558  0.00  0.00    -0.000 C 
ENDBRANCH  10  11
ENDBRANCH   1  10
TORSDOF 5
ENDMDL
MODEL 3
REMARK VINA RESULT:      -7.1      1.996      2.666
REMARK  Name = 4369560
REMARK  5 active torsions:
REMARK  status: ('A' for Active; 'I' for Inactive)
REMARK    1  A    between atoms: C_1  and  N_2
REMARK    2  A    between atoms: C_1  and  C_7
REMARK    3  A    between atoms: C_1  and  C_10
REMARK    4  A    between atoms: C_7  and  C_9
REMARK    5  A    between atoms: C_10  and  C_11
REMARK                            x       y       z     vdW  Elec       q    Type
REMARK                         _______ _______ _______ _____ _____    ______ ____
ROOT
ATOM      1  C   UNL     1      35.168 -17.883 -21.483  0.00  0.00    -0.001 C 
ENDROOT
BRANCH   1   2
ATOM      2  N   UNL     1      35.023 -16.737 -20.586  0.00  0.00    +0.386 N 
ATOM      3  H   UNL     1      35.717 -16.799 -19.841  0.00  0.00    -0.089 HD
ATOM      4  H   UNL     1      34.088 -16.739 -20.181  0.00  0.00    -0.089 HD
ATOM      5  H   UNL     1      35.165 -15.875 -21.112  0.00  0.00    -0.089 HD
ENDBRANCH   1   2
BRANCH   1   7
ATOM      6  O   UNL     1      35.454 -16.094 -23.085  0.00  0.00    -0.297 OA
ATOM      7  C   UNL     1      35.295 -17.300 -22.888  0.00  0.00    +0.147 C 
BRANCH   7   9
ATOM      8 CL   UNL     1      34.153 -17.589 -25.267  0.00  0.00    -0.105 Cl
ATOM      9  C   UNL     1      35.232 -18.266 -24.043  0.00  0.00    +0.157 C 
ENDBRANCH   7   9
ENDBRANCH   1   7
BRANCH   1  10
ATOM     10  C   UNL     1      33.953 -18.812 -21.349  0.00  0.00    +0.012 C 
BRANCH  10  11
ATOM     11  C   UNL     1      34.249 -20.040 -20.518  0.00  0.00    -0.024 C 
ATOM     12  C   UNL     1      35.561 -20.449 -20.357  0.00  0.00    -0.004 C 
ATOM     13  C   UNL     1      33.200 -20.731 -19.933  0.00  0.00    -0.004 C 
ATOM     14  C   UNL     1      35.834 -21.582 -19.590  0.00  0.00    -0.000 C 
ATOM     15  C   UNL     1      33.472 -21.863 -19.165  0.00  0.00    -0.000 C 
ATOM     16  C   UNL     1      34.790 -22.289 -18.994  0.00  0.00    -0.000 C 
ENDBRANCH  10  11
ENDBRANCH   1  10
TORSDOF 5
ENDMDL
MODEL 4
REMARK VINA RESULT:      -6.9      1.622      1.710
REMARK  Name = 4369560
REMARK  5 active torsions:
REMARK  status: ('A' for Active; 'I' for Inactive)
REMARK    1  A    between atoms: C_1  and  N_2
REMARK    2  A    between atoms: C_1  and  C_7
REMARK    3  A    between atoms: C_1  and  C_10
REMARK    4  A    between atoms: C_7  and  C_9
REMARK    5  A    between atoms: C_10  and  C_11
REMARK                            x       y       z     vdW  Elec       q    Type
REMARK                         _______ _______ _______ _____ _____    ______ ____
ROOT
ATOM      1  C   UNL     1      34.516 -18.345 -23.638  0.00  0.00    -0.001 C 
ENDROOT
BRANCH   1   2
ATOM      2  N   UNL     1      34.872 -19.447 -24.531  0.00  0.00    +0.386 N 
ATOM      3  H   UNL     1      35.852 -19.362 -24.800  0.00  0.00    -0.089 HD
ATOM      4  H   UNL     1      34.286 -19.410 -25.365  0.00  0.00    -0.089 HD
ATOM      5  H   UNL     1      34.726 -20.334 -24.051  0.00  0.00    -0.089 HD
ENDBRANCH   1   2
BRANCH   1   7
ATOM      6  O   UNL     1      34.889 -17.060 -25.651  0.00  0.00    -0.297 OA
ATOM      7  C   UNL     1      34.788 -17.066 -24.424  0.00  0.00    +0.147 C 
BRANCH   7   9
ATOM      8 CL   UNL     1      33.384 -14.917 -23.745  0.00  0.00    -0.105 Cl
ATOM      9  C   UNL     1      34.918 -15.787 -23.635  0.00  0.00    +0.157 C 
ENDBRANCH   7   9
ENDBRANCH   1   7
BRANCH   1  10
ATOM     10  C   UNL     1      35.348 -18.422 -22.350  0.00  0.00    +0.012 C 
BRANCH  10  11
ATOM     11  C   UNL     1      34.793 -19.419 -21.358  0.00  0.00    -0.024 C 
ATOM     12  C   UNL     1      33.426 -19.481 -21.151  0.00  0.00    -0.004 C 
ATOM     13  C   UNL     1      35.665 -20.252 -20.675  0.00  0.00    -0.004 C 
ATOM     14  C   UNL     1      32.915 -20.401 -20.236  0.00  0.00    -0.000 C 
ATOM     15  C   UNL     1      35.154 -21.172 -19.760  0.00  0.00    -0.000 C 
ATOM     16  C   UNL     1      33.778 -21.247 -19.540  0.00  0.00    -0.000 C 
ENDBRANCH  10  11
ENDBRANCH   1  10
TORSDOF 5
ENDMDL
MODEL 5
REMARK VINA RESULT:      -6.5      3.142      4.206
REMARK  Name = 4369560
REMARK  5 active torsions:
REMARK  status: ('A' for Active; 'I' for Inactive)
REMARK    1  A    between atoms: C_1  and  N_2
REMARK    2  A    between atoms: C_1  and  C_7
REMARK    3  A    between atoms: C_1  and  C_10
REMARK    4  A    between atoms: C_7  and  C_9
REMARK    5  A    between atoms: C_10  and  C_11
REMARK                            x       y       z     vdW  Elec       q    Type
REMARK                         _______ _______ _______ _____ _____    ______ ____
ROOT
ATOM      1  C   UNL     1      33.592 -14.311 -23.328  0.00  0.00    -0.001 C 
ENDROOT
BRANCH   1   2
ATOM      2  N   UNL     1      34.069 -12.988 -23.727  0.00  0.00    +0.386 N 
ATOM      3  H   UNL     1      33.752 -12.783 -24.674  0.00  0.00    -0.089 HD
ATOM      4  H   UNL     1      35.088 -12.972 -23.698  0.00  0.00    -0.089 HD
ATOM      5  H   UNL     1      33.700 -12.286 -23.086  0.00  0.00    -0.089 HD
ENDBRANCH   1   2
BRANCH   1   7
ATOM      6  O   UNL     1      32.094 -14.976 -21.550  0.00  0.00    -0.297 OA
ATOM      7  C   UNL     1      32.533 -14.068 -22.256  0.00  0.00    +0.147 C 
BRANCH   7   9
ATOM      8 CL   UNL     1      31.901 -12.334 -20.347  0.00  0.00    -0.105 Cl
ATOM      9  C   UNL     1      32.046 -12.652 -22.078  0.00  0.00    +0.157 C 
ENDBRANCH   7   9
ENDBRANCH   1   7
BRANCH   1  10
ATOM     10  C   UNL     1      34.761 -15.158 -22.807  0.00  0.00    +0.012 C 
BRANCH  10  11
ATOM     11  C   UNL     1      34.751 -16.566 -23.356  0.00  0.00    -0.024 C 
ATOM     12  C   UNL     1      34.415 -16.774 -24.683  0.00  0.00    -0.004 C 
ATOM     13  C   UNL     1      35.078 -17.622 -22.520  0.00  0.00    -0.004 C 
ATOM     14  C   UNL     1      34.406 -18.073 -25.189  0.00  0.00    -0.000 C 
ATOM     15  C   UNL     1      35.070 -18.921 -23.026  0.00  0.00    -0.000 C 
ATOM     16  C   UNL     1      34.733 -19.148 -24.361  0.00  0.00    -0.000 C 
ENDBRANCH  10  11
ENDBRANCH   1  10
TORSDOF 5
ENDMDL
MODEL 6
REMARK VINA RESULT:      -6.4      3.503      5.275
REMARK  Name = 4369560
REMARK  5 active torsions:
REMARK  status: ('A' for Active; 'I' for Inactive)
REMARK    1  A    between atoms: C_1  and  N_2
REMARK    2  A    between atoms: C_1  and  C_7
REMARK    3  A    between atoms: C_1  and  C_10
REMARK    4  A    between atoms: C_7  and  C_9
REMARK    5  A    between atoms: C_10  and  C_11
REMARK                            x       y       z     vdW  Elec       q    Type
REMARK                         _______ _______ _______ _____ _____    ______ ____
ROOT
ATOM      1  C   UNL     1      34.318 -20.112 -20.981  0.00  0.00    -0.001 C 
ENDROOT
BRANCH   1   2
ATOM      2  N   UNL     1      32.974 -19.727 -20.552  0.00  0.00    +0.386 N 
ATOM      3  H   UNL     1      32.911 -19.786 -19.536  0.00  0.00    -0.089 HD
ATOM      4  H   UNL     1      32.290 -20.356 -20.971  0.00  0.00    -0.089 HD
ATOM      5  H   UNL     1      32.783 -18.771 -20.850  0.00  0.00    -0.089 HD
ENDBRANCH   1   2
BRANCH   1   7
ATOM      6  O   UNL     1      34.125 -21.735 -19.199  0.00  0.00    -0.297 OA
ATOM      7  C   UNL     1      34.861 -21.022 -19.883  0.00  0.00    +0.147 C 
BRANCH   7   9
ATOM      8 CL   UNL     1      36.671 -21.614 -18.033  0.00  0.00    -0.105 Cl
ATOM      9  C   UNL     1      36.354 -21.028 -19.669  0.00  0.00    +0.157 C 
ENDBRANCH   7   9
ENDBRANCH   1   7
BRANCH   1  10
ATOM     10  C   UNL     1      35.185 -18.862 -21.179  0.00  0.00    +0.012 C 
BRANCH  10  11
ATOM     11  C   UNL     1      34.993 -18.229 -22.539  0.00  0.00    -0.024 C 
ATOM     12  C   UNL     1      35.085 -16.854 -22.665  0.00  0.00    -0.004 C 
ATOM     13  C   UNL     1      34.728 -19.039 -23.632  0.00  0.00    -0.004 C 
ATOM     14  C   UNL     1      34.908 -16.271 -23.920  0.00  0.00    -0.000 C 
ATOM     15  C   UNL     1      34.551 -18.456 -24.887  0.00  0.00    -0.000 C 
ATOM     16  C   UNL     1      34.641 -17.071 -25.031  0.00  0.00    -0.000 C 
ENDBRANCH  10  11
ENDBRANCH   1  10
TORSDOF 5
ENDMDL
MODEL 7
REMARK VINA RESULT:      -6.4      5.452      7.199
REMARK  Name = 4369560
REMARK  5 active torsions:
REMARK  status: ('A' for Active; 'I' for Inactive)
REMARK    1  A    between atoms: C_1  and  N_2
REMARK    2  A    between atoms: C_1  and  C_7
REMARK    3  A    between atoms: C_1  and  C_10
REMARK    4  A    between atoms: C_7  and  C_9
REMARK    5  A    between atoms: C_10  and  C_11
REMARK                            x       y       z     vdW  Elec       q    Type
REMARK                         _______ _______ _______ _____ _____    ______ ____
ROOT
ATOM      1  C   UNL     1      33.337 -22.874 -16.928  0.00  0.00    -0.001 C 
ENDROOT
BRANCH   1   2
ATOM      2  N   UNL     1      34.097 -23.749 -16.036  0.00  0.00    +0.386 N 
ATOM      3  H   UNL     1      34.623 -24.425 -16.591  0.00  0.00    -0.089 HD
ATOM      4  H   UNL     1      33.455 -24.244 -15.418  0.00  0.00    -0.089 HD
ATOM      5  H   UNL     1      34.743 -23.190 -15.481  0.00  0.00    -0.089 HD
ENDBRANCH   1   2
BRANCH   1   7
ATOM      6  O   UNL     1      30.957 -22.535 -17.183  0.00  0.00    -0.297 OA
ATOM      7  C   UNL     1      31.870 -23.073 -16.556  0.00  0.00    +0.147 C 
BRANCH   7   9
ATOM      8 CL   UNL     1      30.021 -24.766 -15.683  0.00  0.00    -0.105 Cl
ATOM      9  C   UNL     1      31.572 -23.976 -15.386  0.00  0.00    +0.157 C 
ENDBRANCH   7   9
ENDBRANCH   1   7
BRANCH   1  10
ATOM     10  C   UNL     1      33.619 -23.241 -18.391  0.00  0.00    +0.012 C 
BRANCH  10  11
ATOM     11  C   UNL     1      34.065 -22.053 -19.213  0.00  0.00    -0.024 C 
ATOM     12  C   UNL     1      35.417 -21.842 -19.422  0.00  0.00    -0.004 C 
ATOM     13  C   UNL     1      33.111 -21.199 -19.744  0.00  0.00    -0.004 C 
ATOM     14  C   UNL     1      35.828 -20.747 -20.181  0.00  0.00    -0.000 C 
ATOM     15  C   UNL     1      33.522 -20.103 -20.503  0.00  0.00    -0.000 C 
ATOM     16  C   UNL     1      34.881 -19.877 -20.722  0.00  0.00    -0.000 C 
ENDBRANCH  10  11
ENDBRANCH   1  10
TORSDOF 5
ENDMDL
MODEL 8
REMARK VINA RESULT:      -6.4      3.051      4.164
REMARK  Name = 4369560
REMARK  5 active torsions:
REMARK  status: ('A' for Active; 'I' for Inactive)
REMARK    1  A    between atoms: C_1  and  N_2
REMARK    2  A    between atoms: C_1  and  C_7
REMARK    3  A    between atoms: C_1  and  C_10
REMARK    4  A    between atoms: C_7  and  C_9
REMARK    5  A    between atoms: C_10  and  C_11
REMARK                            x       y       z     vdW  Elec       q    Type
REMARK                         _______ _______ _______ _____ _____    ______ ____
ROOT
ATOM      1  C   UNL     1      33.189 -14.451 -23.414  0.00  0.00    -0.001 C 
ENDROOT
BRANCH   1   2
ATOM      2  N   UNL     1      33.199 -13.452 -24.482  0.00  0.00    +0.386 N 
ATOM      3  H   UNL     1      34.160 -13.273 -24.771  0.00  0.00    -0.089 HD
ATOM      4  H   UNL     1      32.779 -12.587 -24.141  0.00  0.00    -0.089 HD
ATOM      5  H   UNL     1      32.663 -13.800 -25.277  0.00  0.00    -0.089 HD
ENDBRANCH   1   2
BRANCH   1   7
ATOM      6  O   UNL     1      31.929 -12.739 -22.261  0.00  0.00    -0.297 OA
ATOM      7  C   UNL     1      32.648 -13.736 -22.179  0.00  0.00    +0.147 C 
BRANCH   7   9
ATOM      8 CL   UNL     1      32.256 -15.897 -20.686  0.00  0.00    -0.105 Cl
ATOM      9  C   UNL     1      33.017 -14.310 -20.834  0.00  0.00    +0.157 C 
ENDBRANCH   7   9
ENDBRANCH   1   7
BRANCH   1  10
ATOM     10  C   UNL     1      34.606 -14.997 -23.192  0.00  0.00    +0.012 C 
BRANCH  10  11
ATOM     11  C   UNL     1      34.715 -16.474 -23.495  0.00  0.00    -0.024 C 
ATOM     12  C   UNL     1      35.137 -17.341 -22.502  0.00  0.00    -0.004 C 
ATOM     13  C   UNL     1      34.388 -16.932 -24.762  0.00  0.00    -0.004 C 
ATOM     14  C   UNL     1      35.236 -18.704 -22.782  0.00  0.00    -0.000 C 
ATOM     15  C   UNL     1      34.487 -18.295 -25.042  0.00  0.00    -0.000 C 
ATOM     16  C   UNL     1      34.912 -19.182 -24.052  0.00  0.00    -0.000 C 
ENDBRANCH  10  11
ENDBRANCH   1  10
TORSDOF 5
ENDMDL
MODEL 9
REMARK VINA RESULT:      -6.3      4.966      6.454
REMARK  Name = 4369560
REMARK  5 active torsions:
REMARK  status: ('A' for Active; 'I' for Inactive)
REMARK    1  A    between atoms: C_1  and  N_2
REMARK    2  A    between atoms: C_1  and  C_7
REMARK    3  A    between atoms: C_1  and  C_10
REMARK    4  A    between atoms: C_7  and  C_9
REMARK    5  A    between atoms: C_10  and  C_11
REMARK                            x       y       z     vdW  Elec       q    Type
REMARK                         _______ _______ _______ _____ _____    ______ ____
ROOT
ATOM      1  C   UNL     1      36.586 -21.626 -17.105  0.00  0.00    -0.001 C 
ENDROOT
BRANCH   1   2
ATOM      2  N   UNL     1      37.526 -20.521 -16.925  0.00  0.00    +0.386 N 
ATOM      3  H   UNL     1      38.480 -20.880 -16.943  0.00  0.00    -0.089 HD
ATOM      4  H   UNL     1      37.351 -20.069 -16.028  0.00  0.00    -0.089 HD
ATOM      5  H   UNL     1      37.402 -19.844 -17.677  0.00  0.00    -0.089 HD
ENDBRANCH   1   2
BRANCH   1   7
ATOM      6  O   UNL     1      38.276 -22.892 -15.928  0.00  0.00    -0.297 OA
ATOM      7  C   UNL     1      37.084 -22.749 -16.199  0.00  0.00    +0.147 C 
BRANCH   7   9
ATOM      8 CL   UNL     1      34.481 -22.867 -15.685  0.00  0.00    -0.105 Cl
ATOM      9  C   UNL     1      36.047 -23.683 -15.626  0.00  0.00    +0.157 C 
ENDBRANCH   7   9
ENDBRANCH   1   7
BRANCH   1  10
ATOM     10  C   UNL     1      36.546 -22.048 -18.581  0.00  0.00    +0.012 C 
BRANCH  10  11
ATOM     11  C   UNL     1      35.459 -21.342 -19.358  0.00  0.00    -0.024 C 
ATOM     12  C   UNL     1      34.135 -21.661 -19.114  0.00  0.00    -0.004 C 
ATOM     13  C   UNL     1      35.810 -20.387 -20.300  0.00  0.00    -0.004 C 
ATOM     14  C   UNL     1      33.132 -21.009 -19.832  0.00  0.00    -0.000 C 
ATOM     15  C   UNL     1      34.807 -19.734 -21.017  0.00  0.00    -0.000 C 
ATOM     16  C   UNL     1      33.467 -20.046 -20.783  0.00  0.00    -0.000 C 
ENDBRANCH  10  11
ENDBRANCH   1  10
TORSDOF 5
ENDMDL
