MODEL 1
REMARK VINA RESULT:      -7.9      0.000      0.000
REMARK  Name = 639097
REMARK  3 active torsions:
REMARK  status: ('A' for Active; 'I' for Inactive)
REMARK    1  A    between atoms: N_1  and  C_7
REMARK    2  A    between atoms: C_3  and  N_13
REMARK    3  A    between atoms: C_4  and  C_17
REMARK                            x       y       z     vdW  Elec       q    Type
REMARK                         _______ _______ _______ _____ _____    ______ ____
ROOT
ATOM      1  N   UNL     1      35.000 -19.821 -20.697  0.00  0.00    -0.176 N 
ATOM      2  N   UNL     1      36.224 -20.158 -20.236  0.00  0.00    -0.170 NA
ATOM      3  C   UNL     1      34.011 -20.656 -20.244  0.00  0.00    +0.129 C 
ATOM      4  C   UNL     1      34.628 -21.587 -19.442  0.00  0.00    +0.118 C 
ATOM      5  C   UNL     1      35.989 -21.231 -19.475  0.00  0.00    +0.131 C 
ENDROOT
BRANCH   1   7
ATOM      6 CL   UNL     1      34.381 -15.179 -24.275  0.00  0.00    -0.082 Cl
ATOM      7  C   UNL     1      34.855 -18.732 -21.537  0.00  0.00    +0.075 C 
ATOM      8  C   UNL     1      34.669 -17.458 -21.001  0.00  0.00    +0.018 C 
ATOM      9  C   UNL     1      34.895 -18.908 -22.920  0.00  0.00    +0.018 C 
ATOM     10  C   UNL     1      34.521 -16.359 -21.847  0.00  0.00    +0.013 C 
ATOM     11  C   UNL     1      34.748 -17.808 -23.767  0.00  0.00    +0.013 C 
ATOM     12  C   UNL     1      34.561 -16.536 -23.230  0.00  0.00    +0.058 C 
ENDBRANCH   1   7
BRANCH   3  13
ATOM     13  N   UNL     1      32.718 -20.480 -20.599  0.00  0.00    -0.344 N 
ATOM     14  H   UNL     1      32.233 -19.676 -20.306  0.00  0.00    +0.144 HD
ATOM     15  H   UNL     1      32.263 -21.158 -21.149  0.00  0.00    +0.144 HD
ENDBRANCH   3  13
BRANCH   4  17
ATOM     16  N   UNL     1      33.506 -23.547 -18.173  0.00  0.00    -0.191 NA
ATOM     17  C   UNL     1      34.012 -22.661 -18.746  0.00  0.00    +0.105 C 
ENDBRANCH   4  17
TORSDOF 3
ENDMDL
MODEL 2
REMARK VINA RESULT:      -7.8      3.615      6.137
REMARK  Name = 639097
REMARK  3 active torsions:
REMARK  status: ('A' for Active; 'I' for Inactive)
REMARK    1  A    between atoms: N_1  and  C_7
REMARK    2  A    between atoms: C_3  and  N_13
REMARK    3  A    between atoms: C_4  and  C_17
REMARK                            x       y       z     vdW  Elec       q    Type
REMARK                         _______ _______ _______ _____ _____    ______ ____
ROOT
ATOM      1  N   UNL     1      34.679 -17.352 -22.536  0.00  0.00    -0.176 N 
ATOM      2  N   UNL     1      34.592 -16.105 -22.023  0.00  0.00    -0.170 NA
ATOM      3  C   UNL     1      34.416 -17.395 -23.881  0.00  0.00    +0.129 C 
ATOM      4  C   UNL     1      34.144 -16.103 -24.263  0.00  0.00    +0.118 C 
ATOM      5  C   UNL     1      34.267 -15.353 -23.078  0.00  0.00    +0.131 C 
ENDROOT
BRANCH   1   7
ATOM      6 CL   UNL     1      36.067 -21.880 -19.028  0.00  0.00    -0.082 Cl
ATOM      7  C   UNL     1      35.005 -18.415 -21.713  0.00  0.00    +0.075 C 
ATOM      8  C   UNL     1      34.001 -19.239 -21.207  0.00  0.00    +0.018 C 
ATOM      9  C   UNL     1      36.340 -18.661 -21.388  0.00  0.00    +0.018 C 
ATOM     10  C   UNL     1      34.328 -20.310 -20.377  0.00  0.00    +0.013 C 
ATOM     11  C   UNL     1      36.668 -19.733 -20.557  0.00  0.00    +0.013 C 
ATOM     12  C   UNL     1      35.662 -20.556 -20.052  0.00  0.00    +0.058 C 
ENDBRANCH   1   7
BRANCH   3  13
ATOM     13  N   UNL     1      34.453 -18.556 -24.573  0.00  0.00    -0.344 N 
ATOM     14  H   UNL     1      33.897 -19.316 -24.287  0.00  0.00    +0.144 HD
ATOM     15  H   UNL     1      35.036 -18.641 -25.361  0.00  0.00    +0.144 HD
ENDBRANCH   3  13
BRANCH   4  17
ATOM     16  N   UNL     1      33.538 -15.271 -26.640  0.00  0.00    -0.191 NA
ATOM     17  C   UNL     1      33.812 -15.647 -25.567  0.00  0.00    +0.105 C 
ENDBRANCH   4  17
TORSDOF 3
ENDMDL
MODEL 3
REMARK VINA RESULT:      -7.7      3.568      6.155
REMARK  Name = 639097
REMARK  3 active torsions:
REMARK  status: ('A' for Active; 'I' for Inactive)
REMARK    1  A    between atoms: N_1  and  C_7
REMARK    2  A    between atoms: C_3  and  N_13
REMARK    3  A    between atoms: C_4  and  C_17
REMARK                            x       y       z     vdW  Elec       q    Type
REMARK                         _______ _______ _______ _____ _____    ______ ____
ROOT
ATOM      1  N   UNL     1      34.807 -17.500 -22.455  0.00  0.00    -0.176 N 
ATOM      2  N   UNL     1      34.847 -17.679 -23.793  0.00  0.00    -0.170 NA
ATOM      3  C   UNL     1      34.550 -16.200 -22.098  0.00  0.00    +0.129 C 
ATOM      4  C   UNL     1      34.414 -15.498 -23.271  0.00  0.00    +0.118 C 
ATOM      5  C   UNL     1      34.607 -16.459 -24.281  0.00  0.00    +0.131 C 
ENDROOT
BRANCH   1   7
ATOM      6 CL   UNL     1      35.703 -22.075 -18.849  0.00  0.00    -0.082 Cl
ATOM      7  C   UNL     1      35.017 -18.573 -21.608  0.00  0.00    +0.075 C 
ATOM      8  C   UNL     1      36.306 -18.874 -21.170  0.00  0.00    +0.018 C 
ATOM      9  C   UNL     1      33.939 -19.356 -21.194  0.00  0.00    +0.018 C 
ATOM     10  C   UNL     1      36.519 -19.957 -20.317  0.00  0.00    +0.013 C 
ATOM     11  C   UNL     1      34.152 -20.439 -20.340  0.00  0.00    +0.013 C 
ATOM     12  C   UNL     1      35.441 -20.739 -19.903  0.00  0.00    +0.058 C 
ENDBRANCH   1   7
BRANCH   3  13
ATOM     13  N   UNL     1      34.473 -15.824 -20.802  0.00  0.00    -0.344 N 
ATOM     14  H   UNL     1      33.918 -15.052 -20.546  0.00  0.00    +0.144 HD
ATOM     15  H   UNL     1      34.973 -16.321 -20.115  0.00  0.00    +0.144 HD
ENDBRANCH   3  13
BRANCH   4  17
ATOM     16  N   UNL     1      33.916 -12.969 -23.530  0.00  0.00    -0.191 NA
ATOM     17  C   UNL     1      34.141 -14.111 -23.413  0.00  0.00    +0.105 C 
ENDBRANCH   4  17
TORSDOF 3
ENDMDL
MODEL 4
REMARK VINA RESULT:      -7.7      3.372      5.915
REMARK  Name = 639097
REMARK  3 active torsions:
REMARK  status: ('A' for Active; 'I' for Inactive)
REMARK    1  A    between atoms: N_1  and  C_7
REMARK    2  A    between atoms: C_3  and  N_13
REMARK    3  A    between atoms: C_4  and  C_17
REMARK                            x       y       z     vdW  Elec       q    Type
REMARK                         _______ _______ _______ _____ _____    ______ ____
ROOT
ATOM      1  N   UNL     1      34.605 -18.482 -21.735  0.00  0.00    -0.176 N 
ATOM      2  N   UNL     1      34.732 -17.244 -21.210  0.00  0.00    -0.170 NA
ATOM      3  C   UNL     1      34.627 -18.485 -23.106  0.00  0.00    +0.129 C 
ATOM      4  C   UNL     1      34.778 -17.175 -23.493  0.00  0.00    +0.118 C 
ATOM      5  C   UNL     1      34.836 -16.456 -22.284  0.00  0.00    +0.131 C 
ENDROOT
BRANCH   1   7
ATOM      6 CL   UNL     1      34.033 -23.142 -18.172  0.00  0.00    -0.082 Cl
ATOM      7  C   UNL     1      34.471 -19.575 -20.898  0.00  0.00    +0.075 C 
ATOM      8  C   UNL     1      35.603 -20.258 -20.456  0.00  0.00    +0.018 C 
ATOM      9  C   UNL     1      33.202 -19.996 -20.498  0.00  0.00    +0.018 C 
ATOM     10  C   UNL     1      35.469 -21.361 -19.613  0.00  0.00    +0.013 C 
ATOM     11  C   UNL     1      33.067 -21.099 -19.655  0.00  0.00    +0.013 C 
ATOM     12  C   UNL     1      34.200 -21.781 -19.213  0.00  0.00    +0.058 C 
ENDBRANCH   1   7
BRANCH   3  13
ATOM     13  N   UNL     1      34.512 -19.631 -23.814  0.00  0.00    -0.344 N 
ATOM     14  H   UNL     1      35.319 -20.100 -24.126  0.00  0.00    +0.144 HD
ATOM     15  H   UNL     1      33.621 -19.996 -24.017  0.00  0.00    +0.144 HD
ENDBRANCH   3  13
BRANCH   4  17
ATOM     16  N   UNL     1      34.914 -16.267 -25.915  0.00  0.00    -0.191 NA
ATOM     17  C   UNL     1      34.853 -16.677 -24.821  0.00  0.00    +0.105 C 
ENDBRANCH   4  17
TORSDOF 3
ENDMDL
MODEL 5
REMARK VINA RESULT:      -7.2      3.693      6.259
REMARK  Name = 639097
REMARK  3 active torsions:
REMARK  status: ('A' for Active; 'I' for Inactive)
REMARK    1  A    between atoms: N_1  and  C_7
REMARK    2  A    between atoms: C_3  and  N_13
REMARK    3  A    between atoms: C_4  and  C_17
REMARK                            x       y       z     vdW  Elec       q    Type
REMARK                         _______ _______ _______ _____ _____    ______ ____
ROOT
ATOM      1  N   UNL     1      34.512 -16.614 -21.601  0.00  0.00    -0.176 N 
ATOM      2  N   UNL     1      34.399 -15.642 -20.669  0.00  0.00    -0.170 NA
ATOM      3  C   UNL     1      34.364 -16.144 -22.881  0.00  0.00    +0.129 C 
ATOM      4  C   UNL     1      34.144 -14.792 -22.774  0.00  0.00    +0.118 C 
ATOM      5  C   UNL     1      34.176 -14.540 -21.390  0.00  0.00    +0.131 C 
ENDROOT
BRANCH   1   7
ATOM      6 CL   UNL     1      35.531 -22.177 -19.943  0.00  0.00    -0.082 Cl
ATOM      7  C   UNL     1      34.751 -17.919 -21.212  0.00  0.00    +0.075 C 
ATOM      8  C   UNL     1      36.061 -18.380 -21.085  0.00  0.00    +0.018 C 
ATOM      9  C   UNL     1      33.681 -18.775 -20.947  0.00  0.00    +0.018 C 
ATOM     10  C   UNL     1      36.303 -19.696 -20.693  0.00  0.00    +0.013 C 
ATOM     11  C   UNL     1      33.923 -20.092 -20.555  0.00  0.00    +0.013 C 
ATOM     12  C   UNL     1      35.233 -20.552 -20.428  0.00  0.00    +0.058 C 
ENDBRANCH   1   7
BRANCH   3  13
ATOM     13  N   UNL     1      34.443 -16.967 -23.951  0.00  0.00    -0.344 N 
ATOM     14  H   UNL     1      34.660 -17.919 -23.824  0.00  0.00    +0.144 HD
ATOM     15  H   UNL     1      34.285 -16.614 -24.856  0.00  0.00    +0.144 HD
ENDBRANCH   3  13
BRANCH   4  17
ATOM     16  N   UNL     1      33.756 -13.112 -24.707  0.00  0.00    -0.191 NA
ATOM     17  C   UNL     1      33.931 -13.871 -23.835  0.00  0.00    +0.105 C 
ENDBRANCH   4  17
TORSDOF 3
ENDMDL
MODEL 6
REMARK VINA RESULT:      -7.1      6.945      8.261
REMARK  Name = 639097
REMARK  3 active torsions:
REMARK  status: ('A' for Active; 'I' for Inactive)
REMARK    1  A    between atoms: N_1  and  C_7
REMARK    2  A    between atoms: C_3  and  N_13
REMARK    3  A    between atoms: C_4  and  C_17
REMARK                            x       y       z     vdW  Elec       q    Type
REMARK                         _______ _______ _______ _____ _____    ______ ____
ROOT
ATOM      1  N   UNL     1      35.587 -23.859 -15.300  0.00  0.00    -0.176 N 
ATOM      2  N   UNL     1      36.449 -22.821 -15.242  0.00  0.00    -0.170 NA
ATOM      3  C   UNL     1      36.201 -25.072 -15.114  0.00  0.00    +0.129 C 
ATOM      4  C   UNL     1      37.535 -24.805 -14.922  0.00  0.00    +0.118 C 
ATOM      5  C   UNL     1      37.628 -23.403 -15.012  0.00  0.00    +0.131 C 
ENDROOT
BRANCH   1   7
ATOM      6 CL   UNL     1      29.860 -22.874 -16.281  0.00  0.00    -0.082 Cl
ATOM      7  C   UNL     1      34.243 -23.629 -15.530  0.00  0.00    +0.075 C 
ATOM      8  C   UNL     1      33.787 -23.401 -16.828  0.00  0.00    +0.018 C 
ATOM      9  C   UNL     1      33.344 -23.623 -14.463  0.00  0.00    +0.018 C 
ATOM     10  C   UNL     1      32.432 -23.167 -17.061  0.00  0.00    +0.013 C 
ATOM     11  C   UNL     1      31.988 -23.389 -14.696  0.00  0.00    +0.013 C 
ATOM     12  C   UNL     1      31.533 -23.161 -15.994  0.00  0.00    +0.058 C 
ENDBRANCH   1   7
BRANCH   3  13
ATOM     13  N   UNL     1      35.503 -26.230 -15.140  0.00  0.00    -0.344 N 
ATOM     14  H   UNL     1      35.041 -26.544 -14.329  0.00  0.00    +0.144 HD
ATOM     15  H   UNL     1      35.457 -26.758 -15.969  0.00  0.00    +0.144 HD
ENDBRANCH   3  13
BRANCH   4  17
ATOM     16  N   UNL     1      39.427 -26.522 -14.500  0.00  0.00    -0.191 NA
ATOM     17  C   UNL     1      38.573 -25.746 -14.690  0.00  0.00    +0.105 C 
ENDBRANCH   4  17
TORSDOF 3
ENDMDL
MODEL 7
REMARK VINA RESULT:      -7.1      6.483      9.170
REMARK  Name = 639097
REMARK  3 active torsions:
REMARK  status: ('A' for Active; 'I' for Inactive)
REMARK    1  A    between atoms: N_1  and  C_7
REMARK    2  A    between atoms: C_3  and  N_13
REMARK    3  A    between atoms: C_4  and  C_17
REMARK                            x       y       z     vdW  Elec       q    Type
REMARK                         _______ _______ _______ _____ _____    ______ ____
ROOT
ATOM      1  N   UNL     1      33.143 -12.338 -23.525  0.00  0.00    -0.176 N 
ATOM      2  N   UNL     1      32.141 -12.165 -22.636  0.00  0.00    -0.170 NA
ATOM      3  C   UNL     1      33.697 -11.154 -23.941  0.00  0.00    +0.129 C 
ATOM      4  C   UNL     1      33.017 -10.157 -23.284  0.00  0.00    +0.118 C 
ATOM      5  C   UNL     1      32.071 -10.839 -22.495  0.00  0.00    +0.131 C 
ENDROOT
BRANCH   1   7
ATOM      6 CL   UNL     1      34.678 -17.776 -25.202  0.00  0.00    -0.082 Cl
ATOM      7  C   UNL     1      33.504 -13.614 -23.919  0.00  0.00    +0.075 C 
ATOM      8  C   UNL     1      33.048 -14.124 -25.134  0.00  0.00    +0.018 C 
ATOM      9  C   UNL     1      34.323 -14.391 -23.100  0.00  0.00    +0.018 C 
ATOM     10  C   UNL     1      33.410 -15.411 -25.531  0.00  0.00    +0.013 C 
ATOM     11  C   UNL     1      34.685 -15.679 -23.497  0.00  0.00    +0.013 C 
ATOM     12  C   UNL     1      34.229 -16.188 -24.712  0.00  0.00    +0.058 C 
ENDBRANCH   1   7
BRANCH   3  13
ATOM     13  N   UNL     1      34.714 -11.123 -24.832  0.00  0.00    -0.344 N 
ATOM     14  H   UNL     1      35.133 -10.264 -25.070  0.00  0.00    +0.144 HD
ATOM     15  H   UNL     1      35.034 -11.958 -25.243  0.00  0.00    +0.144 HD
ENDBRANCH   3  13
BRANCH   4  17
ATOM     16  N   UNL     1      33.413  -7.605 -23.480  0.00  0.00    -0.191 NA
ATOM     17  C   UNL     1      33.233  -8.757 -23.391  0.00  0.00    +0.105 C 
ENDBRANCH   4  17
TORSDOF 3
ENDMDL
MODEL 8
REMARK VINA RESULT:      -7.0      5.578      7.311
REMARK  Name = 639097
REMARK  3 active torsions:
REMARK  status: ('A' for Active; 'I' for Inactive)
REMARK    1  A    between atoms: N_1  and  C_7
REMARK    2  A    between atoms: C_3  and  N_13
REMARK    3  A    between atoms: C_4  and  C_17
REMARK                            x       y       z     vdW  Elec       q    Type
REMARK                         _______ _______ _______ _____ _____    ______ ____
ROOT
ATOM      1  N   UNL     1      33.680 -13.875 -23.385  0.00  0.00    -0.176 N 
ATOM      2  N   UNL     1      34.439 -14.415 -22.406  0.00  0.00    -0.170 NA
ATOM      3  C   UNL     1      33.515 -14.715 -24.457  0.00  0.00    +0.129 C 
ATOM      4  C   UNL     1      34.206 -15.864 -24.157  0.00  0.00    +0.118 C 
ATOM      5  C   UNL     1      34.754 -15.622 -22.883  0.00  0.00    +0.131 C 
ENDROOT
BRANCH   1   7
ATOM      6 CL   UNL     1      31.486  -8.443 -22.741  0.00  0.00    -0.082 Cl
ATOM      7  C   UNL     1      33.165 -12.600 -23.234  0.00  0.00    +0.075 C 
ATOM      8  C   UNL     1      33.726 -11.534 -23.936  0.00  0.00    +0.018 C 
ATOM      9  C   UNL     1      32.084 -12.382 -22.379  0.00  0.00    +0.018 C 
ATOM     10  C   UNL     1      33.207 -10.248 -23.784  0.00  0.00    +0.013 C 
ATOM     11  C   UNL     1      31.565 -11.095 -22.226  0.00  0.00    +0.013 C 
ATOM     12  C   UNL     1      32.127 -10.030 -22.928  0.00  0.00    +0.058 C 
ENDBRANCH   1   7
BRANCH   3  13
ATOM     13  N   UNL     1      32.787 -14.350 -25.536  0.00  0.00    -0.344 N 
ATOM     14  H   UNL     1      32.093 -13.658 -25.450  0.00  0.00    +0.144 HD
ATOM     15  H   UNL     1      32.951 -14.779 -26.407  0.00  0.00    +0.144 HD
ENDBRANCH   3  13
BRANCH   4  17
ATOM     16  N   UNL     1      34.430 -17.982 -25.631  0.00  0.00    -0.191 NA
ATOM     17  C   UNL     1      34.330 -17.026 -24.965  0.00  0.00    +0.105 C 
ENDBRANCH   4  17
TORSDOF 3
ENDMDL
MODEL 9
REMARK VINA RESULT:      -7.0      7.594      8.950
REMARK  Name = 639097
REMARK  3 active torsions:
REMARK  status: ('A' for Active; 'I' for Inactive)
REMARK    1  A    between atoms: N_1  and  C_7
REMARK    2  A    between atoms: C_3  and  N_13
REMARK    3  A    between atoms: C_4  and  C_17
REMARK                            x       y       z     vdW  Elec       q    Type
REMARK                         _______ _______ _______ _____ _____    ______ ____
ROOT
ATOM      1  N   UNL     1      35.906 -25.006 -14.969  0.00  0.00    -0.176 N 
ATOM      2  N   UNL     1      36.061 -26.293 -15.350  0.00  0.00    -0.170 NA
ATOM      3  C   UNL     1      37.088 -24.410 -14.612  0.00  0.00    +0.129 C 
ATOM      4  C   UNL     1      38.065 -25.363 -14.770  0.00  0.00    +0.118 C 
ATOM      5  C   UNL     1      37.374 -26.501 -15.226  0.00  0.00    +0.131 C 
ENDROOT
BRANCH   1   7
ATOM      6 CL   UNL     1      30.541 -22.567 -14.977  0.00  0.00    -0.082 Cl
ATOM      7  C   UNL     1      34.647 -24.433 -14.971  0.00  0.00    +0.075 C 
ATOM      8  C   UNL     1      33.858 -24.479 -13.822  0.00  0.00    +0.018 C 
ATOM      9  C   UNL     1      34.166 -23.810 -16.123  0.00  0.00    +0.018 C 
ATOM     10  C   UNL     1      32.588 -23.903 -13.823  0.00  0.00    +0.013 C 
ATOM     11  C   UNL     1      32.895 -23.233 -16.124  0.00  0.00    +0.013 C 
ATOM     12  C   UNL     1      32.107 -23.280 -14.975  0.00  0.00    +0.058 C 
ENDBRANCH   1   7
BRANCH   3  13
ATOM     13  N   UNL     1      37.135 -23.123 -14.200  0.00  0.00    -0.344 N 
ATOM     14  H   UNL     1      36.399 -22.508 -14.421  0.00  0.00    +0.144 HD
ATOM     15  H   UNL     1      37.907 -22.801 -13.680  0.00  0.00    +0.144 HD
ENDBRANCH   3  13
BRANCH   4  17
ATOM     16  N   UNL     1      40.601 -25.093 -14.317  0.00  0.00    -0.191 NA
ATOM     17  C   UNL     1      39.456 -25.214 -14.521  0.00  0.00    +0.105 C 
ENDBRANCH   4  17
TORSDOF 3
ENDMDL
