MODEL 1
REMARK VINA RESULT:     -10.2      0.000      0.000
REMARK  Name = 68770
REMARK  9 active torsions:
REMARK  status: ('A' for Active; 'I' for Inactive)
REMARK    1  A    between atoms: C_1  and  N_9
REMARK    2  A    between atoms: C_2  and  O_19
REMARK    3  A    between atoms: N_8  and  C_13
REMARK    4  A    between atoms: O_19  and  C_20
REMARK    5  A    between atoms: C_20  and  C_21
REMARK    6  A    between atoms: C_21  and  O_22
REMARK    7  A    between atoms: C_21  and  C_24
REMARK    8  A    between atoms: C_24  and  N_25
REMARK    9  A    between atoms: N_25  and  C_28
REMARK                            x       y       z     vdW  Elec       q    Type
REMARK                         _______ _______ _______ _____ _____    ______ ____
ROOT
ATOM      1  C   UNL     1      34.198 -19.622 -20.833  0.00  0.00    +0.052 C 
ATOM      2  C   UNL     1      34.457 -21.942 -19.306  0.00  0.00    +0.139 C 
ATOM      3  C   UNL     1      35.456 -20.190 -20.634  0.00  0.00    +0.018 C 
ATOM      4  C   UNL     1      33.068 -20.213 -20.267  0.00  0.00    +0.018 C 
ATOM      5  C   UNL     1      35.586 -21.350 -19.872  0.00  0.00    +0.038 C 
ATOM      6  C   UNL     1      33.198 -21.373 -19.503  0.00  0.00    +0.038 C 
ENDROOT
BRANCH   1   9
ATOM      7  O   UNL     1      35.286 -16.864 -20.368  0.00  0.00    -0.252 OA
ATOM      8  N   UNL     1      34.243 -16.280 -22.348  0.00  0.00    -0.290 N 
ATOM      9  N   UNL     1      34.068 -18.444 -21.606  0.00  0.00    -0.268 N 
ATOM     10  C   UNL     1      34.600 -17.180 -21.337  0.00  0.00    +0.304 C 
ATOM     11  H   UNL     1      33.691 -16.607 -23.094  0.00  0.00    +0.151 HD
ATOM     12  H   UNL     1      33.538 -18.525 -22.432  0.00  0.00    +0.156 HD
BRANCH   8  13
ATOM     13  C   UNL     1      34.648 -14.892 -22.347  0.00  0.00    +0.073 C 
ATOM     14  C   UNL     1      34.156 -14.174 -23.608  0.00  0.00    +0.020 C 
ATOM     15  C   UNL     1      34.165 -14.179 -21.079  0.00  0.00    +0.020 C 
ATOM     16  C   UNL     1      32.645 -13.945 -23.600  0.00  0.00    +0.002 C 
ATOM     17  C   UNL     1      32.654 -13.950 -21.075  0.00  0.00    +0.002 C 
ATOM     18  C   UNL     1      32.192 -13.224 -22.334  0.00  0.00    +0.000 C 
ENDBRANCH   8  13
ENDBRANCH   1   9
BRANCH   2  19
ATOM     19  O   UNL     1      34.583 -23.073 -18.559  0.00  0.00    -0.473 OA
BRANCH  19  20
ATOM     20  C   UNL     1      33.497 -23.405 -17.696  0.00  0.00    +0.232 C 
BRANCH  20  21
ATOM     21  C   UNL     1      33.970 -23.308 -16.247  0.00  0.00    +0.133 C 
BRANCH  21  22
ATOM     22  O   UNL     1      34.983 -24.296 -16.031  0.00  0.00    -0.383 OA
ATOM     23  H   UNL     1      34.592 -25.069 -15.595  0.00  0.00    +0.210 HD
ENDBRANCH  21  22
BRANCH  21  24
ATOM     24  C   UNL     1      32.852 -23.538 -15.228  0.00  0.00    -0.048 C 
BRANCH  24  25
ATOM     25  N   UNL     1      31.579 -23.839 -15.869  0.00  0.00    +0.388 N 
ATOM     26  H   UNL     1      31.384 -23.126 -16.572  0.00  0.00    -0.084 HD
ATOM     27  H   UNL     1      31.643 -24.760 -16.302  0.00  0.00    -0.084 HD
BRANCH  25  28
ATOM     28  C   UNL     1      30.497 -23.857 -14.895  0.00  0.00    -0.046 C 
ATOM     29  C   UNL     1      31.081 -23.556 -13.510  0.00  0.00    -0.022 C 
ATOM     30  C   UNL     1      29.456 -22.795 -15.270  0.00  0.00    -0.022 C 
ATOM     31  C   UNL     1      29.856 -25.248 -14.904  0.00  0.00    -0.022 C 
ENDBRANCH  25  28
ENDBRANCH  24  25
ENDBRANCH  21  24
ENDBRANCH  20  21
ENDBRANCH  19  20
ENDBRANCH   2  19
TORSDOF 9
ENDMDL
MODEL 2
REMARK VINA RESULT:     -10.0      2.214      3.194
REMARK  Name = 68770
REMARK  9 active torsions:
REMARK  status: ('A' for Active; 'I' for Inactive)
REMARK    1  A    between atoms: C_1  and  N_9
REMARK    2  A    between atoms: C_2  and  O_19
REMARK    3  A    between atoms: N_8  and  C_13
REMARK    4  A    between atoms: O_19  and  C_20
REMARK    5  A    between atoms: C_20  and  C_21
REMARK    6  A    between atoms: C_21  and  O_22
REMARK    7  A    between atoms: C_21  and  C_24
REMARK    8  A    between atoms: C_24  and  N_25
REMARK    9  A    between atoms: N_25  and  C_28
REMARK                            x       y       z     vdW  Elec       q    Type
REMARK                         _______ _______ _______ _____ _____    ______ ____
ROOT
ATOM      1  C   UNL     1      34.214 -19.795 -20.720  0.00  0.00    +0.052 C 
ATOM      2  C   UNL     1      34.466 -22.063 -19.115  0.00  0.00    +0.139 C 
ATOM      3  C   UNL     1      35.473 -20.346 -20.483  0.00  0.00    +0.018 C 
ATOM      4  C   UNL     1      33.080 -20.377 -20.153  0.00  0.00    +0.018 C 
ATOM      5  C   UNL     1      35.600 -21.480 -19.681  0.00  0.00    +0.038 C 
ATOM      6  C   UNL     1      33.206 -21.512 -19.351  0.00  0.00    +0.038 C 
ENDROOT
BRANCH   1   9
ATOM      7  O   UNL     1      35.350 -17.039 -20.373  0.00  0.00    -0.252 OA
ATOM      8  N   UNL     1      34.281 -16.510 -22.354  0.00  0.00    -0.290 N 
ATOM      9  N   UNL     1      34.088 -18.644 -21.532  0.00  0.00    -0.268 N 
ATOM     10  C   UNL     1      34.643 -17.379 -21.318  0.00  0.00    +0.304 C 
ATOM     11  H   UNL     1      33.712 -16.856 -23.079  0.00  0.00    +0.151 HD
ATOM     12  H   UNL     1      33.543 -18.746 -22.345  0.00  0.00    +0.156 HD
BRANCH   8  13
ATOM     13  C   UNL     1      34.706 -15.130 -22.410  0.00  0.00    +0.073 C 
ATOM     14  C   UNL     1      34.175 -14.440 -23.671  0.00  0.00    +0.020 C 
ATOM     15  C   UNL     1      34.286 -14.373 -21.145  0.00  0.00    +0.020 C 
ATOM     16  C   UNL     1      32.669 -14.187 -23.610  0.00  0.00    +0.002 C 
ATOM     17  C   UNL     1      32.779 -14.120 -21.088  0.00  0.00    +0.002 C 
ATOM     18  C   UNL     1      32.277 -13.423 -22.349  0.00  0.00    +0.000 C 
ENDBRANCH   8  13
ENDBRANCH   1   9
BRANCH   2  19
ATOM     19  O   UNL     1      34.588 -23.168 -18.330  0.00  0.00    -0.473 OA
BRANCH  19  20
ATOM     20  C   UNL     1      33.983 -23.118 -17.039  0.00  0.00    +0.232 C 
BRANCH  20  21
ATOM     21  C   UNL     1      35.080 -23.183 -15.978  0.00  0.00    +0.133 C 
BRANCH  21  22
ATOM     22  O   UNL     1      36.333 -22.882 -16.599  0.00  0.00    -0.383 OA
ATOM     23  H   UNL     1      36.358 -21.943 -16.837  0.00  0.00    +0.210 HD
ENDBRANCH  21  22
BRANCH  21  24
ATOM     24  C   UNL     1      35.194 -24.554 -15.308  0.00  0.00    -0.048 C 
BRANCH  24  25
ATOM     25  N   UNL     1      36.009 -24.507 -14.101  0.00  0.00    +0.388 N 
ATOM     26  H   UNL     1      36.430 -23.583 -14.018  0.00  0.00    -0.084 HD
ATOM     27  H   UNL     1      35.410 -24.700 -13.298  0.00  0.00    -0.084 HD
BRANCH  25  28
ATOM     28  C   UNL     1      37.063 -25.511 -14.145  0.00  0.00    -0.046 C 
ATOM     29  C   UNL     1      38.368 -24.830 -14.572  0.00  0.00    -0.022 C 
ATOM     30  C   UNL     1      37.227 -26.139 -12.756  0.00  0.00    -0.022 C 
ATOM     31  C   UNL     1      36.673 -26.585 -15.166  0.00  0.00    -0.022 C 
ENDBRANCH  25  28
ENDBRANCH  24  25
ENDBRANCH  21  24
ENDBRANCH  20  21
ENDBRANCH  19  20
ENDBRANCH   2  19
TORSDOF 9
ENDMDL
MODEL 3
REMARK VINA RESULT:      -9.7      2.184      3.241
REMARK  Name = 68770
REMARK  9 active torsions:
REMARK  status: ('A' for Active; 'I' for Inactive)
REMARK    1  A    between atoms: C_1  and  N_9
REMARK    2  A    between atoms: C_2  and  O_19
REMARK    3  A    between atoms: N_8  and  C_13
REMARK    4  A    between atoms: O_19  and  C_20
REMARK    5  A    between atoms: C_20  and  C_21
REMARK    6  A    between atoms: C_21  and  O_22
REMARK    7  A    between atoms: C_21  and  C_24
REMARK    8  A    between atoms: C_24  and  N_25
REMARK    9  A    between atoms: N_25  and  C_28
REMARK                            x       y       z     vdW  Elec       q    Type
REMARK                         _______ _______ _______ _____ _____    ______ ____
ROOT
ATOM      1  C   UNL     1      34.213 -20.248 -20.537  0.00  0.00    +0.052 C 
ATOM      2  C   UNL     1      34.273 -22.285 -18.632  0.00  0.00    +0.139 C 
ATOM      3  C   UNL     1      33.023 -20.728 -19.992  0.00  0.00    +0.018 C 
ATOM      4  C   UNL     1      35.435 -20.786 -20.131  0.00  0.00    +0.018 C 
ATOM      5  C   UNL     1      33.052 -21.746 -19.040  0.00  0.00    +0.038 C 
ATOM      6  C   UNL     1      35.464 -21.805 -19.178  0.00  0.00    +0.038 C 
ENDROOT
BRANCH   1   9
ATOM      7  O   UNL     1      35.514 -17.543 -20.534  0.00  0.00    -0.252 OA
ATOM      8  N   UNL     1      34.533 -17.234 -22.606  0.00  0.00    -0.290 N 
ATOM      9  N   UNL     1      34.182 -19.216 -21.505  0.00  0.00    -0.268 N 
ATOM     10  C   UNL     1      34.811 -17.969 -21.448  0.00  0.00    +0.304 C 
ATOM     11  H   UNL     1      33.962 -17.643 -23.295  0.00  0.00    +0.151 HD
ATOM     12  H   UNL     1      33.654 -19.398 -22.315  0.00  0.00    +0.156 HD
BRANCH   8  13
ATOM     13  C   UNL     1      35.047 -15.902 -22.837  0.00  0.00    +0.073 C 
ATOM     14  C   UNL     1      34.919 -15.511 -24.313  0.00  0.00    +0.020 C 
ATOM     15  C   UNL     1      34.354 -14.880 -21.929  0.00  0.00    +0.020 C 
ATOM     16  C   UNL     1      33.471 -15.244 -24.724  0.00  0.00    +0.002 C 
ATOM     17  C   UNL     1      32.907 -14.614 -22.345  0.00  0.00    +0.002 C 
ATOM     18  C   UNL     1      32.808 -14.216 -23.813  0.00  0.00    +0.000 C 
ENDBRANCH   8  13
ENDBRANCH   1   9
BRANCH   2  19
ATOM     19  O   UNL     1      34.303 -23.280 -17.705  0.00  0.00    -0.473 OA
BRANCH  19  20
ATOM     20  C   UNL     1      33.171 -23.400 -16.844  0.00  0.00    +0.232 C 
BRANCH  20  21
ATOM     21  C   UNL     1      33.647 -23.832 -15.459  0.00  0.00    +0.133 C 
BRANCH  21  22
ATOM     22  O   UNL     1      33.541 -22.714 -14.572  0.00  0.00    -0.383 OA
ATOM     23  H   UNL     1      34.043 -22.895 -13.763  0.00  0.00    +0.210 HD
ENDBRANCH  21  22
BRANCH  21  24
ATOM     24  C   UNL     1      35.097 -24.320 -15.442  0.00  0.00    -0.048 C 
BRANCH  24  25
ATOM     25  N   UNL     1      35.303 -25.393 -14.478  0.00  0.00    +0.388 N 
ATOM     26  H   UNL     1      34.441 -25.539 -13.953  0.00  0.00    -0.084 HD
ATOM     27  H   UNL     1      35.561 -26.239 -14.984  0.00  0.00    -0.084 HD
BRANCH  25  28
ATOM     28  C   UNL     1      36.376 -25.061 -13.550  0.00  0.00    -0.046 C 
ATOM     29  C   UNL     1      35.754 -24.639 -12.215  0.00  0.00    -0.022 C 
ATOM     30  C   UNL     1      37.273 -26.288 -13.350  0.00  0.00    -0.022 C 
ATOM     31  C   UNL     1      37.190 -23.905 -14.140  0.00  0.00    -0.022 C 
ENDBRANCH  25  28
ENDBRANCH  24  25
ENDBRANCH  21  24
ENDBRANCH  20  21
ENDBRANCH  19  20
ENDBRANCH   2  19
TORSDOF 9
ENDMDL
MODEL 4
REMARK VINA RESULT:      -9.7      1.541      2.235
REMARK  Name = 68770
REMARK  9 active torsions:
REMARK  status: ('A' for Active; 'I' for Inactive)
REMARK    1  A    between atoms: C_1  and  N_9
REMARK    2  A    between atoms: C_2  and  O_19
REMARK    3  A    between atoms: N_8  and  C_13
REMARK    4  A    between atoms: O_19  and  C_20
REMARK    5  A    between atoms: C_20  and  C_21
REMARK    6  A    between atoms: C_21  and  O_22
REMARK    7  A    between atoms: C_21  and  C_24
REMARK    8  A    between atoms: C_24  and  N_25
REMARK    9  A    between atoms: N_25  and  C_28
REMARK                            x       y       z     vdW  Elec       q    Type
REMARK                         _______ _______ _______ _____ _____    ______ ____
ROOT
ATOM      1  C   UNL     1      34.315 -20.541 -20.274  0.00  0.00    +0.052 C 
ATOM      2  C   UNL     1      34.562 -22.427 -18.233  0.00  0.00    +0.139 C 
ATOM      3  C   UNL     1      33.176 -21.129 -19.725  0.00  0.00    +0.018 C 
ATOM      4  C   UNL     1      35.579 -20.897 -19.803  0.00  0.00    +0.018 C 
ATOM      5  C   UNL     1      33.298 -22.071 -18.705  0.00  0.00    +0.038 C 
ATOM      6  C   UNL     1      35.702 -21.840 -18.782  0.00  0.00    +0.038 C 
ENDROOT
BRANCH   1   9
ATOM      7  O   UNL     1      36.048 -18.192 -20.971  0.00  0.00    -0.252 OA
ATOM      8  N   UNL     1      34.562 -17.798 -22.699  0.00  0.00    -0.290 N 
ATOM      9  N   UNL     1      34.190 -19.587 -21.311  0.00  0.00    -0.268 N 
ATOM     10  C   UNL     1      35.033 -18.507 -21.587  0.00  0.00    +0.304 C 
ATOM     11  H   UNL     1      33.742 -18.112 -23.142  0.00  0.00    +0.151 HD
ATOM     12  H   UNL     1      33.416 -19.696 -21.908  0.00  0.00    +0.156 HD
BRANCH   8  13
ATOM     13  C   UNL     1      35.227 -16.628 -23.226  0.00  0.00    +0.073 C 
ATOM     14  C   UNL     1      35.109 -16.569 -24.753  0.00  0.00    +0.020 C 
ATOM     15  C   UNL     1      34.686 -15.348 -22.578  0.00  0.00    +0.020 C 
ATOM     16  C   UNL     1      33.694 -16.226 -25.218  0.00  0.00    +0.002 C 
ATOM     17  C   UNL     1      33.271 -15.008 -23.047  0.00  0.00    +0.002 C 
ATOM     18  C   UNL     1      33.183 -14.944 -24.568  0.00  0.00    +0.000 C 
ENDBRANCH   8  13
ENDBRANCH   1   9
BRANCH   2  19
ATOM     19  O   UNL     1      34.682 -23.348 -17.238  0.00  0.00    -0.473 OA
BRANCH  19  20
ATOM     20  C   UNL     1      35.424 -22.963 -16.082  0.00  0.00    +0.232 C 
BRANCH  20  21
ATOM     21  C   UNL     1      35.443 -24.129 -15.097  0.00  0.00    +0.133 C 
BRANCH  21  22
ATOM     22  O   UNL     1      35.737 -25.330 -15.817  0.00  0.00    -0.383 OA
ATOM     23  H   UNL     1      35.758 -26.078 -15.202  0.00  0.00    +0.210 HD
ENDBRANCH  21  22
BRANCH  21  24
ATOM     24  C   UNL     1      34.114 -24.324 -14.364  0.00  0.00    -0.048 C 
BRANCH  24  25
ATOM     25  N   UNL     1      33.204 -23.205 -14.572  0.00  0.00    +0.388 N 
ATOM     26  H   UNL     1      33.324 -22.532 -13.816  0.00  0.00    -0.084 HD
ATOM     27  H   UNL     1      33.419 -22.775 -15.472  0.00  0.00    -0.084 HD
BRANCH  25  28
ATOM     28  C   UNL     1      31.820 -23.658 -14.593  0.00  0.00    -0.046 C 
ATOM     29  C   UNL     1      31.350 -23.726 -16.050  0.00  0.00    -0.022 C 
ATOM     30  C   UNL     1      31.728 -25.044 -13.944  0.00  0.00    -0.022 C 
ATOM     31  C   UNL     1      30.967 -22.653 -13.811  0.00  0.00    -0.022 C 
ENDBRANCH  25  28
ENDBRANCH  24  25
ENDBRANCH  21  24
ENDBRANCH  20  21
ENDBRANCH  19  20
ENDBRANCH   2  19
TORSDOF 9
ENDMDL
MODEL 5
REMARK VINA RESULT:      -9.4      3.141      9.839
REMARK  Name = 68770
REMARK  9 active torsions:
REMARK  status: ('A' for Active; 'I' for Inactive)
REMARK    1  A    between atoms: C_1  and  N_9
REMARK    2  A    between atoms: C_2  and  O_19
REMARK    3  A    between atoms: N_8  and  C_13
REMARK    4  A    between atoms: O_19  and  C_20
REMARK    5  A    between atoms: C_20  and  C_21
REMARK    6  A    between atoms: C_21  and  O_22
REMARK    7  A    between atoms: C_21  and  C_24
REMARK    8  A    between atoms: C_24  and  N_25
REMARK    9  A    between atoms: N_25  and  C_28
REMARK                            x       y       z     vdW  Elec       q    Type
REMARK                         _______ _______ _______ _____ _____    ______ ____
ROOT
ATOM      1  C   UNL     1      35.196 -21.436 -19.129  0.00  0.00    +0.052 C 
ATOM      2  C   UNL     1      34.595 -19.768 -21.281  0.00  0.00    +0.139 C 
ATOM      3  C   UNL     1      33.867 -21.200 -19.478  0.00  0.00    +0.018 C 
ATOM      4  C   UNL     1      36.226 -20.838 -19.855  0.00  0.00    +0.018 C 
ATOM      5  C   UNL     1      33.566 -20.366 -20.554  0.00  0.00    +0.038 C 
ATOM      6  C   UNL     1      35.924 -20.003 -20.931  0.00  0.00    +0.038 C 
ENDROOT
BRANCH   1   9
ATOM      7  O   UNL     1      37.179 -21.094 -16.902  0.00  0.00    -0.252 OA
ATOM      8  N   UNL     1      36.438 -23.143 -16.127  0.00  0.00    -0.290 N 
ATOM      9  N   UNL     1      35.500 -22.281 -18.035  0.00  0.00    -0.268 N 
ATOM     10  C   UNL     1      36.440 -22.068 -17.024  0.00  0.00    +0.304 C 
ATOM     11  H   UNL     1      35.816 -23.888 -16.289  0.00  0.00    +0.151 HD
ATOM     12  H   UNL     1      34.988 -23.120 -17.981  0.00  0.00    +0.156 HD
BRANCH   8  13
ATOM     13  C   UNL     1      37.306 -23.208 -14.972  0.00  0.00    +0.073 C 
ATOM     14  C   UNL     1      36.493 -23.300 -13.677  0.00  0.00    +0.020 C 
ATOM     15  C   UNL     1      38.294 -24.374 -15.091  0.00  0.00    +0.020 C 
ATOM     16  C   UNL     1      35.820 -24.661 -13.503  0.00  0.00    +0.002 C 
ATOM     17  C   UNL     1      37.618 -25.734 -14.915  0.00  0.00    +0.002 C 
ATOM     18  C   UNL     1      36.825 -25.804 -13.614  0.00  0.00    +0.000 C 
ENDBRANCH   8  13
ENDBRANCH   1   9
BRANCH   2  19
ATOM     19  O   UNL     1      34.302 -18.951 -22.330  0.00  0.00    -0.473 OA
BRANCH  19  20
ATOM     20  C   UNL     1      35.268 -17.958 -22.671  0.00  0.00    +0.232 C 
BRANCH  20  21
ATOM     21  C   UNL     1      34.624 -16.944 -23.613  0.00  0.00    +0.133 C 
BRANCH  21  22
ATOM     22  O   UNL     1      35.348 -16.945 -24.847  0.00  0.00    -0.383 OA
ATOM     23  H   UNL     1      35.774 -17.807 -24.971  0.00  0.00    +0.210 HD
ENDBRANCH  21  22
BRANCH  21  24
ATOM     24  C   UNL     1      34.623 -15.518 -23.059  0.00  0.00    -0.048 C 
BRANCH  24  25
ATOM     25  N   UNL     1      33.277 -15.049 -22.756  0.00  0.00    +0.388 N 
ATOM     26  H   UNL     1      33.113 -14.169 -23.245  0.00  0.00    -0.084 HD
ATOM     27  H   UNL     1      32.610 -15.757 -23.060  0.00  0.00    -0.084 HD
BRANCH  25  28
ATOM     28  C   UNL     1      33.110 -14.837 -21.325  0.00  0.00    -0.046 C 
ATOM     29  C   UNL     1      32.403 -13.495 -21.109  0.00  0.00    -0.022 C 
ATOM     30  C   UNL     1      32.269 -15.977 -20.737  0.00  0.00    -0.022 C 
ATOM     31  C   UNL     1      34.495 -14.814 -20.670  0.00  0.00    -0.022 C 
ENDBRANCH  25  28
ENDBRANCH  24  25
ENDBRANCH  21  24
ENDBRANCH  20  21
ENDBRANCH  19  20
ENDBRANCH   2  19
TORSDOF 9
ENDMDL
MODEL 6
REMARK VINA RESULT:      -9.4      5.805      9.168
REMARK  Name = 68770
REMARK  9 active torsions:
REMARK  status: ('A' for Active; 'I' for Inactive)
REMARK    1  A    between atoms: C_1  and  N_9
REMARK    2  A    between atoms: C_2  and  O_19
REMARK    3  A    between atoms: N_8  and  C_13
REMARK    4  A    between atoms: O_19  and  C_20
REMARK    5  A    between atoms: C_20  and  C_21
REMARK    6  A    between atoms: C_21  and  O_22
REMARK    7  A    between atoms: C_21  and  C_24
REMARK    8  A    between atoms: C_24  and  N_25
REMARK    9  A    between atoms: N_25  and  C_28
REMARK                            x       y       z     vdW  Elec       q    Type
REMARK                         _______ _______ _______ _____ _____    ______ ____
ROOT
ATOM      1  C   UNL     1      32.671 -11.844 -23.102  0.00  0.00    +0.052 C 
ATOM      2  C   UNL     1      33.397 -14.507 -23.505  0.00  0.00    +0.139 C 
ATOM      3  C   UNL     1      32.280 -12.821 -22.187  0.00  0.00    +0.018 C 
ATOM      4  C   UNL     1      33.425 -12.199 -24.221  0.00  0.00    +0.018 C 
ATOM      5  C   UNL     1      32.643 -14.152 -22.387  0.00  0.00    +0.038 C 
ATOM      6  C   UNL     1      33.788 -13.531 -24.422  0.00  0.00    +0.038 C 
ENDROOT
BRANCH   1   9
ATOM      7  O   UNL     1      34.304  -9.333 -23.290  0.00  0.00    -0.252 OA
ATOM      8  N   UNL     1      32.366  -8.207 -22.721  0.00  0.00    -0.290 N 
ATOM      9  N   UNL     1      32.301 -10.494 -22.899  0.00  0.00    -0.268 N 
ATOM     10  C   UNL     1      33.111  -9.359 -23.000  0.00  0.00    +0.304 C 
ATOM     11  H   UNL     1      31.413  -8.308 -22.497  0.00  0.00    +0.151 HD
ATOM     12  H   UNL     1      31.361 -10.335 -22.655  0.00  0.00    +0.156 HD
BRANCH   8  13
ATOM     13  C   UNL     1      32.932  -6.877 -22.747  0.00  0.00    +0.073 C 
ATOM     14  C   UNL     1      33.014  -6.342 -24.181  0.00  0.00    +0.020 C 
ATOM     15  C   UNL     1      32.142  -5.924 -21.843  0.00  0.00    +0.020 C 
ATOM     16  C   UNL     1      31.640  -5.990 -24.754  0.00  0.00    +0.002 C 
ATOM     17  C   UNL     1      30.770  -5.574 -22.420  0.00  0.00    +0.002 C 
ATOM     18  C   UNL     1      30.879  -5.033 -23.842  0.00  0.00    +0.000 C 
ENDBRANCH   8  13
ENDBRANCH   1   9
BRANCH   2  19
ATOM     19  O   UNL     1      33.750 -15.807 -23.703  0.00  0.00    -0.473 OA
BRANCH  19  20
ATOM     20  C   UNL     1      34.890 -16.053 -24.525  0.00  0.00    +0.232 C 
BRANCH  20  21
ATOM     21  C   UNL     1      34.808 -17.476 -25.071  0.00  0.00    +0.133 C 
BRANCH  21  22
ATOM     22  O   UNL     1      33.558 -17.632 -25.749  0.00  0.00    -0.383 OA
ATOM     23  H   UNL     1      33.155 -16.762 -25.889  0.00  0.00    +0.210 HD
ENDBRANCH  21  22
BRANCH  21  24
ATOM     24  C   UNL     1      34.898 -18.549 -23.983  0.00  0.00    -0.048 C 
BRANCH  24  25
ATOM     25  N   UNL     1      35.922 -18.240 -22.993  0.00  0.00    +0.388 N 
ATOM     26  H   UNL     1      36.749 -18.806 -23.181  0.00  0.00    -0.084 HD
ATOM     27  H   UNL     1      36.147 -17.247 -23.058  0.00  0.00    -0.084 HD
BRANCH  25  28
ATOM     28  C   UNL     1      35.446 -18.522 -21.646  0.00  0.00    -0.046 C 
ATOM     29  C   UNL     1      34.213 -19.427 -21.743  0.00  0.00    -0.022 C 
ATOM     30  C   UNL     1      36.554 -19.224 -20.851  0.00  0.00    -0.022 C 
ATOM     31  C   UNL     1      35.074 -17.197 -20.972  0.00  0.00    -0.022 C 
ENDBRANCH  25  28
ENDBRANCH  24  25
ENDBRANCH  21  24
ENDBRANCH  20  21
ENDBRANCH  19  20
ENDBRANCH   2  19
TORSDOF 9
ENDMDL
MODEL 7
REMARK VINA RESULT:      -9.4      3.656     11.300
REMARK  Name = 68770
REMARK  9 active torsions:
REMARK  status: ('A' for Active; 'I' for Inactive)
REMARK    1  A    between atoms: C_1  and  N_9
REMARK    2  A    between atoms: C_2  and  O_19
REMARK    3  A    between atoms: N_8  and  C_13
REMARK    4  A    between atoms: O_19  and  C_20
REMARK    5  A    between atoms: C_20  and  C_21
REMARK    6  A    between atoms: C_21  and  O_22
REMARK    7  A    between atoms: C_21  and  C_24
REMARK    8  A    between atoms: C_24  and  N_25
REMARK    9  A    between atoms: N_25  and  C_28
REMARK                            x       y       z     vdW  Elec       q    Type
REMARK                         _______ _______ _______ _____ _____    ______ ____
ROOT
ATOM      1  C   UNL     1      34.345 -16.289 -21.455  0.00  0.00    +0.052 C 
ATOM      2  C   UNL     1      33.395 -14.016 -22.763  0.00  0.00    +0.139 C 
ATOM      3  C   UNL     1      34.913 -15.891 -22.665  0.00  0.00    +0.018 C 
ATOM      4  C   UNL     1      33.300 -15.551 -20.899  0.00  0.00    +0.018 C 
ATOM      5  C   UNL     1      34.439 -14.754 -23.319  0.00  0.00    +0.038 C 
ATOM      6  C   UNL     1      32.825 -14.414 -21.553  0.00  0.00    +0.038 C 
ENDROOT
BRANCH   1   9
ATOM      7  O   UNL     1      34.426 -19.151 -22.355  0.00  0.00    -0.252 OA
ATOM      8  N   UNL     1      35.398 -19.612 -20.308  0.00  0.00    -0.290 N 
ATOM      9  N   UNL     1      34.826 -17.444 -20.794  0.00  0.00    -0.268 N 
ATOM     10  C   UNL     1      34.838 -18.759 -21.266  0.00  0.00    +0.304 C 
ATOM     11  H   UNL     1      35.706 -19.224 -19.458  0.00  0.00    +0.151 HD
ATOM     12  H   UNL     1      35.197 -17.303 -19.893  0.00  0.00    +0.156 HD
BRANCH   8  13
ATOM     13  C   UNL     1      35.546 -21.036 -20.510  0.00  0.00    +0.073 C 
ATOM     14  C   UNL     1      36.721 -21.588 -19.697  0.00  0.00    +0.020 C 
ATOM     15  C   UNL     1      34.245 -21.777 -20.180  0.00  0.00    +0.020 C 
ATOM     16  C   UNL     1      36.429 -21.625 -18.196  0.00  0.00    +0.002 C 
ATOM     17  C   UNL     1      33.958 -21.813 -18.679  0.00  0.00    +0.002 C 
ATOM     18  C   UNL     1      35.137 -22.377 -17.893  0.00  0.00    +0.000 C 
ENDBRANCH   8  13
ENDBRANCH   1   9
BRANCH   2  19
ATOM     19  O   UNL     1      32.929 -12.908 -23.401  0.00  0.00    -0.473 OA
BRANCH  19  20
ATOM     20  C   UNL     1      33.752 -12.355 -24.427  0.00  0.00    +0.232 C 
BRANCH  20  21
ATOM     21  C   UNL     1      33.738 -10.833 -24.306  0.00  0.00    +0.133 C 
BRANCH  21  22
ATOM     22  O   UNL     1      35.068 -10.387 -24.024  0.00  0.00    -0.383 OA
ATOM     23  H   UNL     1      35.210 -10.379 -23.065  0.00  0.00    +0.210 HD
ENDBRANCH  21  22
BRANCH  21  24
ATOM     24  C   UNL     1      32.817 -10.323 -23.196  0.00  0.00    -0.048 C 
BRANCH  24  25
ATOM     25  N   UNL     1      32.135  -9.091 -23.573  0.00  0.00    +0.388 N 
ATOM     26  H   UNL     1      32.492  -8.775 -24.474  0.00  0.00    -0.084 HD
ATOM     27  H   UNL     1      31.134  -9.279 -23.631  0.00  0.00    -0.084 HD
BRANCH  25  28
ATOM     28  C   UNL     1      32.355  -8.049 -22.580  0.00  0.00    -0.046 C 
ATOM     29  C   UNL     1      33.716  -7.398 -22.848  0.00  0.00    -0.022 C 
ATOM     30  C   UNL     1      31.240  -7.002 -22.685  0.00  0.00    -0.022 C 
ATOM     31  C   UNL     1      32.344  -8.691 -21.188  0.00  0.00    -0.022 C 
ENDBRANCH  25  28
ENDBRANCH  24  25
ENDBRANCH  21  24
ENDBRANCH  20  21
ENDBRANCH  19  20
ENDBRANCH   2  19
TORSDOF 9
ENDMDL
MODEL 8
REMARK VINA RESULT:      -9.2      1.695      9.341
REMARK  Name = 68770
REMARK  9 active torsions:
REMARK  status: ('A' for Active; 'I' for Inactive)
REMARK    1  A    between atoms: C_1  and  N_9
REMARK    2  A    between atoms: C_2  and  O_19
REMARK    3  A    between atoms: N_8  and  C_13
REMARK    4  A    between atoms: O_19  and  C_20
REMARK    5  A    between atoms: C_20  and  C_21
REMARK    6  A    between atoms: C_21  and  O_22
REMARK    7  A    between atoms: C_21  and  C_24
REMARK    8  A    between atoms: C_24  and  N_25
REMARK    9  A    between atoms: N_25  and  C_28
REMARK                            x       y       z     vdW  Elec       q    Type
REMARK                         _______ _______ _______ _____ _____    ______ ____
ROOT
ATOM      1  C   UNL     1      33.344 -20.892 -19.714  0.00  0.00    +0.052 C 
ATOM      2  C   UNL     1      34.851 -19.632 -21.694  0.00  0.00    +0.139 C 
ATOM      3  C   UNL     1      34.725 -21.075 -19.762  0.00  0.00    +0.018 C 
ATOM      4  C   UNL     1      32.714 -20.079 -20.657  0.00  0.00    +0.018 C 
ATOM      5  C   UNL     1      35.479 -20.446 -20.751  0.00  0.00    +0.038 C 
ATOM      6  C   UNL     1      33.469 -19.449 -21.647  0.00  0.00    +0.038 C 
ENDROOT
BRANCH   1   9
ATOM      7  O   UNL     1      33.948 -23.332 -18.074  0.00  0.00    -0.252 OA
ATOM      8  N   UNL     1      31.888 -22.991 -17.079  0.00  0.00    -0.290 N 
ATOM      9  N   UNL     1      32.579 -21.533 -18.710  0.00  0.00    -0.268 N 
ATOM     10  C   UNL     1      32.914 -22.674 -17.977  0.00  0.00    +0.304 C 
ATOM     11  H   UNL     1      31.090 -22.416 -17.058  0.00  0.00    +0.151 HD
ATOM     12  H   UNL     1      31.707 -21.127 -18.505  0.00  0.00    +0.156 HD
BRANCH   8  13
ATOM     13  C   UNL     1      31.947 -24.123 -16.181  0.00  0.00    +0.073 C 
ATOM     14  C   UNL     1      32.736 -23.779 -14.913  0.00  0.00    +0.020 C 
ATOM     15  C   UNL     1      30.541 -24.629 -15.840  0.00  0.00    +0.020 C 
ATOM     16  C   UNL     1      31.976 -22.827 -13.990  0.00  0.00    +0.002 C 
ATOM     17  C   UNL     1      29.784 -23.675 -14.916  0.00  0.00    +0.002 C 
ATOM     18  C   UNL     1      30.585 -23.358 -13.657  0.00  0.00    +0.000 C 
ENDBRANCH   8  13
ENDBRANCH   1   9
BRANCH   2  19
ATOM     19  O   UNL     1      35.586 -19.018 -22.661  0.00  0.00    -0.473 OA
BRANCH  19  20
ATOM     20  C   UNL     1      35.803 -17.615 -22.521  0.00  0.00    +0.232 C 
BRANCH  20  21
ATOM     21  C   UNL     1      34.845 -16.872 -23.450  0.00  0.00    +0.133 C 
BRANCH  21  22
ATOM     22  O   UNL     1      35.382 -16.903 -24.777  0.00  0.00    -0.383 OA
ATOM     23  H   UNL     1      34.736 -16.529 -25.395  0.00  0.00    +0.210 HD
ENDBRANCH  21  22
BRANCH  21  24
ATOM     24  C   UNL     1      34.630 -15.410 -23.055  0.00  0.00    -0.048 C 
BRANCH  24  25
ATOM     25  N   UNL     1      33.235 -15.125 -22.746  0.00  0.00    +0.388 N 
ATOM     26  H   UNL     1      32.923 -14.336 -23.311  0.00  0.00    -0.084 HD
ATOM     27  H   UNL     1      32.680 -15.956 -22.954  0.00  0.00    -0.084 HD
BRANCH  25  28
ATOM     28  C   UNL     1      33.071 -14.798 -21.337  0.00  0.00    -0.046 C 
ATOM     29  C   UNL     1      34.457 -14.721 -20.688  0.00  0.00    -0.022 C 
ATOM     30  C   UNL     1      32.353 -13.449 -21.208  0.00  0.00    -0.022 C 
ATOM     31  C   UNL     1      32.240 -15.901 -20.673  0.00  0.00    -0.022 C 
ENDBRANCH  25  28
ENDBRANCH  24  25
ENDBRANCH  21  24
ENDBRANCH  20  21
ENDBRANCH  19  20
ENDBRANCH   2  19
TORSDOF 9
ENDMDL
MODEL 9
REMARK VINA RESULT:      -9.2      5.749     12.614
REMARK  Name = 68770
REMARK  9 active torsions:
REMARK  status: ('A' for Active; 'I' for Inactive)
REMARK    1  A    between atoms: C_1  and  N_9
REMARK    2  A    between atoms: C_2  and  O_19
REMARK    3  A    between atoms: N_8  and  C_13
REMARK    4  A    between atoms: O_19  and  C_20
REMARK    5  A    between atoms: C_20  and  C_21
REMARK    6  A    between atoms: C_21  and  O_22
REMARK    7  A    between atoms: C_21  and  C_24
REMARK    8  A    between atoms: C_24  and  N_25
REMARK    9  A    between atoms: N_25  and  C_28
REMARK                            x       y       z     vdW  Elec       q    Type
REMARK                         _______ _______ _______ _____ _____    ______ ____
ROOT
ATOM      1  C   UNL     1      32.774 -13.047 -22.640  0.00  0.00    +0.052 C 
ATOM      2  C   UNL     1      31.898 -10.454 -22.102  0.00  0.00    +0.139 C 
ATOM      3  C   UNL     1      33.152 -11.995 -23.474  0.00  0.00    +0.018 C 
ATOM      4  C   UNL     1      31.956 -12.803 -21.537  0.00  0.00    +0.018 C 
ATOM      5  C   UNL     1      32.715 -10.699 -23.205  0.00  0.00    +0.038 C 
ATOM      6  C   UNL     1      31.519 -11.505 -21.268  0.00  0.00    +0.038 C 
ENDROOT
BRANCH   1   9
ATOM      7  O   UNL     1      35.184 -14.533 -21.645  0.00  0.00    -0.252 OA
ATOM      8  N   UNL     1      34.440 -16.304 -22.933  0.00  0.00    -0.290 N 
ATOM      9  N   UNL     1      33.216 -14.362 -22.915  0.00  0.00    -0.268 N 
ATOM     10  C   UNL     1      34.355 -15.004 -22.420  0.00  0.00    +0.304 C 
ATOM     11  H   UNL     1      33.736 -16.611 -23.548  0.00  0.00    +0.151 HD
ATOM     12  H   UNL     1      32.656 -14.888 -23.530  0.00  0.00    +0.156 HD
BRANCH   8  13
ATOM     13  C   UNL     1      35.512 -17.214 -22.600  0.00  0.00    +0.073 C 
ATOM     14  C   UNL     1      35.363 -17.739 -21.168  0.00  0.00    +0.020 C 
ATOM     15  C   UNL     1      35.589 -18.367 -23.608  0.00  0.00    +0.020 C 
ATOM     16  C   UNL     1      34.205 -18.727 -21.023  0.00  0.00    +0.002 C 
ATOM     17  C   UNL     1      34.431 -19.353 -23.459  0.00  0.00    +0.002 C 
ATOM     18  C   UNL     1      34.311 -19.869 -22.029  0.00  0.00    +0.000 C 
ENDBRANCH   8  13
ENDBRANCH   1   9
BRANCH   2  19
ATOM     19  O   UNL     1      31.469  -9.189 -21.840  0.00  0.00    -0.473 OA
BRANCH  19  20
ATOM     20  C   UNL     1      31.766  -8.656 -20.550  0.00  0.00    +0.232 C 
BRANCH  20  21
ATOM     21  C   UNL     1      32.857  -7.598 -20.692  0.00  0.00    +0.133 C 
BRANCH  21  22
ATOM     22  O   UNL     1      33.107  -7.025 -19.404  0.00  0.00    -0.383 OA
ATOM     23  H   UNL     1      33.281  -7.733 -18.765  0.00  0.00    +0.210 HD
ENDBRANCH  21  22
BRANCH  21  24
ATOM     24  C   UNL     1      32.484  -6.468 -21.653  0.00  0.00    -0.048 C 
BRANCH  24  25
ATOM     25  N   UNL     1      32.850  -6.775 -23.029  0.00  0.00    +0.388 N 
ATOM     26  H   UNL     1      33.803  -6.455 -23.200  0.00  0.00    -0.084 HD
ATOM     27  H   UNL     1      32.782  -7.784 -23.166  0.00  0.00    -0.084 HD
BRANCH  25  28
ATOM     28  C   UNL     1      31.950  -6.118 -23.967  0.00  0.00    -0.046 C 
ATOM     29  C   UNL     1      31.294  -4.927 -23.261  0.00  0.00    -0.022 C 
ATOM     30  C   UNL     1      32.748  -5.635 -25.184  0.00  0.00    -0.022 C 
ATOM     31  C   UNL     1      30.881  -7.124 -24.405  0.00  0.00    -0.022 C 
ENDBRANCH  25  28
ENDBRANCH  24  25
ENDBRANCH  21  24
ENDBRANCH  20  21
ENDBRANCH  19  20
ENDBRANCH   2  19
TORSDOF 9
ENDMDL
