MODEL 1
REMARK VINA RESULT:      -3.4      0.000      0.000
REMARK  Name = 3080
REMARK  5 active torsions:
REMARK  status: ('A' for Active; 'I' for Inactive)
REMARK    1  A    between atoms: C_1  and  S_2
REMARK    2  A    between atoms: C_1  and  C_4
REMARK    3  A    between atoms: C_1  and  C_7
REMARK    4  A    between atoms: C_4  and  S_5
REMARK    5  A    between atoms: C_7  and  O_8
REMARK                            x       y       z     vdW  Elec       q    Type
REMARK                         _______ _______ _______ _____ _____    ______ ____
ROOT
ATOM      1  C   UNL     1      41.594 -14.133 -15.137  0.00  0.00    +0.084 C 
ENDROOT
BRANCH   1   2
ATOM      2  S   UNL     1      41.090 -15.859 -15.506  0.00  0.00    -0.165 S 
ATOM      3  H   UNL     1      41.480 -16.187 -16.767  0.00  0.00    +0.102 HD
ENDBRANCH   1   2
BRANCH   1   4
ATOM      4  C   UNL     1      41.830 -13.337 -16.429  0.00  0.00    +0.066 C 
BRANCH   4   5
ATOM      5  S   UNL     1      41.350 -14.248 -17.931  0.00  0.00    -0.167 S 
ATOM      6  H   UNL     1      41.914 -13.657 -19.019  0.00  0.00    +0.102 HD
ENDBRANCH   4   5
ENDBRANCH   1   4
BRANCH   1   7
ATOM      7  C   UNL     1      40.503 -13.465 -14.294  0.00  0.00    +0.148 C 
BRANCH   7   8
ATOM      8  O   UNL     1      40.926 -13.360 -12.939  0.00  0.00    -0.381 OA
ATOM      9  H   UNL     1      41.358 -12.501 -12.802  0.00  0.00    +0.210 HD
ENDBRANCH   7   8
ENDBRANCH   1   7
TORSDOF 5
ENDMDL
MODEL 2
REMARK VINA RESULT:      -3.4     12.913     13.052
REMARK  Name = 3080
REMARK  5 active torsions:
REMARK  status: ('A' for Active; 'I' for Inactive)
REMARK    1  A    between atoms: C_1  and  S_2
REMARK    2  A    between atoms: C_1  and  C_4
REMARK    3  A    between atoms: C_1  and  C_7
REMARK    4  A    between atoms: C_4  and  S_5
REMARK    5  A    between atoms: C_7  and  O_8
REMARK                            x       y       z     vdW  Elec       q    Type
REMARK                         _______ _______ _______ _____ _____    ______ ____
ROOT
ATOM      1  C   UNL     1      37.694 -26.552 -14.126  0.00  0.00    +0.084 C 
ENDROOT
BRANCH   1   2
ATOM      2  S   UNL     1      39.169 -25.583 -14.631  0.00  0.00    -0.165 S 
ATOM      3  H   UNL     1      40.218 -25.899 -13.826  0.00  0.00    +0.102 HD
ENDBRANCH   1   2
BRANCH   1   4
ATOM      4  C   UNL     1      37.184 -26.107 -12.748  0.00  0.00    +0.066 C 
BRANCH   4   5
ATOM      5  S   UNL     1      37.898 -24.524 -12.196  0.00  0.00    -0.167 S 
ATOM      6  H   UNL     1      38.527 -23.922 -13.240  0.00  0.00    +0.102 HD
ENDBRANCH   4   5
ENDBRANCH   1   4
BRANCH   1   7
ATOM      7  C   UNL     1      36.597 -26.375 -15.180  0.00  0.00    +0.148 C 
BRANCH   7   8
ATOM      8  O   UNL     1      36.817 -27.264 -16.270  0.00  0.00    -0.381 OA
ATOM      9  H   UNL     1      37.054 -28.141 -15.928  0.00  0.00    +0.210 HD
ENDBRANCH   7   8
ENDBRANCH   1   7
TORSDOF 5
ENDMDL
MODEL 3
REMARK VINA RESULT:      -3.4     12.044     12.294
REMARK  Name = 3080
REMARK  5 active torsions:
REMARK  status: ('A' for Active; 'I' for Inactive)
REMARK    1  A    between atoms: C_1  and  S_2
REMARK    2  A    between atoms: C_1  and  C_4
REMARK    3  A    between atoms: C_1  and  C_7
REMARK    4  A    between atoms: C_4  and  S_5
REMARK    5  A    between atoms: C_7  and  O_8
REMARK                            x       y       z     vdW  Elec       q    Type
REMARK                         _______ _______ _______ _____ _____    ______ ____
ROOT
ATOM      1  C   UNL     1      38.699 -25.270 -14.399  0.00  0.00    +0.084 C 
ENDROOT
BRANCH   1   2
ATOM      2  S   UNL     1      37.446 -26.526 -14.874  0.00  0.00    -0.165 S 
ATOM      3  H   UNL     1      36.214 -26.113 -14.472  0.00  0.00    +0.102 HD
ENDBRANCH   1   2
BRANCH   1   4
ATOM      4  C   UNL     1      38.522 -24.838 -12.936  0.00  0.00    +0.066 C 
BRANCH   4   5
ATOM      5  S   UNL     1      36.832 -25.100 -12.309  0.00  0.00    -0.167 S 
ATOM      6  H   UNL     1      36.044 -25.569 -13.314  0.00  0.00    +0.102 HD
ENDBRANCH   4   5
ENDBRANCH   1   4
BRANCH   1   7
ATOM      7  C   UNL     1      40.097 -25.857 -14.614  0.00  0.00    +0.148 C 
BRANCH   7   8
ATOM      8  O   UNL     1      40.395 -25.917 -16.005  0.00  0.00    -0.381 OA
ATOM      9  H   UNL     1      40.567 -25.021 -16.338  0.00  0.00    +0.210 HD
ENDBRANCH   7   8
ENDBRANCH   1   7
TORSDOF 5
ENDMDL
MODEL 4
REMARK VINA RESULT:      -3.3     12.112     12.630
REMARK  Name = 3080
REMARK  5 active torsions:
REMARK  status: ('A' for Active; 'I' for Inactive)
REMARK    1  A    between atoms: C_1  and  S_2
REMARK    2  A    between atoms: C_1  and  C_4
REMARK    3  A    between atoms: C_1  and  C_7
REMARK    4  A    between atoms: C_4  and  S_5
REMARK    5  A    between atoms: C_7  and  O_8
REMARK                            x       y       z     vdW  Elec       q    Type
REMARK                         _______ _______ _______ _____ _____    ______ ____
ROOT
ATOM      1  C   UNL     1      37.195 -25.330 -14.990  0.00  0.00    +0.084 C 
ENDROOT
BRANCH   1   2
ATOM      2  S   UNL     1      35.658 -24.482 -14.455  0.00  0.00    -0.165 S 
ATOM      3  H   UNL     1      35.242 -23.635 -15.434  0.00  0.00    +0.102 HD
ENDBRANCH   1   2
BRANCH   1   4
ATOM      4  C   UNL     1      38.367 -24.993 -14.057  0.00  0.00    +0.066 C 
BRANCH   4   5
ATOM      5  S   UNL     1      39.985 -25.502 -14.723  0.00  0.00    -0.167 S 
ATOM      6  H   UNL     1      40.941 -24.629 -14.305  0.00  0.00    +0.102 HD
ENDBRANCH   4   5
ENDBRANCH   1   4
BRANCH   1   7
ATOM      7  C   UNL     1      36.949 -26.842 -15.009  0.00  0.00    +0.148 C 
BRANCH   7   8
ATOM      8  O   UNL     1      36.806 -27.299 -16.349  0.00  0.00    -0.381 OA
ATOM      9  H   UNL     1      37.551 -26.976 -16.882  0.00  0.00    +0.210 HD
ENDBRANCH   7   8
ENDBRANCH   1   7
TORSDOF 5
ENDMDL
MODEL 5
REMARK VINA RESULT:      -3.2      2.578      2.773
REMARK  Name = 3080
REMARK  5 active torsions:
REMARK  status: ('A' for Active; 'I' for Inactive)
REMARK    1  A    between atoms: C_1  and  S_2
REMARK    2  A    between atoms: C_1  and  C_4
REMARK    3  A    between atoms: C_1  and  C_7
REMARK    4  A    between atoms: C_4  and  S_5
REMARK    5  A    between atoms: C_7  and  O_8
REMARK                            x       y       z     vdW  Elec       q    Type
REMARK                         _______ _______ _______ _____ _____    ______ ____
ROOT
ATOM      1  C   UNL     1      41.174 -14.563 -16.829  0.00  0.00    +0.084 C 
ENDROOT
BRANCH   1   2
ATOM      2  S   UNL     1      42.172 -13.137 -16.249  0.00  0.00    -0.165 S 
ATOM      3  H   UNL     1      41.716 -12.725 -15.037  0.00  0.00    +0.102 HD
ENDBRANCH   1   2
BRANCH   1   4
ATOM      4  C   UNL     1      41.588 -14.991 -18.244  0.00  0.00    +0.066 C 
BRANCH   4   5
ATOM      5  S   UNL     1      42.691 -16.441 -18.261  0.00  0.00    -0.167 S 
ATOM      6  H   UNL     1      42.181 -17.408 -17.452  0.00  0.00    +0.102 HD
ENDBRANCH   4   5
ENDBRANCH   1   4
BRANCH   1   7
ATOM      7  C   UNL     1      41.352 -15.727 -15.849  0.00  0.00    +0.148 C 
BRANCH   7   8
ATOM      8  O   UNL     1      40.122 -16.005 -15.189  0.00  0.00    -0.381 OA
ATOM      9  H   UNL     1      39.605 -16.631 -15.721  0.00  0.00    +0.210 HD
ENDBRANCH   7   8
ENDBRANCH   1   7
TORSDOF 5
ENDMDL
MODEL 6
REMARK VINA RESULT:      -3.2     11.204     11.612
REMARK  Name = 3080
REMARK  5 active torsions:
REMARK  status: ('A' for Active; 'I' for Inactive)
REMARK    1  A    between atoms: C_1  and  S_2
REMARK    2  A    between atoms: C_1  and  C_4
REMARK    3  A    between atoms: C_1  and  C_7
REMARK    4  A    between atoms: C_4  and  S_5
REMARK    5  A    between atoms: C_7  and  O_8
REMARK                            x       y       z     vdW  Elec       q    Type
REMARK                         _______ _______ _______ _____ _____    ______ ____
ROOT
ATOM      1  C   UNL     1      35.173 -17.974 -23.747  0.00  0.00    +0.084 C 
ENDROOT
BRANCH   1   2
ATOM      2  S   UNL     1      34.932 -16.342 -22.942  0.00  0.00    -0.165 S 
ATOM      3  H   UNL     1      34.603 -16.524 -21.635  0.00  0.00    +0.102 HD
ENDBRANCH   1   2
BRANCH   1   4
ATOM      4  C   UNL     1      34.664 -19.113 -22.852  0.00  0.00    +0.066 C 
BRANCH   4   5
ATOM      5  S   UNL     1      35.480 -19.168 -21.225  0.00  0.00    -0.167 S 
ATOM      6  H   UNL     1      36.515 -20.049 -21.266  0.00  0.00    +0.102 HD
ENDBRANCH   4   5
ENDBRANCH   1   4
BRANCH   1   7
ATOM      7  C   UNL     1      34.434 -17.981 -25.089  0.00  0.00    +0.148 C 
BRANCH   7   8
ATOM      8  O   UNL     1      34.773 -16.821 -25.841  0.00  0.00    -0.381 OA
ATOM      9  H   UNL     1      34.884 -17.062 -26.774  0.00  0.00    +0.210 HD
ENDBRANCH   7   8
ENDBRANCH   1   7
TORSDOF 5
ENDMDL
MODEL 7
REMARK VINA RESULT:      -3.2     11.966     12.227
REMARK  Name = 3080
REMARK  5 active torsions:
REMARK  status: ('A' for Active; 'I' for Inactive)
REMARK    1  A    between atoms: C_1  and  S_2
REMARK    2  A    between atoms: C_1  and  C_4
REMARK    3  A    between atoms: C_1  and  C_7
REMARK    4  A    between atoms: C_4  and  S_5
REMARK    5  A    between atoms: C_7  and  O_8
REMARK                            x       y       z     vdW  Elec       q    Type
REMARK                         _______ _______ _______ _____ _____    ______ ____
ROOT
ATOM      1  C   UNL     1      36.542 -25.090 -12.383  0.00  0.00    +0.084 C 
ENDROOT
BRANCH   1   2
ATOM      2  S   UNL     1      35.936 -24.743 -14.081  0.00  0.00    -0.165 S 
ATOM      3  H   UNL     1      36.589 -23.662 -14.584  0.00  0.00    +0.102 HD
ENDBRANCH   1   2
BRANCH   1   4
ATOM      4  C   UNL     1      38.032 -24.750 -12.247  0.00  0.00    +0.066 C 
BRANCH   4   5
ATOM      5  S   UNL     1      39.051 -25.435 -13.593  0.00  0.00    -0.167 S 
ATOM      6  H   UNL     1      38.316 -26.329 -14.308  0.00  0.00    +0.102 HD
ENDBRANCH   4   5
ENDBRANCH   1   4
BRANCH   1   7
ATOM      7  C   UNL     1      35.717 -24.273 -11.383  0.00  0.00    +0.148 C 
BRANCH   7   8
ATOM      8  O   UNL     1      35.280 -25.104 -10.314  0.00  0.00    -0.381 OA
ATOM      9  H   UNL     1      35.200 -26.020 -10.627  0.00  0.00    +0.210 HD
ENDBRANCH   7   8
ENDBRANCH   1   7
TORSDOF 5
ENDMDL
MODEL 8
REMARK VINA RESULT:      -3.2      2.337      2.337
REMARK  Name = 3080
REMARK  5 active torsions:
REMARK  status: ('A' for Active; 'I' for Inactive)
REMARK    1  A    between atoms: C_1  and  S_2
REMARK    2  A    between atoms: C_1  and  C_4
REMARK    3  A    between atoms: C_1  and  C_7
REMARK    4  A    between atoms: C_4  and  S_5
REMARK    5  A    between atoms: C_7  and  O_8
REMARK                            x       y       z     vdW  Elec       q    Type
REMARK                         _______ _______ _______ _____ _____    ______ ____
ROOT
ATOM      1  C   UNL     1      41.988 -15.340 -16.649  0.00  0.00    +0.084 C 
ENDROOT
BRANCH   1   2
ATOM      2  S   UNL     1      42.434 -16.548 -17.958  0.00  0.00    -0.165 S 
ATOM      3  H   UNL     1      42.484 -15.916 -19.161  0.00  0.00    +0.102 HD
ENDBRANCH   1   2
BRANCH   1   4
ATOM      4  C   UNL     1      41.243 -14.135 -17.239  0.00  0.00    +0.066 C 
BRANCH   4   5
ATOM      5  S   UNL     1      42.275 -12.638 -17.355  0.00  0.00    -0.167 S 
ATOM      6  H   UNL     1      42.713 -12.292 -16.114  0.00  0.00    +0.102 HD
ENDBRANCH   4   5
ENDBRANCH   1   4
BRANCH   1   7
ATOM      7  C   UNL     1      41.119 -16.042 -15.601  0.00  0.00    +0.148 C 
BRANCH   7   8
ATOM      8  O   UNL     1      40.497 -15.079 -14.757  0.00  0.00    -0.381 OA
ATOM      9  H   UNL     1      39.673 -14.773 -15.168  0.00  0.00    +0.210 HD
ENDBRANCH   7   8
ENDBRANCH   1   7
TORSDOF 5
ENDMDL
MODEL 9
REMARK VINA RESULT:      -3.1     10.729     11.223
REMARK  Name = 3080
REMARK  5 active torsions:
REMARK  status: ('A' for Active; 'I' for Inactive)
REMARK    1  A    between atoms: C_1  and  S_2
REMARK    2  A    between atoms: C_1  and  C_4
REMARK    3  A    between atoms: C_1  and  C_7
REMARK    4  A    between atoms: C_4  and  S_5
REMARK    5  A    between atoms: C_7  and  O_8
REMARK                            x       y       z     vdW  Elec       q    Type
REMARK                         _______ _______ _______ _____ _____    ______ ____
ROOT
ATOM      1  C   UNL     1      34.992 -16.071 -23.522  0.00  0.00    +0.084 C 
ENDROOT
BRANCH   1   2
ATOM      2  S   UNL     1      33.751 -14.729 -23.691  0.00  0.00    -0.165 S 
ATOM      3  H   UNL     1      32.621 -15.066 -23.014  0.00  0.00    +0.102 HD
ENDBRANCH   1   2
BRANCH   1   4
ATOM      4  C   UNL     1      35.004 -16.637 -22.095  0.00  0.00    +0.066 C 
BRANCH   4   5
ATOM      5  S   UNL     1      34.406 -15.452 -20.847  0.00  0.00    -0.167 S 
ATOM      6  H   UNL     1      34.667 -14.184 -21.265  0.00  0.00    +0.102 HD
ENDBRANCH   4   5
ENDBRANCH   1   4
BRANCH   1   7
ATOM      7  C   UNL     1      34.668 -17.178 -24.530  0.00  0.00    +0.148 C 
BRANCH   7   8
ATOM      8  O   UNL     1      34.793 -16.682 -25.859  0.00  0.00    -0.381 OA
ATOM      9  H   UNL     1      35.032 -17.410 -26.454  0.00  0.00    +0.210 HD
ENDBRANCH   7   8
ENDBRANCH   1   7
TORSDOF 5
ENDMDL
