MODEL 1
REMARK VINA RESULT:     -11.7      0.000      0.000
REMARK  Name = 448841
REMARK  3 active torsions:
REMARK  status: ('A' for Active; 'I' for Inactive)
REMARK    1  A    between atoms: C_1  and  C_17
REMARK    2  A    between atoms: C_9  and  C_13
REMARK    3  A    between atoms: C_18  and  C_20
REMARK                            x       y       z     vdW  Elec       q    Type
REMARK                         _______ _______ _______ _____ _____    ______ ____
ROOT
ATOM      1  C   UNL     1      35.240 -21.272 -19.676  0.00  0.00    -0.022 C 
ATOM      2  C   UNL     1      36.092 -21.552 -18.609  0.00  0.00    -0.004 C 
ATOM      3  C   UNL     1      33.917 -21.702 -19.644  0.00  0.00    -0.004 C 
ATOM      4  C   UNL     1      35.631 -22.267 -17.491  0.00  0.00    -0.000 C 
ATOM      5  C   UNL     1      33.442 -22.414 -18.541  0.00  0.00    -0.000 C 
ATOM      6  C   UNL     1      34.285 -22.705 -17.457  0.00  0.00    +0.000 C 
ATOM      7  C   UNL     1      36.475 -22.558 -16.408  0.00  0.00    +0.000 C 
ATOM      8  C   UNL     1      33.824 -23.420 -16.341  0.00  0.00    +0.003 C 
ATOM      9  C   UNL     1      34.676 -23.700 -15.272  0.00  0.00    +0.031 C 
ATOM     10  C   UNL     1      35.999 -23.269 -15.306  0.00  0.00    +0.003 C 
ENDROOT
BRANCH   9  13
ATOM     11  N   UNL     1      32.861 -24.879 -14.055  0.00  0.00    -0.343 N 
ATOM     12  N   UNL     1      34.993 -24.707 -13.113  0.00  0.00    -0.285 NA
ATOM     13  C   UNL     1      34.183 -24.441 -14.123  0.00  0.00    +0.117 C 
ATOM     14  H   UNL     1      32.548 -25.379 -13.267  0.00  0.00    +0.144 HD
ATOM     15  H   UNL     1      32.241 -24.688 -14.795  0.00  0.00    +0.144 HD
ATOM     16  H   UNL     1      34.660 -25.209 -12.334  0.00  0.00    +0.188 HD
ENDBRANCH   9  13
BRANCH   1  17
ATOM     17  C   UNL     1      35.746 -20.513 -20.854  0.00  0.00    +0.027 C 
ATOM     18  C   UNL     1      35.428 -19.055 -20.977  0.00  0.00    +0.027 C 
ATOM     19  C   UNL     1      36.827 -19.494 -20.657  0.00  0.00    +0.009 C 
BRANCH  18  20
ATOM     20  C   UNL     1      35.132 -18.487 -22.316  0.00  0.00    -0.022 C 
ATOM     21  C   UNL     1      35.208 -17.107 -22.528  0.00  0.00    -0.004 C 
ATOM     22  C   UNL     1      34.773 -19.328 -23.374  0.00  0.00    -0.004 C 
ATOM     23  C   UNL     1      34.928 -16.573 -23.786  0.00  0.00    -0.000 C 
ATOM     24  C   UNL     1      34.493 -18.794 -24.632  0.00  0.00    -0.000 C 
ATOM     25  C   UNL     1      34.570 -17.417 -24.837  0.00  0.00    -0.000 C 
ENDBRANCH  18  20
ENDBRANCH   1  17
TORSDOF 3
ENDMDL
MODEL 2
REMARK VINA RESULT:     -11.3      5.773      9.580
REMARK  Name = 448841
REMARK  3 active torsions:
REMARK  status: ('A' for Active; 'I' for Inactive)
REMARK    1  A    between atoms: C_1  and  C_17
REMARK    2  A    between atoms: C_9  and  C_13
REMARK    3  A    between atoms: C_18  and  C_20
REMARK                            x       y       z     vdW  Elec       q    Type
REMARK                         _______ _______ _______ _____ _____    ______ ____
ROOT
ATOM      1  C   UNL     1      34.639 -16.942 -22.195  0.00  0.00    -0.022 C 
ATOM      2  C   UNL     1      33.864 -16.243 -21.270  0.00  0.00    -0.004 C 
ATOM      3  C   UNL     1      34.943 -16.365 -23.426  0.00  0.00    -0.004 C 
ATOM      4  C   UNL     1      33.382 -14.957 -21.563  0.00  0.00    -0.000 C 
ATOM      5  C   UNL     1      34.472 -15.088 -23.734  0.00  0.00    -0.000 C 
ATOM      6  C   UNL     1      33.691 -14.370 -22.814  0.00  0.00    +0.000 C 
ATOM      7  C   UNL     1      32.600 -14.240 -20.643  0.00  0.00    +0.000 C 
ATOM      8  C   UNL     1      33.210 -13.085 -23.107  0.00  0.00    +0.003 C 
ATOM      9  C   UNL     1      32.434 -12.386 -22.181  0.00  0.00    +0.031 C 
ATOM     10  C   UNL     1      32.131 -12.963 -20.952  0.00  0.00    +0.003 C 
ENDROOT
BRANCH   9  13
ATOM     11  N   UNL     1      32.706 -10.162 -23.253  0.00  0.00    -0.343 N 
ATOM     12  N   UNL     1      30.755 -10.670 -22.071  0.00  0.00    -0.285 NA
ATOM     13  C   UNL     1      31.944 -11.055 -22.500  0.00  0.00    +0.117 C 
ATOM     14  H   UNL     1      32.354  -9.266 -23.457  0.00  0.00    +0.144 HD
ATOM     15  H   UNL     1      33.595 -10.428 -23.579  0.00  0.00    +0.144 HD
ATOM     16  H   UNL     1      30.421  -9.770 -22.286  0.00  0.00    +0.188 HD
ENDBRANCH   9  13
BRANCH   1  17
ATOM     17  C   UNL     1      35.141 -18.305 -21.868  0.00  0.00    +0.027 C 
ATOM     18  C   UNL     1      34.159 -19.397 -21.577  0.00  0.00    +0.027 C 
ATOM     19  C   UNL     1      34.944 -19.413 -22.856  0.00  0.00    +0.009 C 
BRANCH  18  20
ATOM     20  C   UNL     1      34.471 -20.391 -20.520  0.00  0.00    -0.022 C 
ATOM     21  C   UNL     1      35.797 -20.627 -20.145  0.00  0.00    -0.004 C 
ATOM     22  C   UNL     1      33.441 -21.099 -19.894  0.00  0.00    -0.004 C 
ATOM     23  C   UNL     1      36.090 -21.563 -19.153  0.00  0.00    -0.000 C 
ATOM     24  C   UNL     1      33.734 -22.035 -18.902  0.00  0.00    -0.000 C 
ATOM     25  C   UNL     1      35.058 -22.267 -18.532  0.00  0.00    -0.000 C 
ENDBRANCH  18  20
ENDBRANCH   1  17
TORSDOF 3
ENDMDL
MODEL 3
REMARK VINA RESULT:     -11.0      1.489      3.085
REMARK  Name = 448841
REMARK  3 active torsions:
REMARK  status: ('A' for Active; 'I' for Inactive)
REMARK    1  A    between atoms: C_1  and  C_17
REMARK    2  A    between atoms: C_9  and  C_13
REMARK    3  A    between atoms: C_18  and  C_20
REMARK                            x       y       z     vdW  Elec       q    Type
REMARK                         _______ _______ _______ _____ _____    ______ ____
ROOT
ATOM      1  C   UNL     1      34.783 -19.821 -21.372  0.00  0.00    -0.022 C 
ATOM      2  C   UNL     1      33.877 -20.604 -20.657  0.00  0.00    -0.004 C 
ATOM      3  C   UNL     1      36.115 -19.754 -20.971  0.00  0.00    -0.004 C 
ATOM      4  C   UNL     1      34.291 -21.332 -19.529  0.00  0.00    -0.000 C 
ATOM      5  C   UNL     1      36.544 -20.471 -19.853  0.00  0.00    -0.000 C 
ATOM      6  C   UNL     1      35.645 -21.265 -19.121  0.00  0.00    +0.000 C 
ATOM      7  C   UNL     1      33.393 -22.124 -18.798  0.00  0.00    +0.000 C 
ATOM      8  C   UNL     1      36.060 -21.992 -17.995  0.00  0.00    +0.003 C 
ATOM      9  C   UNL     1      35.154 -22.776 -17.279  0.00  0.00    +0.031 C 
ATOM     10  C   UNL     1      33.822 -22.841 -17.681  0.00  0.00    +0.003 C 
ENDROOT
BRANCH   9  13
ATOM     11  N   UNL     1      34.689 -24.134 -15.254  0.00  0.00    -0.343 N 
ATOM     12  N   UNL     1      36.890 -23.630 -15.855  0.00  0.00    -0.285 NA
ATOM     13  C   UNL     1      35.599 -23.523 -16.115  0.00  0.00    +0.117 C 
ATOM     14  H   UNL     1      35.013 -24.636 -14.471  0.00  0.00    +0.144 HD
ATOM     15  H   UNL     1      33.723 -24.064 -15.428  0.00  0.00    +0.144 HD
ATOM     16  H   UNL     1      37.193 -24.136 -15.067  0.00  0.00    +0.188 HD
ENDBRANCH   9  13
BRANCH   1  17
ATOM     17  C   UNL     1      34.326 -19.055 -22.564  0.00  0.00    +0.027 C 
ATOM     18  C   UNL     1      35.234 -18.028 -23.167  0.00  0.00    +0.027 C 
ATOM     19  C   UNL     1      34.970 -19.316 -23.891  0.00  0.00    +0.009 C 
BRANCH  18  20
ATOM     20  C   UNL     1      34.656 -16.766 -23.692  0.00  0.00    -0.022 C 
ATOM     21  C   UNL     1      34.173 -16.706 -25.003  0.00  0.00    -0.004 C 
ATOM     22  C   UNL     1      34.591 -15.629 -22.881  0.00  0.00    -0.004 C 
ATOM     23  C   UNL     1      33.631 -15.519 -25.498  0.00  0.00    -0.000 C 
ATOM     24  C   UNL     1      34.050 -14.443 -23.376  0.00  0.00    -0.000 C 
ATOM     25  C   UNL     1      33.570 -14.388 -24.685  0.00  0.00    -0.000 C 
ENDBRANCH  18  20
ENDBRANCH   1  17
TORSDOF 3
ENDMDL
MODEL 4
REMARK VINA RESULT:     -11.0      0.721      2.100
REMARK  Name = 448841
REMARK  3 active torsions:
REMARK  status: ('A' for Active; 'I' for Inactive)
REMARK    1  A    between atoms: C_1  and  C_17
REMARK    2  A    between atoms: C_9  and  C_13
REMARK    3  A    between atoms: C_18  and  C_20
REMARK                            x       y       z     vdW  Elec       q    Type
REMARK                         _______ _______ _______ _____ _____    ______ ____
ROOT
ATOM      1  C   UNL     1      35.810 -21.137 -19.577  0.00  0.00    -0.022 C 
ATOM      2  C   UNL     1      34.509 -21.588 -19.359  0.00  0.00    -0.004 C 
ATOM      3  C   UNL     1      36.791 -21.345 -18.610  0.00  0.00    -0.004 C 
ATOM      4  C   UNL     1      34.170 -22.255 -18.170  0.00  0.00    -0.000 C 
ATOM      5  C   UNL     1      36.471 -22.005 -17.423  0.00  0.00    -0.000 C 
ATOM      6  C   UNL     1      35.167 -22.467 -17.187  0.00  0.00    +0.000 C 
ATOM      7  C   UNL     1      32.865 -22.715 -17.934  0.00  0.00    +0.000 C 
ATOM      8  C   UNL     1      34.829 -23.132 -15.999  0.00  0.00    +0.003 C 
ATOM      9  C   UNL     1      33.526 -23.584 -15.781  0.00  0.00    +0.031 C 
ATOM     10  C   UNL     1      32.547 -23.376 -16.748  0.00  0.00    +0.003 C 
ENDROOT
BRANCH   9  13
ATOM     11  N   UNL     1      34.182 -24.683 -13.653  0.00  0.00    -0.343 N 
ATOM     12  N   UNL     1      31.928 -24.524 -14.251  0.00  0.00    -0.285 NA
ATOM     13  C   UNL     1      33.192 -24.273 -14.545  0.00  0.00    +0.117 C 
ATOM     14  H   UNL     1      33.933 -25.148 -12.822  0.00  0.00    +0.144 HD
ATOM     15  H   UNL     1      35.129 -24.508 -13.855  0.00  0.00    +0.144 HD
ATOM     16  H   UNL     1      31.701 -24.990 -13.414  0.00  0.00    +0.188 HD
ENDBRANCH   9  13
BRANCH   1  17
ATOM     17  C   UNL     1      36.152 -20.432 -20.843  0.00  0.00    +0.027 C 
ATOM     18  C   UNL     1      35.799 -18.985 -20.994  0.00  0.00    +0.027 C 
ATOM     19  C   UNL     1      37.234 -19.396 -20.833  0.00  0.00    +0.009 C 
BRANCH  18  20
ATOM     20  C   UNL     1      35.328 -18.485 -22.310  0.00  0.00    -0.022 C 
ATOM     21  C   UNL     1      34.922 -19.385 -23.299  0.00  0.00    -0.004 C 
ATOM     22  C   UNL     1      35.289 -17.112 -22.569  0.00  0.00    -0.004 C 
ATOM     23  C   UNL     1      34.481 -18.917 -24.537  0.00  0.00    -0.000 C 
ATOM     24  C   UNL     1      34.849 -16.643 -23.806  0.00  0.00    -0.000 C 
ATOM     25  C   UNL     1      34.445 -17.545 -24.790  0.00  0.00    -0.000 C 
ENDBRANCH  18  20
ENDBRANCH   1  17
TORSDOF 3
ENDMDL
MODEL 5
REMARK VINA RESULT:     -10.9      1.517      2.767
REMARK  Name = 448841
REMARK  3 active torsions:
REMARK  status: ('A' for Active; 'I' for Inactive)
REMARK    1  A    between atoms: C_1  and  C_17
REMARK    2  A    between atoms: C_9  and  C_13
REMARK    3  A    between atoms: C_18  and  C_20
REMARK                            x       y       z     vdW  Elec       q    Type
REMARK                         _______ _______ _______ _____ _____    ______ ____
ROOT
ATOM      1  C   UNL     1      34.494 -19.641 -21.474  0.00  0.00    -0.022 C 
ATOM      2  C   UNL     1      35.526 -20.119 -20.667  0.00  0.00    -0.004 C 
ATOM      3  C   UNL     1      33.178 -20.017 -21.218  0.00  0.00    -0.004 C 
ATOM      4  C   UNL     1      35.255 -20.981 -19.591  0.00  0.00    -0.000 C 
ATOM      5  C   UNL     1      32.891 -20.873 -20.153  0.00  0.00    -0.000 C 
ATOM      6  C   UNL     1      33.917 -21.363 -19.330  0.00  0.00    +0.000 C 
ATOM      7  C   UNL     1      36.282 -21.472 -18.769  0.00  0.00    +0.000 C 
ATOM      8  C   UNL     1      33.646 -22.225 -18.256  0.00  0.00    +0.003 C 
ATOM      9  C   UNL     1      34.679 -22.703 -17.448  0.00  0.00    +0.031 C 
ATOM     10  C   UNL     1      35.994 -22.327 -17.705  0.00  0.00    +0.003 C 
ENDROOT
BRANCH   9  13
ATOM     11  N   UNL     1      33.151 -23.552 -15.685  0.00  0.00    -0.343 N 
ATOM     12  N   UNL     1      35.290 -24.462 -15.929  0.00  0.00    -0.285 NA
ATOM     13  C   UNL     1      34.382 -23.594 -16.338  0.00  0.00    +0.117 C 
ATOM     14  H   UNL     1      32.971 -24.165 -14.935  0.00  0.00    +0.144 HD
ATOM     15  H   UNL     1      32.463 -22.911 -15.972  0.00  0.00    +0.144 HD
ATOM     16  H   UNL     1      35.090 -25.066 -15.178  0.00  0.00    +0.188 HD
ENDBRANCH   9  13
BRANCH   1  17
ATOM     17  C   UNL     1      34.799 -18.728 -22.610  0.00  0.00    +0.027 C 
ATOM     18  C   UNL     1      34.982 -17.266 -22.347  0.00  0.00    +0.027 C 
ATOM     19  C   UNL     1      36.162 -18.118 -22.712  0.00  0.00    +0.009 C 
BRANCH  18  20
ATOM     20  C   UNL     1      34.464 -16.281 -23.328  0.00  0.00    -0.022 C 
ATOM     21  C   UNL     1      34.177 -16.677 -24.638  0.00  0.00    -0.004 C 
ATOM     22  C   UNL     1      34.262 -14.950 -22.951  0.00  0.00    -0.004 C 
ATOM     23  C   UNL     1      33.693 -15.750 -25.562  0.00  0.00    -0.000 C 
ATOM     24  C   UNL     1      33.779 -14.023 -23.874  0.00  0.00    -0.000 C 
ATOM     25  C   UNL     1      33.494 -14.424 -25.180  0.00  0.00    -0.000 C 
ENDBRANCH  18  20
ENDBRANCH   1  17
TORSDOF 3
ENDMDL
MODEL 6
REMARK VINA RESULT:     -10.9      6.079      9.978
REMARK  Name = 448841
REMARK  3 active torsions:
REMARK  status: ('A' for Active; 'I' for Inactive)
REMARK    1  A    between atoms: C_1  and  C_17
REMARK    2  A    between atoms: C_9  and  C_13
REMARK    3  A    between atoms: C_18  and  C_20
REMARK                            x       y       z     vdW  Elec       q    Type
REMARK                         _______ _______ _______ _____ _____    ______ ____
ROOT
ATOM      1  C   UNL     1      34.122 -16.441 -21.594  0.00  0.00    -0.022 C 
ATOM      2  C   UNL     1      34.403 -15.588 -22.661  0.00  0.00    -0.004 C 
ATOM      3  C   UNL     1      33.243 -16.039 -20.593  0.00  0.00    -0.004 C 
ATOM      4  C   UNL     1      33.808 -14.318 -22.740  0.00  0.00    -0.000 C 
ATOM      5  C   UNL     1      32.642 -14.780 -20.655  0.00  0.00    -0.000 C 
ATOM      6  C   UNL     1      32.914 -13.908 -21.721  0.00  0.00    +0.000 C 
ATOM      7  C   UNL     1      34.081 -13.446 -23.805  0.00  0.00    +0.000 C 
ATOM      8  C   UNL     1      32.319 -12.639 -21.799  0.00  0.00    +0.003 C 
ATOM      9  C   UNL     1      32.600 -11.785 -22.867  0.00  0.00    +0.031 C 
ATOM     10  C   UNL     1      33.479 -12.188 -23.867  0.00  0.00    +0.003 C 
ENDROOT
BRANCH   9  13
ATOM     11  N   UNL     1      32.544  -9.436 -23.669  0.00  0.00    -0.343 N 
ATOM     12  N   UNL     1      30.847 -10.248 -22.284  0.00  0.00    -0.285 NA
ATOM     13  C   UNL     1      31.975 -10.474 -22.933  0.00  0.00    +0.117 C 
ATOM     14  H   UNL     1      32.104  -8.556 -23.700  0.00  0.00    +0.144 HD
ATOM     15  H   UNL     1      33.386  -9.583 -24.157  0.00  0.00    +0.144 HD
ATOM     16  H   UNL     1      30.422  -9.361 -22.329  0.00  0.00    +0.188 HD
ENDBRANCH   9  13
BRANCH   1  17
ATOM     17  C   UNL     1      34.762 -17.784 -21.526  0.00  0.00    +0.027 C 
ATOM     18  C   UNL     1      33.899 -19.002 -21.411  0.00  0.00    +0.027 C 
ATOM     19  C   UNL     1      34.630 -18.717 -22.691  0.00  0.00    +0.009 C 
BRANCH  18  20
ATOM     20  C   UNL     1      34.345 -20.130 -20.555  0.00  0.00    -0.022 C 
ATOM     21  C   UNL     1      35.708 -20.373 -20.365  0.00  0.00    -0.004 C 
ATOM     22  C   UNL     1      33.404 -20.956 -19.933  0.00  0.00    -0.004 C 
ATOM     23  C   UNL     1      36.128 -21.434 -19.562  0.00  0.00    -0.000 C 
ATOM     24  C   UNL     1      33.823 -22.017 -19.131  0.00  0.00    -0.000 C 
ATOM     25  C   UNL     1      35.184 -22.256 -18.946  0.00  0.00    -0.000 C 
ENDBRANCH  18  20
ENDBRANCH   1  17
TORSDOF 3
ENDMDL
MODEL 7
REMARK VINA RESULT:     -10.9      2.768      5.222
REMARK  Name = 448841
REMARK  3 active torsions:
REMARK  status: ('A' for Active; 'I' for Inactive)
REMARK    1  A    between atoms: C_1  and  C_17
REMARK    2  A    between atoms: C_9  and  C_13
REMARK    3  A    between atoms: C_18  and  C_20
REMARK                            x       y       z     vdW  Elec       q    Type
REMARK                         _______ _______ _______ _____ _____    ______ ____
ROOT
ATOM      1  C   UNL     1      35.019 -17.225 -22.113  0.00  0.00    -0.022 C 
ATOM      2  C   UNL     1      33.842 -17.772 -21.604  0.00  0.00    -0.004 C 
ATOM      3  C   UNL     1      36.223 -17.911 -21.976  0.00  0.00    -0.004 C 
ATOM      4  C   UNL     1      33.853 -19.015 -20.949  0.00  0.00    -0.000 C 
ATOM      5  C   UNL     1      36.252 -19.147 -21.328  0.00  0.00    -0.000 C 
ATOM      6  C   UNL     1      35.076 -19.713 -20.810  0.00  0.00    +0.000 C 
ATOM      7  C   UNL     1      32.677 -19.580 -20.430  0.00  0.00    +0.000 C 
ATOM      8  C   UNL     1      35.088 -20.955 -20.155  0.00  0.00    +0.003 C 
ATOM      9  C   UNL     1      33.910 -21.502 -19.646  0.00  0.00    +0.031 C 
ATOM     10  C   UNL     1      32.707 -20.816 -19.783  0.00  0.00    +0.003 C 
ENDROOT
BRANCH   9  13
ATOM     11  N   UNL     1      33.877 -22.882 -17.582  0.00  0.00    -0.343 N 
ATOM     12  N   UNL     1      34.028 -23.902 -19.679  0.00  0.00    -0.285 NA
ATOM     13  C   UNL     1      33.938 -22.790 -18.971  0.00  0.00    +0.117 C 
ATOM     14  H   UNL     1      33.898 -23.765 -17.146  0.00  0.00    +0.144 HD
ATOM     15  H   UNL     1      33.813 -22.065 -17.037  0.00  0.00    +0.144 HD
ATOM     16  H   UNL     1      34.047 -24.775 -19.223  0.00  0.00    +0.188 HD
ENDBRANCH   9  13
BRANCH   1  17
ATOM     17  C   UNL     1      34.990 -15.906 -22.804  0.00  0.00    +0.027 C 
ATOM     18  C   UNL     1      33.670 -15.292 -23.154  0.00  0.00    +0.027 C 
ATOM     19  C   UNL     1      34.507 -14.701 -22.057  0.00  0.00    +0.009 C 
BRANCH  18  20
ATOM     20  C   UNL     1      33.527 -14.558 -24.436  0.00  0.00    -0.022 C 
ATOM     21  C   UNL     1      33.330 -15.259 -25.629  0.00  0.00    -0.004 C 
ATOM     22  C   UNL     1      33.591 -13.162 -24.460  0.00  0.00    -0.004 C 
ATOM     23  C   UNL     1      33.198 -14.570 -26.836  0.00  0.00    -0.000 C 
ATOM     24  C   UNL     1      33.460 -12.473 -25.665  0.00  0.00    -0.000 C 
ATOM     25  C   UNL     1      33.263 -13.177 -26.853  0.00  0.00    -0.000 C 
ENDBRANCH  18  20
ENDBRANCH   1  17
TORSDOF 3
ENDMDL
MODEL 8
REMARK VINA RESULT:     -10.9      5.749      9.118
REMARK  Name = 448841
REMARK  3 active torsions:
REMARK  status: ('A' for Active; 'I' for Inactive)
REMARK    1  A    between atoms: C_1  and  C_17
REMARK    2  A    between atoms: C_9  and  C_13
REMARK    3  A    between atoms: C_18  and  C_20
REMARK                            x       y       z     vdW  Elec       q    Type
REMARK                         _______ _______ _______ _____ _____    ______ ____
ROOT
ATOM      1  C   UNL     1      33.312 -13.366 -23.149  0.00  0.00    -0.022 C 
ATOM      2  C   UNL     1      34.135 -14.350 -23.695  0.00  0.00    -0.004 C 
ATOM      3  C   UNL     1      32.693 -13.578 -21.920  0.00  0.00    -0.004 C 
ATOM      4  C   UNL     1      34.351 -15.562 -23.019  0.00  0.00    -0.000 C 
ATOM      5  C   UNL     1      32.897 -14.776 -21.234  0.00  0.00    -0.000 C 
ATOM      6  C   UNL     1      33.722 -15.778 -21.769  0.00  0.00    +0.000 C 
ATOM      7  C   UNL     1      35.175 -16.564 -23.555  0.00  0.00    +0.000 C 
ATOM      8  C   UNL     1      33.937 -16.989 -21.093  0.00  0.00    +0.003 C 
ATOM      9  C   UNL     1      34.761 -17.974 -21.639  0.00  0.00    +0.031 C 
ATOM     10  C   UNL     1      35.379 -17.761 -22.868  0.00  0.00    +0.003 C 
ENDROOT
BRANCH   9  13
ATOM     11  N   UNL     1      36.212 -19.537 -20.369  0.00  0.00    -0.343 N 
ATOM     12  N   UNL     1      33.982 -20.087 -20.800  0.00  0.00    -0.285 NA
ATOM     13  C   UNL     1      34.973 -19.223 -20.926  0.00  0.00    +0.117 C 
ATOM     14  H   UNL     1      36.334 -20.389 -19.890  0.00  0.00    +0.144 HD
ATOM     15  H   UNL     1      36.964 -18.908 -20.454  0.00  0.00    +0.144 HD
ATOM     16  H   UNL     1      34.125 -20.933 -20.316  0.00  0.00    +0.188 HD
ENDBRANCH   9  13
BRANCH   1  17
ATOM     17  C   UNL     1      33.094 -12.086 -23.880  0.00  0.00    +0.027 C 
ATOM     18  C   UNL     1      34.192 -11.070 -23.921  0.00  0.00    +0.027 C 
ATOM     19  C   UNL     1      33.834 -11.840 -25.159  0.00  0.00    +0.009 C 
BRANCH  18  20
ATOM     20  C   UNL     1      33.851  -9.628 -23.838  0.00  0.00    -0.022 C 
ATOM     21  C   UNL     1      34.842  -8.659 -24.019  0.00  0.00    -0.004 C 
ATOM     22  C   UNL     1      32.537  -9.230 -23.576  0.00  0.00    -0.004 C 
ATOM     23  C   UNL     1      34.522  -7.303 -23.939  0.00  0.00    -0.000 C 
ATOM     24  C   UNL     1      32.216  -7.875 -23.494  0.00  0.00    -0.000 C 
ATOM     25  C   UNL     1      33.209  -6.912 -23.676  0.00  0.00    -0.000 C 
ENDBRANCH  18  20
ENDBRANCH   1  17
TORSDOF 3
ENDMDL
MODEL 9
REMARK VINA RESULT:     -10.7      4.255      8.602
REMARK  Name = 448841
REMARK  3 active torsions:
REMARK  status: ('A' for Active; 'I' for Inactive)
REMARK    1  A    between atoms: C_1  and  C_17
REMARK    2  A    between atoms: C_9  and  C_13
REMARK    3  A    between atoms: C_18  and  C_20
REMARK                            x       y       z     vdW  Elec       q    Type
REMARK                         _______ _______ _______ _____ _____    ______ ____
ROOT
ATOM      1  C   UNL     1      34.332 -21.427 -19.394  0.00  0.00    -0.022 C 
ATOM      2  C   UNL     1      35.488 -20.828 -19.893  0.00  0.00    -0.004 C 
ATOM      3  C   UNL     1      33.080 -20.983 -19.813  0.00  0.00    -0.004 C 
ATOM      4  C   UNL     1      35.408 -19.776 -20.820  0.00  0.00    -0.000 C 
ATOM      5  C   UNL     1      32.982 -19.939 -20.733  0.00  0.00    -0.000 C 
ATOM      6  C   UNL     1      34.136 -19.324 -21.247  0.00  0.00    +0.000 C 
ATOM      7  C   UNL     1      36.561 -19.161 -21.333  0.00  0.00    +0.000 C 
ATOM      8  C   UNL     1      34.055 -18.273 -22.173  0.00  0.00    +0.003 C 
ATOM      9  C   UNL     1      35.212 -17.673 -22.673  0.00  0.00    +0.031 C 
ATOM     10  C   UNL     1      36.463 -18.117 -22.253  0.00  0.00    +0.003 C 
ENDROOT
BRANCH   9  13
ATOM     11  N   UNL     1      35.124 -16.826 -25.005  0.00  0.00    -0.343 N 
ATOM     12  N   UNL     1      35.010 -15.339 -23.206  0.00  0.00    -0.285 NA
ATOM     13  C   UNL     1      35.111 -16.586 -23.632  0.00  0.00    +0.117 C 
ATOM     14  H   UNL     1      35.055 -16.074 -25.637  0.00  0.00    +0.144 HD
ATOM     15  H   UNL     1      35.202 -17.747 -25.343  0.00  0.00    +0.144 HD
ATOM     16  H   UNL     1      34.941 -14.601 -23.854  0.00  0.00    +0.188 HD
ENDBRANCH   9  13
BRANCH   1  17
ATOM     17  C   UNL     1      34.435 -22.541 -18.411  0.00  0.00    +0.027 C 
ATOM     18  C   UNL     1      33.227 -22.932 -17.618  0.00  0.00    +0.027 C 
ATOM     19  C   UNL     1      33.741 -23.837 -18.700  0.00  0.00    +0.009 C 
BRANCH  18  20
ATOM     20  C   UNL     1      33.390 -23.332 -16.198  0.00  0.00    -0.022 C 
ATOM     21  C   UNL     1      34.667 -23.476 -15.649  0.00  0.00    -0.004 C 
ATOM     22  C   UNL     1      32.266 -23.569 -15.400  0.00  0.00    -0.004 C 
ATOM     23  C   UNL     1      34.820 -23.854 -14.315  0.00  0.00    -0.000 C 
ATOM     24  C   UNL     1      32.418 -23.947 -14.066  0.00  0.00    -0.000 C 
ATOM     25  C   UNL     1      33.696 -24.089 -13.524  0.00  0.00    -0.000 C 
ENDBRANCH  18  20
ENDBRANCH   1  17
TORSDOF 3
ENDMDL
