MODEL 1
REMARK VINA RESULT:     -11.3      0.000      0.000
REMARK  Name = 9892540
REMARK  6 active torsions:
REMARK  status: ('A' for Active; 'I' for Inactive)
REMARK    1  A    between atoms: C_1  and  N_2
REMARK    2  A    between atoms: C_1  and  C_16
REMARK    3  A    between atoms: N_3  and  C_10
REMARK    4  A    between atoms: C_16  and  C_17
REMARK    5  A    between atoms: C_17  and  N_19
REMARK    6  A    between atoms: C_26  and  O_29
REMARK                            x       y       z     vdW  Elec       q    Type
REMARK                         _______ _______ _______ _____ _____    ______ ____
ROOT
ATOM      1  C   UNL     1      34.228 -15.657 -24.416  0.00  0.00    -0.075 C 
ENDROOT
BRANCH   1   2
ATOM      2  N   UNL     1      34.896 -16.637 -23.558  0.00  0.00    +0.389 N 
ATOM      3  N   UNL     1      35.045 -18.785 -21.681  0.00  0.00    -0.312 N 
ATOM      4  C   UNL     1      34.533 -16.421 -22.152  0.00  0.00    -0.055 C 
ATOM      5  C   UNL     1      34.538 -18.002 -23.961  0.00  0.00    -0.055 C 
ATOM      6  C   UNL     1      35.270 -17.403 -21.238  0.00  0.00    +0.068 C 
ATOM      7  C   UNL     1      35.273 -19.038 -23.107  0.00  0.00    +0.068 C 
ATOM      8  H   UNL     1      35.903 -16.516 -23.661  0.00  0.00    -0.080 HD
BRANCH   3  10
ATOM      9 CL   UNL     1      32.997 -22.341 -18.577  0.00  0.00    -0.082 Cl
ATOM     10  C   UNL     1      35.244 -19.813 -20.753  0.00  0.00    +0.049 C 
ATOM     11  C   UNL     1      34.152 -20.496 -20.182  0.00  0.00    +0.026 C 
ATOM     12  C   UNL     1      36.542 -20.197 -20.361  0.00  0.00    +0.015 C 
ATOM     13  C   UNL     1      34.349 -21.522 -19.258  0.00  0.00    +0.059 C 
ATOM     14  C   UNL     1      36.740 -21.222 -19.437  0.00  0.00    +0.002 C 
ATOM     15  C   UNL     1      35.644 -21.886 -18.886  0.00  0.00    +0.011 C 
ENDBRANCH   3  10
ENDBRANCH   1   2
BRANCH   1  16
ATOM     16  C   UNL     1      34.111 -14.290 -23.737  0.00  0.00    -0.001 C 
BRANCH  16  17
ATOM     17  C   UNL     1      33.010 -13.395 -24.306  0.00  0.00    +0.096 C 
BRANCH  17  19
ATOM     18  O   UNL     1      34.503 -11.559 -25.848  0.00  0.00    -0.275 OA
ATOM     19  N   UNL     1      33.198 -11.990 -23.961  0.00  0.00    -0.259 N 
ATOM     20  C   UNL     1      32.554 -11.469 -22.790  0.00  0.00    +0.053 C 
ATOM     21  C   UNL     1      32.522 -10.080 -22.578  0.00  0.00    +0.026 C 
ATOM     22  C   UNL     1      33.108  -9.157 -23.605  0.00  0.00    +0.040 C 
ATOM     23  C   UNL     1      34.314  -9.808 -24.250  0.00  0.00    +0.090 C 
ATOM     24  C   UNL     1      33.995 -11.187 -24.787  0.00  0.00    +0.230 C 
ATOM     25  C   UNL     1      31.925 -12.304 -21.853  0.00  0.00    +0.015 C 
ATOM     26  C   UNL     1      31.870  -9.549 -21.456  0.00  0.00    +0.136 C 
ATOM     27  C   UNL     1      31.289 -11.769 -20.730  0.00  0.00    +0.004 C 
ATOM     28  C   UNL     1      31.262 -10.392 -20.531  0.00  0.00    +0.037 C 
BRANCH  26  29
ATOM     29  O   UNL     1      31.824  -8.203 -21.235  0.00  0.00    -0.472 OA
ATOM     30  C   UNL     1      32.604  -7.698 -20.154  0.00  0.00    +0.252 C 
ENDBRANCH  26  29
ENDBRANCH  17  19
ENDBRANCH  16  17
ENDBRANCH   1  16
TORSDOF 6
ENDMDL
MODEL 2
REMARK VINA RESULT:     -10.8      6.042     11.832
REMARK  Name = 9892540
REMARK  6 active torsions:
REMARK  status: ('A' for Active; 'I' for Inactive)
REMARK    1  A    between atoms: C_1  and  N_2
REMARK    2  A    between atoms: C_1  and  C_16
REMARK    3  A    between atoms: N_3  and  C_10
REMARK    4  A    between atoms: C_16  and  C_17
REMARK    5  A    between atoms: C_17  and  N_19
REMARK    6  A    between atoms: C_26  and  O_29
REMARK                            x       y       z     vdW  Elec       q    Type
REMARK                         _______ _______ _______ _____ _____    ______ ____
ROOT
ATOM      1  C   UNL     1      35.069 -22.042 -19.339  0.00  0.00    -0.075 C 
ENDROOT
BRANCH   1   2
ATOM      2  N   UNL     1      35.007 -20.996 -20.359  0.00  0.00    +0.389 N 
ATOM      3  N   UNL     1      34.727 -18.329 -21.345  0.00  0.00    -0.312 N 
ATOM      4  C   UNL     1      33.700 -20.328 -20.333  0.00  0.00    -0.055 C 
ATOM      5  C   UNL     1      36.074 -20.010 -20.151  0.00  0.00    -0.055 C 
ATOM      6  C   UNL     1      33.602 -19.269 -21.434  0.00  0.00    +0.068 C 
ATOM      7  C   UNL     1      36.056 -18.939 -21.245  0.00  0.00    +0.068 C 
ATOM      8  H   UNL     1      35.136 -21.432 -21.272  0.00  0.00    -0.080 HD
BRANCH   3  10
ATOM      9 CL   UNL     1      34.008 -15.580 -25.635  0.00  0.00    -0.082 Cl
ATOM     10  C   UNL     1      34.583 -17.073 -21.946  0.00  0.00    +0.049 C 
ATOM     11  C   UNL     1      34.389 -16.952 -23.336  0.00  0.00    +0.026 C 
ATOM     12  C   UNL     1      34.629 -15.892 -21.179  0.00  0.00    +0.015 C 
ATOM     13  C   UNL     1      34.245 -15.701 -23.935  0.00  0.00    +0.059 C 
ATOM     14  C   UNL     1      34.485 -14.641 -21.776  0.00  0.00    +0.002 C 
ATOM     15  C   UNL     1      34.292 -14.544 -23.154  0.00  0.00    +0.011 C 
ENDBRANCH   3  10
ENDBRANCH   1   2
BRANCH   1  16
ATOM     16  C   UNL     1      33.764 -22.142 -18.543  0.00  0.00    -0.001 C 
BRANCH  16  17
ATOM     17  C   UNL     1      33.511 -23.511 -17.915  0.00  0.00    +0.096 C 
BRANCH  17  19
ATOM     18  O   UNL     1      30.936 -22.970 -16.889  0.00  0.00    -0.275 OA
ATOM     19  N   UNL     1      33.191 -23.424 -16.494  0.00  0.00    -0.259 N 
ATOM     20  C   UNL     1      34.226 -23.672 -15.532  0.00  0.00    +0.053 C 
ATOM     21  C   UNL     1      33.886 -23.832 -14.177  0.00  0.00    +0.026 C 
ATOM     22  C   UNL     1      32.444 -23.802 -13.763  0.00  0.00    +0.040 C 
ATOM     23  C   UNL     1      31.682 -22.828 -14.635  0.00  0.00    +0.090 C 
ATOM     24  C   UNL     1      31.881 -23.110 -16.109  0.00  0.00    +0.230 C 
ATOM     25  C   UNL     1      35.575 -23.787 -15.903  0.00  0.00    +0.015 C 
ATOM     26  C   UNL     1      34.879 -24.106 -13.226  0.00  0.00    +0.136 C 
ATOM     27  C   UNL     1      36.560 -24.046 -14.947  0.00  0.00    +0.004 C 
ATOM     28  C   UNL     1      36.213 -24.205 -13.609  0.00  0.00    +0.037 C 
BRANCH  26  29
ATOM     29  O   UNL     1      34.569 -24.270 -11.907  0.00  0.00    -0.472 OA
ATOM     30  C   UNL     1      35.659 -24.341 -10.990  0.00  0.00    +0.252 C 
ENDBRANCH  26  29
ENDBRANCH  17  19
ENDBRANCH  16  17
ENDBRANCH   1  16
TORSDOF 6
ENDMDL
MODEL 3
REMARK VINA RESULT:     -10.7      1.368      2.526
REMARK  Name = 9892540
REMARK  6 active torsions:
REMARK  status: ('A' for Active; 'I' for Inactive)
REMARK    1  A    between atoms: C_1  and  N_2
REMARK    2  A    between atoms: C_1  and  C_16
REMARK    3  A    between atoms: N_3  and  C_10
REMARK    4  A    between atoms: C_16  and  C_17
REMARK    5  A    between atoms: C_17  and  N_19
REMARK    6  A    between atoms: C_26  and  O_29
REMARK                            x       y       z     vdW  Elec       q    Type
REMARK                         _______ _______ _______ _____ _____    ______ ____
ROOT
ATOM      1  C   UNL     1      34.237 -14.984 -24.237  0.00  0.00    -0.075 C 
ENDROOT
BRANCH   1   2
ATOM      2  N   UNL     1      34.072 -16.206 -23.451  0.00  0.00    +0.389 N 
ATOM      3  N   UNL     1      34.905 -18.339 -21.743  0.00  0.00    -0.312 N 
ATOM      4  C   UNL     1      34.948 -17.268 -23.962  0.00  0.00    -0.055 C 
ATOM      5  C   UNL     1      34.370 -15.953 -22.036  0.00  0.00    -0.055 C 
ATOM      6  C   UNL     1      34.743 -18.570 -23.184  0.00  0.00    +0.068 C 
ATOM      7  C   UNL     1      34.148 -17.211 -21.193  0.00  0.00    +0.068 C 
ATOM      8  H   UNL     1      33.102 -16.510 -23.534  0.00  0.00    -0.080 HD
BRANCH   3  10
ATOM      9 CL   UNL     1      33.190 -22.244 -18.863  0.00  0.00    -0.082 Cl
ATOM     10  C   UNL     1      35.199 -19.439 -20.929  0.00  0.00    +0.049 C 
ATOM     11  C   UNL     1      34.172 -20.216 -20.358  0.00  0.00    +0.026 C 
ATOM     12  C   UNL     1      36.533 -19.804 -20.657  0.00  0.00    +0.015 C 
ATOM     13  C   UNL     1      34.465 -21.312 -19.548  0.00  0.00    +0.059 C 
ATOM     14  C   UNL     1      36.827 -20.900 -19.847  0.00  0.00    +0.002 C 
ATOM     15  C   UNL     1      35.793 -21.655 -19.293  0.00  0.00    +0.011 C 
ENDBRANCH   3  10
ENDBRANCH   1   2
BRANCH   1  16
ATOM     16  C   UNL     1      34.160 -13.728 -23.364  0.00  0.00    -0.001 C 
BRANCH  16  17
ATOM     17  C   UNL     1      33.825 -12.448 -24.127  0.00  0.00    +0.096 C 
BRANCH  17  19
ATOM     18  O   UNL     1      31.669 -13.170 -22.451  0.00  0.00    -0.275 OA
ATOM     19  N   UNL     1      33.052 -11.505 -23.325  0.00  0.00    -0.259 N 
ATOM     20  C   UNL     1      33.420 -10.119 -23.334  0.00  0.00    +0.053 C 
ATOM     21  C   UNL     1      32.850  -9.246 -22.391  0.00  0.00    +0.026 C 
ATOM     22  C   UNL     1      31.912  -9.783 -21.351  0.00  0.00    +0.040 C 
ATOM     23  C   UNL     1      31.100 -10.920 -21.933  0.00  0.00    +0.090 C 
ATOM     24  C   UNL     1      31.978 -11.981 -22.562  0.00  0.00    +0.230 C 
ATOM     25  C   UNL     1      34.358  -9.604 -24.243  0.00  0.00    +0.015 C 
ATOM     26  C   UNL     1      33.221  -7.894 -22.364  0.00  0.00    +0.136 C 
ATOM     27  C   UNL     1      34.712  -8.253 -24.219  0.00  0.00    +0.004 C 
ATOM     28  C   UNL     1      34.144  -7.398 -23.280  0.00  0.00    +0.037 C 
BRANCH  26  29
ATOM     29  O   UNL     1      32.683  -7.031 -21.453  0.00  0.00    -0.472 OA
ATOM     30  C   UNL     1      31.803  -6.028 -21.954  0.00  0.00    +0.252 C 
ENDBRANCH  26  29
ENDBRANCH  17  19
ENDBRANCH  16  17
ENDBRANCH   1  16
TORSDOF 6
ENDMDL
MODEL 4
REMARK VINA RESULT:     -10.7      3.080      5.243
REMARK  Name = 9892540
REMARK  6 active torsions:
REMARK  status: ('A' for Active; 'I' for Inactive)
REMARK    1  A    between atoms: C_1  and  N_2
REMARK    2  A    between atoms: C_1  and  C_16
REMARK    3  A    between atoms: N_3  and  C_10
REMARK    4  A    between atoms: C_16  and  C_17
REMARK    5  A    between atoms: C_17  and  N_19
REMARK    6  A    between atoms: C_26  and  O_29
REMARK                            x       y       z     vdW  Elec       q    Type
REMARK                         _______ _______ _______ _____ _____    ______ ____
ROOT
ATOM      1  C   UNL     1      31.390 -11.165 -21.516  0.00  0.00    -0.075 C 
ENDROOT
BRANCH   1   2
ATOM      2  N   UNL     1      31.700 -12.511 -21.996  0.00  0.00    +0.389 N 
ATOM      3  N   UNL     1      33.377 -14.750 -22.579  0.00  0.00    -0.312 N 
ATOM      4  C   UNL     1      32.656 -12.453 -23.109  0.00  0.00    -0.055 C 
ATOM      5  C   UNL     1      32.250 -13.331 -20.910  0.00  0.00    -0.055 C 
ATOM      6  C   UNL     1      32.944 -13.853 -23.658  0.00  0.00    +0.068 C 
ATOM      7  C   UNL     1      32.527 -14.760 -21.385  0.00  0.00    +0.068 C 
ATOM      8  H   UNL     1      30.835 -12.939 -22.326  0.00  0.00    -0.080 HD
BRANCH   3  10
ATOM      9 CL   UNL     1      36.261 -18.736 -21.072  0.00  0.00    -0.082 Cl
ATOM     10  C   UNL     1      34.099 -15.897 -22.927  0.00  0.00    +0.049 C 
ATOM     11  C   UNL     1      34.753 -16.668 -21.945  0.00  0.00    +0.026 C 
ATOM     12  C   UNL     1      34.193 -16.316 -24.269  0.00  0.00    +0.015 C 
ATOM     13  C   UNL     1      35.471 -17.812 -22.291  0.00  0.00    +0.059 C 
ATOM     14  C   UNL     1      34.912 -17.460 -24.616  0.00  0.00    +0.002 C 
ATOM     15  C   UNL     1      35.551 -18.208 -23.627  0.00  0.00    +0.011 C 
ENDBRANCH   3  10
ENDBRANCH   1   2
BRANCH   1  16
ATOM     16  C   UNL     1      31.858 -10.086 -22.498  0.00  0.00    -0.001 C 
BRANCH  16  17
ATOM     17  C   UNL     1      32.678  -8.966 -21.862  0.00  0.00    +0.096 C 
BRANCH  17  19
ATOM     18  O   UNL     1      34.798  -9.255 -23.706  0.00  0.00    -0.275 OA
ATOM     19  N   UNL     1      33.076  -7.947 -22.828  0.00  0.00    -0.259 N 
ATOM     20  C   UNL     1      32.327  -6.726 -22.897  0.00  0.00    +0.053 C 
ATOM     21  C   UNL     1      32.538  -5.846 -23.973  0.00  0.00    +0.026 C 
ATOM     22  C   UNL     1      33.498  -6.220 -25.064  0.00  0.00    +0.040 C 
ATOM     23  C   UNL     1      34.650  -7.011 -24.482  0.00  0.00    +0.090 C 
ATOM     24  C   UNL     1      34.172  -8.193 -23.665  0.00  0.00    +0.230 C 
ATOM     25  C   UNL     1      31.362  -6.388 -21.935  0.00  0.00    +0.015 C 
ATOM     26  C   UNL     1      31.794  -4.662 -24.076  0.00  0.00    +0.136 C 
ATOM     27  C   UNL     1      30.634  -5.200 -22.037  0.00  0.00    +0.004 C 
ATOM     28  C   UNL     1      30.850  -4.337 -23.107  0.00  0.00    +0.037 C 
BRANCH  26  29
ATOM     29  O   UNL     1      31.981  -3.797 -25.115  0.00  0.00    -0.472 OA
ATOM     30  C   UNL     1      30.945  -2.848 -25.361  0.00  0.00    +0.252 C 
ENDBRANCH  26  29
ENDBRANCH  17  19
ENDBRANCH  16  17
ENDBRANCH   1  16
TORSDOF 6
ENDMDL
MODEL 5
REMARK VINA RESULT:     -10.7      4.815     10.830
REMARK  Name = 9892540
REMARK  6 active torsions:
REMARK  status: ('A' for Active; 'I' for Inactive)
REMARK    1  A    between atoms: C_1  and  N_2
REMARK    2  A    between atoms: C_1  and  C_16
REMARK    3  A    between atoms: N_3  and  C_10
REMARK    4  A    between atoms: C_16  and  C_17
REMARK    5  A    between atoms: C_17  and  N_19
REMARK    6  A    between atoms: C_26  and  O_29
REMARK                            x       y       z     vdW  Elec       q    Type
REMARK                         _______ _______ _______ _____ _____    ______ ____
ROOT
ATOM      1  C   UNL     1      35.202 -19.352 -21.953  0.00  0.00    -0.075 C 
ENDROOT
BRANCH   1   2
ATOM      2  N   UNL     1      35.177 -17.898 -22.109  0.00  0.00    +0.389 N 
ATOM      3  N   UNL     1      33.972 -15.338 -22.503  0.00  0.00    -0.312 N 
ATOM      4  C   UNL     1      34.626 -17.530 -23.419  0.00  0.00    -0.055 C 
ATOM      5  C   UNL     1      34.381 -17.279 -21.043  0.00  0.00    -0.055 C 
ATOM      6  C   UNL     1      34.649 -16.012 -23.618  0.00  0.00    +0.068 C 
ATOM      7  C   UNL     1      34.393 -15.752 -21.162  0.00  0.00    +0.068 C 
ATOM      8  H   UNL     1      36.135 -17.554 -22.046  0.00  0.00    -0.080 HD
BRANCH   3  10
ATOM      9 CL   UNL     1      30.808 -11.544 -21.064  0.00  0.00    -0.082 Cl
ATOM     10  C   UNL     1      33.499 -14.037 -22.711  0.00  0.00    +0.049 C 
ATOM     11  C   UNL     1      32.500 -13.487 -21.884  0.00  0.00    +0.026 C 
ATOM     12  C   UNL     1      34.008 -13.237 -23.754  0.00  0.00    +0.015 C 
ATOM     13  C   UNL     1      32.029 -12.191 -22.090  0.00  0.00    +0.059 C 
ATOM     14  C   UNL     1      33.538 -11.941 -23.961  0.00  0.00    +0.002 C 
ATOM     15  C   UNL     1      32.549 -11.417 -23.128  0.00  0.00    +0.011 C 
ENDBRANCH   3  10
ENDBRANCH   1   2
BRANCH   1  16
ATOM     16  C   UNL     1      35.168 -19.769 -20.480  0.00  0.00    -0.001 C 
BRANCH  16  17
ATOM     17  C   UNL     1      35.525 -21.233 -20.230  0.00  0.00    +0.096 C 
BRANCH  17  19
ATOM     18  O   UNL     1      32.776 -21.881 -20.230  0.00  0.00    -0.275 OA
ATOM     19  N   UNL     1      34.811 -21.796 -19.089  0.00  0.00    -0.259 N 
ATOM     20  C   UNL     1      35.540 -22.094 -17.891  0.00  0.00    +0.053 C 
ATOM     21  C   UNL     1      34.927 -22.855 -16.879  0.00  0.00    +0.026 C 
ATOM     22  C   UNL     1      33.544 -23.395 -17.089  0.00  0.00    +0.040 C 
ATOM     23  C   UNL     1      32.733 -22.418 -17.913  0.00  0.00    +0.090 C 
ATOM     24  C   UNL     1      33.436 -22.039 -19.200  0.00  0.00    +0.230 C 
ATOM     25  C   UNL     1      36.866 -21.671 -17.701  0.00  0.00    +0.015 C 
ATOM     26  C   UNL     1      35.634 -23.183 -15.714  0.00  0.00    +0.136 C 
ATOM     27  C   UNL     1      37.559 -21.990 -16.531  0.00  0.00    +0.004 C 
ATOM     28  C   UNL     1      36.943 -22.745 -15.537  0.00  0.00    +0.037 C 
BRANCH  26  29
ATOM     29  O   UNL     1      35.059 -23.924 -14.723  0.00  0.00    -0.472 OA
ATOM     30  C   UNL     1      35.706 -23.920 -13.452  0.00  0.00    +0.252 C 
ENDBRANCH  26  29
ENDBRANCH  17  19
ENDBRANCH  16  17
ENDBRANCH   1  16
TORSDOF 6
ENDMDL
MODEL 6
REMARK VINA RESULT:     -10.6      3.777      6.682
REMARK  Name = 9892540
REMARK  6 active torsions:
REMARK  status: ('A' for Active; 'I' for Inactive)
REMARK    1  A    between atoms: C_1  and  N_2
REMARK    2  A    between atoms: C_1  and  C_16
REMARK    3  A    between atoms: N_3  and  C_10
REMARK    4  A    between atoms: C_16  and  C_17
REMARK    5  A    between atoms: C_17  and  N_19
REMARK    6  A    between atoms: C_26  and  O_29
REMARK                            x       y       z     vdW  Elec       q    Type
REMARK                         _______ _______ _______ _____ _____    ______ ____
ROOT
ATOM      1  C   UNL     1      35.535 -20.579 -20.674  0.00  0.00    -0.075 C 
ENDROOT
BRANCH   1   2
ATOM      2  N   UNL     1      35.472 -20.943 -19.259  0.00  0.00    +0.389 N 
ATOM      3  N   UNL     1      35.853 -22.623 -16.980  0.00  0.00    -0.312 N 
ATOM      4  C   UNL     1      34.644 -22.142 -19.073  0.00  0.00    -0.055 C 
ATOM      5  C   UNL     1      36.819 -21.181 -18.727  0.00  0.00    -0.055 C 
ATOM      6  C   UNL     1      34.523 -22.500 -17.590  0.00  0.00    +0.068 C 
ATOM      7  C   UNL     1      36.771 -21.509 -17.233  0.00  0.00    +0.068 C 
ATOM      8  H   UNL     1      35.048 -20.168 -18.749  0.00  0.00    -0.080 HD
BRANCH   3  10
ATOM      9 CL   UNL     1      38.893 -25.024 -13.593  0.00  0.00    -0.082 Cl
ATOM     10  C   UNL     1      35.968 -23.362 -15.797  0.00  0.00    +0.049 C 
ATOM     11  C   UNL     1      37.227 -23.785 -15.326  0.00  0.00    +0.026 C 
ATOM     12  C   UNL     1      34.830 -23.707 -15.042  0.00  0.00    +0.015 C 
ATOM     13  C   UNL     1      37.343 -24.521 -14.147  0.00  0.00    +0.059 C 
ATOM     14  C   UNL     1      34.944 -24.444 -13.863  0.00  0.00    +0.002 C 
ATOM     15  C   UNL     1      36.201 -24.850 -13.415  0.00  0.00    +0.011 C 
ENDBRANCH   3  10
ENDBRANCH   1   2
BRANCH   1  16
ATOM     16  C   UNL     1      34.809 -19.261 -20.958  0.00  0.00    -0.001 C 
BRANCH  16  17
ATOM     17  C   UNL     1      35.726 -18.113 -21.377  0.00  0.00    +0.096 C 
BRANCH  17  19
ATOM     18  O   UNL     1      35.087 -16.005 -19.608  0.00  0.00    -0.275 OA
ATOM     19  N   UNL     1      34.984 -16.915 -21.756  0.00  0.00    -0.259 N 
ATOM     20  C   UNL     1      34.581 -16.750 -23.122  0.00  0.00    +0.053 C 
ATOM     21  C   UNL     1      34.087 -15.506 -23.552  0.00  0.00    +0.026 C 
ATOM     22  C   UNL     1      34.043 -14.351 -22.595  0.00  0.00    +0.040 C 
ATOM     23  C   UNL     1      33.744 -14.855 -21.199  0.00  0.00    +0.090 C 
ATOM     24  C   UNL     1      34.694 -15.956 -20.776  0.00  0.00    +0.230 C 
ATOM     25  C   UNL     1      34.688 -17.789 -24.061  0.00  0.00    +0.015 C 
ATOM     26  C   UNL     1      33.717 -15.315 -24.891  0.00  0.00    +0.136 C 
ATOM     27  C   UNL     1      34.304 -17.596 -25.390  0.00  0.00    +0.004 C 
ATOM     28  C   UNL     1      33.819 -16.360 -25.805  0.00  0.00    +0.037 C 
BRANCH  26  29
ATOM     29  O   UNL     1      33.240 -14.114 -25.329  0.00  0.00    -0.472 OA
ATOM     30  C   UNL     1      33.142 -13.932 -26.740  0.00  0.00    +0.252 C 
ENDBRANCH  26  29
ENDBRANCH  17  19
ENDBRANCH  16  17
ENDBRANCH   1  16
TORSDOF 6
ENDMDL
MODEL 7
REMARK VINA RESULT:     -10.6      3.377      5.965
REMARK  Name = 9892540
REMARK  6 active torsions:
REMARK  status: ('A' for Active; 'I' for Inactive)
REMARK    1  A    between atoms: C_1  and  N_2
REMARK    2  A    between atoms: C_1  and  C_16
REMARK    3  A    between atoms: N_3  and  C_10
REMARK    4  A    between atoms: C_16  and  C_17
REMARK    5  A    between atoms: C_17  and  N_19
REMARK    6  A    between atoms: C_26  and  O_29
REMARK                            x       y       z     vdW  Elec       q    Type
REMARK                         _______ _______ _______ _____ _____    ______ ____
ROOT
ATOM      1  C   UNL     1      35.115 -20.216 -21.493  0.00  0.00    -0.075 C 
ENDROOT
BRANCH   1   2
ATOM      2  N   UNL     1      35.319 -21.191 -20.421  0.00  0.00    +0.389 N 
ATOM      3  N   UNL     1      35.430 -22.107 -17.718  0.00  0.00    -0.312 N 
ATOM      4  C   UNL     1      36.409 -20.762 -19.536  0.00  0.00    -0.055 C 
ATOM      5  C   UNL     1      34.086 -21.366 -19.644  0.00  0.00    -0.055 C 
ATOM      6  C   UNL     1      36.669 -21.801 -18.443  0.00  0.00    +0.068 C 
ATOM      7  C   UNL     1      34.269 -22.425 -18.553  0.00  0.00    +0.068 C 
ATOM      8  H   UNL     1      35.570 -22.084 -20.845  0.00  0.00    -0.080 HD
BRANCH   3  10
ATOM      9 CL   UNL     1      33.113 -24.346 -13.705  0.00  0.00    -0.082 Cl
ATOM     10  C   UNL     1      35.538 -22.664 -16.438  0.00  0.00    +0.049 C 
ATOM     11  C   UNL     1      34.406 -23.174 -15.771  0.00  0.00    +0.026 C 
ATOM     12  C   UNL     1      36.780 -22.731 -15.777  0.00  0.00    +0.015 C 
ATOM     13  C   UNL     1      34.512 -23.729 -14.497  0.00  0.00    +0.059 C 
ATOM     14  C   UNL     1      36.888 -23.286 -14.502  0.00  0.00    +0.002 C 
ATOM     15  C   UNL     1      35.754 -23.786 -13.862  0.00  0.00    +0.011 C 
ENDBRANCH   3  10
ENDBRANCH   1   2
BRANCH   1  16
ATOM     16  C   UNL     1      34.738 -18.836 -20.947  0.00  0.00    -0.001 C 
BRANCH  16  17
ATOM     17  C   UNL     1      35.626 -17.697 -21.443  0.00  0.00    +0.096 C 
BRANCH  17  19
ATOM     18  O   UNL     1      34.942 -15.601 -19.679  0.00  0.00    -0.275 OA
ATOM     19  N   UNL     1      34.859 -16.515 -21.824  0.00  0.00    -0.259 N 
ATOM     20  C   UNL     1      34.453 -16.362 -23.191  0.00  0.00    +0.053 C 
ATOM     21  C   UNL     1      33.933 -15.129 -23.623  0.00  0.00    +0.026 C 
ATOM     22  C   UNL     1      33.864 -13.974 -22.668  0.00  0.00    +0.040 C 
ATOM     23  C   UNL     1      33.575 -14.482 -21.271  0.00  0.00    +0.090 C 
ATOM     24  C   UNL     1      34.549 -15.561 -20.847  0.00  0.00    +0.230 C 
ATOM     25  C   UNL     1      34.583 -17.399 -24.128  0.00  0.00    +0.015 C 
ATOM     26  C   UNL     1      33.559 -14.949 -24.963  0.00  0.00    +0.136 C 
ATOM     27  C   UNL     1      34.195 -17.217 -25.457  0.00  0.00    +0.004 C 
ATOM     28  C   UNL     1      33.683 -15.992 -25.875  0.00  0.00    +0.037 C 
BRANCH  26  29
ATOM     29  O   UNL     1      33.057 -13.759 -25.402  0.00  0.00    -0.472 OA
ATOM     30  C   UNL     1      33.148 -13.495 -26.801  0.00  0.00    +0.252 C 
ENDBRANCH  26  29
ENDBRANCH  17  19
ENDBRANCH  16  17
ENDBRANCH   1  16
TORSDOF 6
ENDMDL
MODEL 8
REMARK VINA RESULT:     -10.4      4.884     10.795
REMARK  Name = 9892540
REMARK  6 active torsions:
REMARK  status: ('A' for Active; 'I' for Inactive)
REMARK    1  A    between atoms: C_1  and  N_2
REMARK    2  A    between atoms: C_1  and  C_16
REMARK    3  A    between atoms: N_3  and  C_10
REMARK    4  A    between atoms: C_16  and  C_17
REMARK    5  A    between atoms: C_17  and  N_19
REMARK    6  A    between atoms: C_26  and  O_29
REMARK                            x       y       z     vdW  Elec       q    Type
REMARK                         _______ _______ _______ _____ _____    ______ ____
ROOT
ATOM      1  C   UNL     1      33.960 -11.457 -23.671  0.00  0.00    -0.075 C 
ENDROOT
BRANCH   1   2
ATOM      2  N   UNL     1      33.423 -10.159 -24.079  0.00  0.00    +0.389 N 
ATOM      3  N   UNL     1      32.601  -7.447 -23.717  0.00  0.00    -0.312 N 
ATOM      4  C   UNL     1      32.202  -9.848 -23.326  0.00  0.00    -0.055 C 
ATOM      5  C   UNL     1      34.419  -9.102 -23.872  0.00  0.00    -0.055 C 
ATOM      6  C   UNL     1      31.598  -8.518 -23.784  0.00  0.00    +0.068 C 
ATOM      7  C   UNL     1      33.890  -7.746 -24.347  0.00  0.00    +0.068 C 
ATOM      8  H   UNL     1      33.195 -10.206 -25.072  0.00  0.00    -0.080 HD
BRANCH   3  10
ATOM      9 CL   UNL     1      32.077  -2.885 -26.038  0.00  0.00    -0.082 Cl
ATOM     10  C   UNL     1      32.147  -6.125 -23.656  0.00  0.00    +0.049 C 
ATOM     11  C   UNL     1      32.314  -5.250 -24.748  0.00  0.00    +0.026 C 
ATOM     12  C   UNL     1      31.512  -5.627 -22.501  0.00  0.00    +0.015 C 
ATOM     13  C   UNL     1      31.861  -3.933 -24.689  0.00  0.00    +0.059 C 
ATOM     14  C   UNL     1      31.060  -4.309 -22.441  0.00  0.00    +0.002 C 
ATOM     15  C   UNL     1      31.233  -3.462 -23.535  0.00  0.00    +0.011 C 
ENDBRANCH   3  10
ENDBRANCH   1   2
BRANCH   1  16
ATOM     16  C   UNL     1      33.851 -12.498 -24.790  0.00  0.00    -0.001 C 
BRANCH  16  17
ATOM     17  C   UNL     1      32.843 -13.613 -24.519  0.00  0.00    +0.096 C 
BRANCH  17  19
ATOM     18  O   UNL     1      33.491 -15.327 -26.668  0.00  0.00    -0.275 OA
ATOM     19  N   UNL     1      33.478 -14.918 -24.370  0.00  0.00    -0.259 N 
ATOM     20  C   UNL     1      33.852 -15.363 -23.059  0.00  0.00    +0.053 C 
ATOM     21  C   UNL     1      34.676 -16.494 -22.922  0.00  0.00    +0.026 C 
ATOM     22  C   UNL     1      35.203 -17.184 -24.145  0.00  0.00    +0.040 C 
ATOM     23  C   UNL     1      34.175 -17.114 -25.254  0.00  0.00    +0.090 C 
ATOM     24  C   UNL     1      33.714 -15.694 -25.512  0.00  0.00    +0.230 C 
ATOM     25  C   UNL     1      33.441 -14.688 -21.898  0.00  0.00    +0.015 C 
ATOM     26  C   UNL     1      35.078 -16.926 -21.650  0.00  0.00    +0.136 C 
ATOM     27  C   UNL     1      33.834 -15.134 -20.634  0.00  0.00    +0.004 C 
ATOM     28  C   UNL     1      34.652 -16.253 -20.509  0.00  0.00    +0.037 C 
BRANCH  26  29
ATOM     29  O   UNL     1      35.882 -18.018 -21.496  0.00  0.00    -0.472 OA
ATOM     30  C   UNL     1      35.246 -19.245 -21.141  0.00  0.00    +0.252 C 
ENDBRANCH  26  29
ENDBRANCH  17  19
ENDBRANCH  16  17
ENDBRANCH   1  16
TORSDOF 6
ENDMDL
MODEL 9
REMARK VINA RESULT:     -10.4      3.745      6.594
REMARK  Name = 9892540
REMARK  6 active torsions:
REMARK  status: ('A' for Active; 'I' for Inactive)
REMARK    1  A    between atoms: C_1  and  N_2
REMARK    2  A    between atoms: C_1  and  C_16
REMARK    3  A    between atoms: N_3  and  C_10
REMARK    4  A    between atoms: C_16  and  C_17
REMARK    5  A    between atoms: C_17  and  N_19
REMARK    6  A    between atoms: C_26  and  O_29
REMARK                            x       y       z     vdW  Elec       q    Type
REMARK                         _______ _______ _______ _____ _____    ______ ____
ROOT
ATOM      1  C   UNL     1      35.744 -21.052 -20.561  0.00  0.00    -0.075 C 
ENDROOT
BRANCH   1   2
ATOM      2  N   UNL     1      35.588 -21.269 -19.122  0.00  0.00    +0.389 N 
ATOM      3  N   UNL     1      35.770 -22.721 -16.669  0.00  0.00    -0.312 N 
ATOM      4  C   UNL     1      34.700 -22.410 -18.867  0.00  0.00    -0.055 C 
ATOM      5  C   UNL     1      36.892 -21.502 -18.492  0.00  0.00    -0.055 C 
ATOM      6  C   UNL     1      34.483 -22.612 -17.366  0.00  0.00    +0.068 C 
ATOM      7  C   UNL     1      36.749 -21.675 -16.977  0.00  0.00    +0.068 C 
ATOM      8  H   UNL     1      35.171 -20.431 -18.717  0.00  0.00    -0.080 HD
BRANCH   3  10
ATOM      9 CL   UNL     1      38.515 -24.876 -12.887  0.00  0.00    -0.082 Cl
ATOM     10  C   UNL     1      35.789 -23.341 -15.415  0.00  0.00    +0.049 C 
ATOM     11  C   UNL     1      37.001 -23.759 -14.830  0.00  0.00    +0.026 C 
ATOM     12  C   UNL     1      34.597 -23.566 -14.698  0.00  0.00    +0.015 C 
ATOM     13  C   UNL     1      37.021 -24.376 -13.579  0.00  0.00    +0.059 C 
ATOM     14  C   UNL     1      34.615 -24.183 -13.448  0.00  0.00    +0.002 C 
ATOM     15  C   UNL     1      35.827 -24.587 -12.887  0.00  0.00    +0.011 C 
ENDBRANCH   3  10
ENDBRANCH   1   2
BRANCH   1  16
ATOM     16  C   UNL     1      35.665 -19.568 -20.927  0.00  0.00    -0.001 C 
BRANCH  16  17
ATOM     17  C   UNL     1      34.325 -19.133 -21.518  0.00  0.00    +0.096 C 
BRANCH  17  19
ATOM     18  O   UNL     1      34.643 -19.782 -24.248  0.00  0.00    -0.275 OA
ATOM     19  N   UNL     1      34.477 -18.151 -22.587  0.00  0.00    -0.259 N 
ATOM     20  C   UNL     1      34.418 -16.756 -22.262  0.00  0.00    +0.053 C 
ATOM     21  C   UNL     1      34.318 -15.809 -23.296  0.00  0.00    +0.026 C 
ATOM     22  C   UNL     1      34.214 -16.270 -24.720  0.00  0.00    +0.040 C 
ATOM     23  C   UNL     1      35.030 -17.531 -24.910  0.00  0.00    +0.090 C 
ATOM     24  C   UNL     1      34.668 -18.599 -23.900  0.00  0.00    +0.230 C 
ATOM     25  C   UNL     1      34.430 -16.299 -20.934  0.00  0.00    +0.015 C 
ATOM     26  C   UNL     1      34.227 -14.442 -22.998  0.00  0.00    +0.136 C 
ATOM     27  C   UNL     1      34.354 -14.935 -20.645  0.00  0.00    +0.004 C 
ATOM     28  C   UNL     1      34.253 -14.006 -21.677  0.00  0.00    +0.037 C 
BRANCH  26  29
ATOM     29  O   UNL     1      34.124 -13.508 -23.987  0.00  0.00    -0.472 OA
ATOM     30  C   UNL     1      33.467 -12.286 -23.658  0.00  0.00    +0.252 C 
ENDBRANCH  26  29
ENDBRANCH  17  19
ENDBRANCH  16  17
ENDBRANCH   1  16
TORSDOF 6
ENDMDL
