MODEL 1
REMARK VINA RESULT:      -8.6      0.000      0.000
REMARK  Name = 15942662
REMARK  2 active torsions:
REMARK  status: ('A' for Active; 'I' for Inactive)
REMARK    1  A    between atoms: C_6  and  C_13
REMARK    2  A    between atoms: C_18  and  O_19
REMARK                            x       y       z     vdW  Elec       q    Type
REMARK                         _______ _______ _______ _____ _____    ______ ____
ROOT
ATOM      1  O   UNL     1      33.479 -18.454 -22.831  0.00  0.00    -0.356 OA
ATOM      2  C   UNL     1      35.585 -17.292 -23.496  0.00  0.00    +0.030 C 
ATOM      3  C   UNL     1      34.667 -17.037 -21.204  0.00  0.00    +0.050 C 
ATOM      4  C   UNL     1      34.601 -18.481 -23.728  0.00  0.00    +0.093 C 
ATOM      5  C   UNL     1      35.960 -17.220 -22.011  0.00  0.00    +0.009 C 
ATOM      6  C   UNL     1      33.713 -18.236 -21.429  0.00  0.00    +0.141 C 
ATOM      7  C   UNL     1      35.049 -15.894 -23.896  0.00  0.00    +0.028 C 
ATOM      8  C   UNL     1      33.961 -15.756 -21.646  0.00  0.00    -0.046 C 
ATOM      9  C   UNL     1      34.146 -15.255 -22.880  0.00  0.00    -0.034 C 
ATOM     10  C   UNL     1      33.982 -18.440 -25.138  0.00  0.00    +0.030 C 
ATOM     11  C   UNL     1      35.340 -19.829 -23.621  0.00  0.00    +0.030 C 
ATOM     12  C   UNL     1      33.071 -15.083 -20.642  0.00  0.00    +0.026 C 
ENDROOT
BRANCH   6  13
ATOM     13  C   UNL     1      33.987 -19.543 -20.698  0.00  0.00    +0.005 C 
ATOM     14  C   UNL     1      32.923 -20.330 -20.260  0.00  0.00    +0.001 C 
ATOM     15  C   UNL     1      35.300 -19.951 -20.469  0.00  0.00    +0.001 C 
ATOM     16  C   UNL     1      33.174 -21.528 -19.590  0.00  0.00    +0.036 C 
ATOM     17  C   UNL     1      35.550 -21.148 -19.799  0.00  0.00    +0.036 C 
ATOM     18  C   UNL     1      34.487 -21.937 -19.360  0.00  0.00    +0.134 C 
BRANCH  18  19
ATOM     19  O   UNL     1      34.731 -23.106 -18.706  0.00  0.00    -0.506 OA
ATOM     20  H   UNL     1      34.253 -23.878 -18.934  0.00  0.00    +0.292 HD
ENDBRANCH  18  19
ENDBRANCH   6  13
TORSDOF 2
ENDMDL
MODEL 2
REMARK VINA RESULT:      -8.1      3.522      7.571
REMARK  Name = 15942662
REMARK  2 active torsions:
REMARK  status: ('A' for Active; 'I' for Inactive)
REMARK    1  A    between atoms: C_6  and  C_13
REMARK    2  A    between atoms: C_18  and  O_19
REMARK                            x       y       z     vdW  Elec       q    Type
REMARK                         _______ _______ _______ _____ _____    ______ ____
ROOT
ATOM      1  O   UNL     1      32.267 -14.954 -22.302  0.00  0.00    -0.356 OA
ATOM      2  C   UNL     1      34.200 -15.672 -20.896  0.00  0.00    +0.030 C 
ATOM      3  C   UNL     1      34.554 -14.851 -23.212  0.00  0.00    +0.050 C 
ATOM      4  C   UNL     1      32.738 -15.128 -20.955  0.00  0.00    +0.093 C 
ATOM      5  C   UNL     1      35.105 -14.806 -21.780  0.00  0.00    +0.009 C 
ATOM      6  C   UNL     1      33.112 -14.286 -23.255  0.00  0.00    +0.141 C 
ATOM      7  C   UNL     1      34.385 -17.140 -21.358  0.00  0.00    +0.028 C 
ATOM      8  C   UNL     1      34.532 -16.295 -23.710  0.00  0.00    -0.046 C 
ATOM      9  C   UNL     1      34.450 -17.323 -22.848  0.00  0.00    -0.034 C 
ATOM     10  C   UNL     1      31.740 -16.107 -20.310  0.00  0.00    +0.030 C 
ATOM     11  C   UNL     1      32.616 -13.807 -20.170  0.00  0.00    +0.030 C 
ATOM     12  C   UNL     1      34.621 -16.509 -25.194  0.00  0.00    +0.026 C 
ENDROOT
BRANCH   6  13
ATOM     13  C   UNL     1      32.910 -12.777 -23.221  0.00  0.00    +0.005 C 
ATOM     14  C   UNL     1      33.758 -11.947 -23.953  0.00  0.00    +0.001 C 
ATOM     15  C   UNL     1      31.879 -12.230 -22.460  0.00  0.00    +0.001 C 
ATOM     16  C   UNL     1      33.573 -10.564 -23.923  0.00  0.00    +0.036 C 
ATOM     17  C   UNL     1      31.695 -10.847 -22.429  0.00  0.00    +0.036 C 
ATOM     18  C   UNL     1      32.542 -10.015 -23.161  0.00  0.00    +0.134 C 
BRANCH  18  19
ATOM     19  O   UNL     1      32.363  -8.666 -23.131  0.00  0.00    -0.506 OA
ATOM     20  H   UNL     1      31.497  -8.309 -23.131  0.00  0.00    +0.292 HD
ENDBRANCH  18  19
ENDBRANCH   6  13
TORSDOF 2
ENDMDL
MODEL 3
REMARK VINA RESULT:      -8.1      9.600     12.509
REMARK  Name = 15942662
REMARK  2 active torsions:
REMARK  status: ('A' for Active; 'I' for Inactive)
REMARK    1  A    between atoms: C_6  and  C_13
REMARK    2  A    between atoms: C_18  and  O_19
REMARK                            x       y       z     vdW  Elec       q    Type
REMARK                         _______ _______ _______ _____ _____    ______ ____
ROOT
ATOM      1  O   UNL     1      32.435  -5.328 -22.467  0.00  0.00    -0.356 OA
ATOM      2  C   UNL     1      30.786  -5.223 -24.337  0.00  0.00    +0.030 C 
ATOM      3  C   UNL     1      32.587  -6.932 -24.330  0.00  0.00    +0.050 C 
ATOM      4  C   UNL     1      31.111  -4.914 -22.842  0.00  0.00    +0.093 C 
ATOM      5  C   UNL     1      31.101  -6.693 -24.636  0.00  0.00    +0.009 C 
ATOM      6  C   UNL     1      32.886  -6.642 -22.838  0.00  0.00    +0.141 C 
ATOM      7  C   UNL     1      31.558  -4.374 -25.378  0.00  0.00    +0.028 C 
ATOM      8  C   UNL     1      33.445  -6.009 -25.193  0.00  0.00    -0.046 C 
ATOM      9  C   UNL     1      32.958  -4.845 -25.657  0.00  0.00    -0.034 C 
ATOM     10  C   UNL     1      31.072  -3.402 -22.553  0.00  0.00    +0.030 C 
ATOM     11  C   UNL     1      30.065  -5.558 -21.912  0.00  0.00    +0.030 C 
ATOM     12  C   UNL     1      34.840  -6.466 -25.507  0.00  0.00    +0.026 C 
ENDROOT
BRANCH   6  13
ATOM     13  C   UNL     1      32.501  -7.681 -21.794  0.00  0.00    +0.005 C 
ATOM     14  C   UNL     1      32.088  -8.951 -22.197  0.00  0.00    +0.001 C 
ATOM     15  C   UNL     1      32.562  -7.362 -20.439  0.00  0.00    +0.001 C 
ATOM     16  C   UNL     1      31.735  -9.903 -21.240  0.00  0.00    +0.036 C 
ATOM     17  C   UNL     1      32.208  -8.314 -19.483  0.00  0.00    +0.036 C 
ATOM     18  C   UNL     1      31.795  -9.585 -19.884  0.00  0.00    +0.134 C 
BRANCH  18  19
ATOM     19  O   UNL     1      31.450 -10.515 -18.951  0.00  0.00    -0.506 OA
ATOM     20  H   UNL     1      31.242 -11.389 -19.217  0.00  0.00    +0.292 HD
ENDBRANCH  18  19
ENDBRANCH   6  13
TORSDOF 2
ENDMDL
MODEL 4
REMARK VINA RESULT:      -8.1      7.223      9.786
REMARK  Name = 15942662
REMARK  2 active torsions:
REMARK  status: ('A' for Active; 'I' for Inactive)
REMARK    1  A    between atoms: C_6  and  C_13
REMARK    2  A    between atoms: C_18  and  O_19
REMARK                            x       y       z     vdW  Elec       q    Type
REMARK                         _______ _______ _______ _____ _____    ______ ____
ROOT
ATOM      1  O   UNL     1      34.815 -22.595 -14.635  0.00  0.00    -0.356 OA
ATOM      2  C   UNL     1      36.330 -24.391 -15.475  0.00  0.00    +0.030 C 
ATOM      3  C   UNL     1      35.067 -24.687 -13.358  0.00  0.00    +0.050 C 
ATOM      4  C   UNL     1      35.437 -23.154 -15.803  0.00  0.00    +0.093 C 
ATOM      5  C   UNL     1      35.527 -25.396 -14.640  0.00  0.00    +0.009 C 
ATOM      6  C   UNL     1      34.164 -23.476 -13.703  0.00  0.00    +0.141 C 
ATOM      7  C   UNL     1      37.630 -24.087 -14.689  0.00  0.00    +0.028 C 
ATOM      8  C   UNL     1      36.284 -24.188 -12.581  0.00  0.00    -0.046 C 
ATOM      9  C   UNL     1      37.442 -23.916 -13.208  0.00  0.00    -0.034 C 
ATOM     10  C   UNL     1      36.262 -22.000 -16.403  0.00  0.00    +0.030 C 
ATOM     11  C   UNL     1      34.371 -23.515 -16.856  0.00  0.00    +0.030 C 
ATOM     12  C   UNL     1      36.131 -24.032 -11.096  0.00  0.00    +0.026 C 
ENDROOT
BRANCH   6  13
ATOM     13  C   UNL     1      32.712 -23.725 -14.089  0.00  0.00    +0.005 C 
ATOM     14  C   UNL     1      32.151 -24.987 -13.900  0.00  0.00    +0.001 C 
ATOM     15  C   UNL     1      31.949 -22.692 -14.629  0.00  0.00    +0.001 C 
ATOM     16  C   UNL     1      30.821 -25.216 -14.254  0.00  0.00    +0.036 C 
ATOM     17  C   UNL     1      30.619 -22.922 -14.983  0.00  0.00    +0.036 C 
ATOM     18  C   UNL     1      30.055 -24.184 -14.795  0.00  0.00    +0.134 C 
BRANCH  18  19
ATOM     19  O   UNL     1      28.758 -24.408 -15.140  0.00  0.00    -0.506 OA
ATOM     20  H   UNL     1      28.217 -24.951 -14.601  0.00  0.00    +0.292 HD
ENDBRANCH  18  19
ENDBRANCH   6  13
TORSDOF 2
ENDMDL
MODEL 5
REMARK VINA RESULT:      -7.9      4.003      7.763
REMARK  Name = 15942662
REMARK  2 active torsions:
REMARK  status: ('A' for Active; 'I' for Inactive)
REMARK    1  A    between atoms: C_6  and  C_13
REMARK    2  A    between atoms: C_18  and  O_19
REMARK                            x       y       z     vdW  Elec       q    Type
REMARK                         _______ _______ _______ _____ _____    ______ ____
ROOT
ATOM      1  O   UNL     1      31.990 -14.514 -22.358  0.00  0.00    -0.356 OA
ATOM      2  C   UNL     1      34.319 -15.359 -22.060  0.00  0.00    +0.030 C 
ATOM      3  C   UNL     1      33.753 -13.842 -23.942  0.00  0.00    +0.050 C 
ATOM      4  C   UNL     1      32.942 -15.020 -21.408  0.00  0.00    +0.093 C 
ATOM      5  C   UNL     1      34.810 -14.157 -22.874  0.00  0.00    +0.009 C 
ATOM      6  C   UNL     1      32.400 -13.486 -23.276  0.00  0.00    +0.141 C 
ATOM      7  C   UNL     1      34.324 -16.583 -23.011  0.00  0.00    +0.028 C 
ATOM      8  C   UNL     1      33.553 -15.060 -24.842  0.00  0.00    -0.046 C 
ATOM      9  C   UNL     1      33.815 -16.301 -24.396  0.00  0.00    -0.034 C 
ATOM     10  C   UNL     1      32.274 -16.270 -20.806  0.00  0.00    +0.030 C 
ATOM     11  C   UNL     1      33.120 -14.023 -20.246  0.00  0.00    +0.030 C 
ATOM     12  C   UNL     1      33.068 -14.806 -26.241  0.00  0.00    +0.026 C 
ENDROOT
BRANCH   6  13
ATOM     13  C   UNL     1      32.215 -12.097 -22.680  0.00  0.00    +0.005 C 
ATOM     14  C   UNL     1      32.898 -11.011 -23.226  0.00  0.00    +0.001 C 
ATOM     15  C   UNL     1      31.364 -11.915 -21.592  0.00  0.00    +0.001 C 
ATOM     16  C   UNL     1      32.729  -9.738 -22.680  0.00  0.00    +0.036 C 
ATOM     17  C   UNL     1      31.196 -10.642 -21.046  0.00  0.00    +0.036 C 
ATOM     18  C   UNL     1      31.878  -9.554 -21.591  0.00  0.00    +0.134 C 
BRANCH  18  19
ATOM     19  O   UNL     1      31.713  -8.311 -21.059  0.00  0.00    -0.506 OA
ATOM     20  H   UNL     1      32.443  -7.867 -20.674  0.00  0.00    +0.292 HD
ENDBRANCH  18  19
ENDBRANCH   6  13
TORSDOF 2
ENDMDL
MODEL 6
REMARK VINA RESULT:      -7.8      3.249      5.614
REMARK  Name = 15942662
REMARK  2 active torsions:
REMARK  status: ('A' for Active; 'I' for Inactive)
REMARK    1  A    between atoms: C_6  and  C_13
REMARK    2  A    between atoms: C_18  and  O_19
REMARK                            x       y       z     vdW  Elec       q    Type
REMARK                         _______ _______ _______ _____ _____    ______ ____
ROOT
ATOM      1  O   UNL     1      34.142 -13.842 -22.055  0.00  0.00    -0.356 OA
ATOM      2  C   UNL     1      31.786 -13.107 -22.424  0.00  0.00    +0.030 C 
ATOM      3  C   UNL     1      33.370 -13.286 -24.327  0.00  0.00    +0.050 C 
ATOM      4  C   UNL     1      32.802 -13.896 -21.539  0.00  0.00    +0.093 C 
ATOM      5  C   UNL     1      31.924 -13.553 -23.884  0.00  0.00    +0.009 C 
ATOM      6  C   UNL     1      34.361 -14.094 -23.454  0.00  0.00    +0.141 C 
ATOM      7  C   UNL     1      31.940 -11.565 -22.404  0.00  0.00    +0.028 C 
ATOM      8  C   UNL     1      33.686 -11.799 -24.183  0.00  0.00    -0.046 C 
ATOM      9  C   UNL     1      33.026 -11.033 -23.297  0.00  0.00    -0.034 C 
ATOM     10  C   UNL     1      32.899 -13.306 -20.120  0.00  0.00    +0.030 C 
ATOM     11  C   UNL     1      32.353 -15.361 -21.368  0.00  0.00    +0.030 C 
ATOM     12  C   UNL     1      34.750 -11.234 -25.080  0.00  0.00    +0.026 C 
ENDROOT
BRANCH   6  13
ATOM     13  C   UNL     1      34.547 -15.580 -23.732  0.00  0.00    +0.005 C 
ATOM     14  C   UNL     1      34.077 -16.127 -24.925  0.00  0.00    +0.001 C 
ATOM     15  C   UNL     1      35.187 -16.389 -22.795  0.00  0.00    +0.001 C 
ATOM     16  C   UNL     1      34.247 -17.488 -25.181  0.00  0.00    +0.036 C 
ATOM     17  C   UNL     1      35.356 -17.750 -23.051  0.00  0.00    +0.036 C 
ATOM     18  C   UNL     1      34.887 -18.299 -24.244  0.00  0.00    +0.134 C 
BRANCH  18  19
ATOM     19  O   UNL     1      35.052 -19.627 -24.493  0.00  0.00    -0.506 OA
ATOM     20  H   UNL     1      35.226 -20.217 -23.787  0.00  0.00    +0.292 HD
ENDBRANCH  18  19
ENDBRANCH   6  13
TORSDOF 2
ENDMDL
MODEL 7
REMARK VINA RESULT:      -7.6      8.185     11.528
REMARK  Name = 15942662
REMARK  2 active torsions:
REMARK  status: ('A' for Active; 'I' for Inactive)
REMARK    1  A    between atoms: C_6  and  C_13
REMARK    2  A    between atoms: C_18  and  O_19
REMARK                            x       y       z     vdW  Elec       q    Type
REMARK                         _______ _______ _______ _____ _____    ______ ____
ROOT
ATOM      1  O   UNL     1      33.346  -6.978 -22.381  0.00  0.00    -0.356 OA
ATOM      2  C   UNL     1      30.911  -6.493 -22.129  0.00  0.00    +0.030 C 
ATOM      3  C   UNL     1      31.901  -6.873 -24.373  0.00  0.00    +0.050 C 
ATOM      4  C   UNL     1      32.223  -7.044 -21.487  0.00  0.00    +0.093 C 
ATOM      5  C   UNL     1      30.682  -7.167 -23.487  0.00  0.00    +0.009 C 
ATOM      6  C   UNL     1      33.189  -7.446 -23.733  0.00  0.00    +0.141 C 
ATOM      7  C   UNL     1      30.877  -4.963 -22.371  0.00  0.00    +0.028 C 
ATOM      8  C   UNL     1      32.063  -5.363 -24.539  0.00  0.00    -0.046 C 
ATOM      9  C   UNL     1      31.593  -4.510 -23.612  0.00  0.00    -0.034 C 
ATOM     10  C   UNL     1      32.646  -6.217 -20.259  0.00  0.00    +0.030 C 
ATOM     11  C   UNL     1      32.021  -8.488 -20.987  0.00  0.00    +0.030 C 
ATOM     12  C   UNL     1      32.753  -4.880 -25.783  0.00  0.00    +0.026 C 
ENDROOT
BRANCH   6  13
ATOM     13  C   UNL     1      33.466  -8.939 -23.844  0.00  0.00    +0.005 C 
ATOM     14  C   UNL     1      34.664  -9.383 -24.403  0.00  0.00    +0.001 C 
ATOM     15  C   UNL     1      32.523  -9.858 -23.387  0.00  0.00    +0.001 C 
ATOM     16  C   UNL     1      34.918 -10.751 -24.505  0.00  0.00    +0.036 C 
ATOM     17  C   UNL     1      32.778 -11.226 -23.490  0.00  0.00    +0.036 C 
ATOM     18  C   UNL     1      33.976 -11.672 -24.048  0.00  0.00    +0.134 C 
BRANCH  18  19
ATOM     19  O   UNL     1      34.225 -13.006 -24.149  0.00  0.00    -0.506 OA
ATOM     20  H   UNL     1      34.478 -13.493 -23.390  0.00  0.00    +0.292 HD
ENDBRANCH  18  19
ENDBRANCH   6  13
TORSDOF 2
ENDMDL
MODEL 8
REMARK VINA RESULT:      -7.4      6.282      9.284
REMARK  Name = 15942662
REMARK  2 active torsions:
REMARK  status: ('A' for Active; 'I' for Inactive)
REMARK    1  A    between atoms: C_6  and  C_13
REMARK    2  A    between atoms: C_18  and  O_19
REMARK                            x       y       z     vdW  Elec       q    Type
REMARK                         _______ _______ _______ _____ _____    ______ ____
ROOT
ATOM      1  O   UNL     1      33.087 -10.362 -21.971  0.00  0.00    -0.356 OA
ATOM      2  C   UNL     1      31.203  -8.788 -22.421  0.00  0.00    +0.030 C 
ATOM      3  C   UNL     1      33.141  -8.921 -23.968  0.00  0.00    +0.050 C 
ATOM      4  C   UNL     1      31.692 -10.105 -21.739  0.00  0.00    +0.093 C 
ATOM      5  C   UNL     1      31.612  -8.794 -23.899  0.00  0.00    +0.009 C 
ATOM      6  C   UNL     1      33.605 -10.242 -23.307  0.00  0.00    +0.141 C 
ATOM      7  C   UNL     1      31.749  -7.475 -21.805  0.00  0.00    +0.028 C 
ATOM      8  C   UNL     1      33.787  -7.749 -23.232  0.00  0.00    -0.046 C 
ATOM      9  C   UNL     1      33.137  -7.106 -22.246  0.00  0.00    -0.034 C 
ATOM     10  C   UNL     1      31.551 -10.038 -20.207  0.00  0.00    +0.030 C 
ATOM     11  C   UNL     1      30.842 -11.305 -22.200  0.00  0.00    +0.030 C 
ATOM     12  C   UNL     1      35.166  -7.343 -23.668  0.00  0.00    +0.026 C 
ENDROOT
BRANCH   6  13
ATOM     13  C   UNL     1      33.460 -11.545 -24.082  0.00  0.00    +0.005 C 
ATOM     14  C   UNL     1      33.536 -11.536 -25.475  0.00  0.00    +0.001 C 
ATOM     15  C   UNL     1      33.252 -12.742 -23.400  0.00  0.00    +0.001 C 
ATOM     16  C   UNL     1      33.403 -12.729 -26.185  0.00  0.00    +0.036 C 
ATOM     17  C   UNL     1      33.118 -13.934 -24.111  0.00  0.00    +0.036 C 
ATOM     18  C   UNL     1      33.194 -13.928 -25.504  0.00  0.00    +0.134 C 
BRANCH  18  19
ATOM     19  O   UNL     1      33.064 -15.092 -26.198  0.00  0.00    -0.506 OA
ATOM     20  H   UNL     1      33.236 -15.910 -25.775  0.00  0.00    +0.292 HD
ENDBRANCH  18  19
ENDBRANCH   6  13
TORSDOF 2
ENDMDL
MODEL 9
REMARK VINA RESULT:      -7.0      8.603     12.361
REMARK  Name = 15942662
REMARK  2 active torsions:
REMARK  status: ('A' for Active; 'I' for Inactive)
REMARK    1  A    between atoms: C_6  and  C_13
REMARK    2  A    between atoms: C_18  and  O_19
REMARK                            x       y       z     vdW  Elec       q    Type
REMARK                         _______ _______ _______ _____ _____    ______ ____
ROOT
ATOM      1  O   UNL     1      33.877  -8.799 -23.046  0.00  0.00    -0.356 OA
ATOM      2  C   UNL     1      31.620  -9.842 -22.824  0.00  0.00    +0.030 C 
ATOM      3  C   UNL     1      32.003  -7.489 -22.129  0.00  0.00    +0.050 C 
ATOM      4  C   UNL     1      33.004  -9.824 -23.547  0.00  0.00    +0.093 C 
ATOM      5  C   UNL     1      31.018  -8.432 -22.836  0.00  0.00    +0.009 C 
ATOM      6  C   UNL     1      33.361  -7.468 -22.873  0.00  0.00    +0.141 C 
ATOM      7  C   UNL     1      31.645 -10.311 -21.348  0.00  0.00    +0.028 C 
ATOM      8  C   UNL     1      32.233  -7.966 -20.697  0.00  0.00    -0.046 C 
ATOM      9  C   UNL     1      32.069  -9.258 -20.363  0.00  0.00    -0.034 C 
ATOM     10  C   UNL     1      33.774 -11.141 -23.332  0.00  0.00    +0.030 C 
ATOM     11  C   UNL     1      32.821  -9.675 -25.070  0.00  0.00    +0.030 C 
ATOM     12  C   UNL     1      32.634  -6.931 -19.686  0.00  0.00    +0.026 C 
ENDROOT
BRANCH   6  13
ATOM     13  C   UNL     1      33.490  -6.648 -24.150  0.00  0.00    +0.005 C 
ATOM     14  C   UNL     1      32.425  -5.855 -24.576  0.00  0.00    +0.001 C 
ATOM     15  C   UNL     1      34.670  -6.692 -24.890  0.00  0.00    +0.001 C 
ATOM     16  C   UNL     1      32.542  -5.104 -25.746  0.00  0.00    +0.036 C 
ATOM     17  C   UNL     1      34.786  -5.941 -26.060  0.00  0.00    +0.036 C 
ATOM     18  C   UNL     1      33.722  -5.147 -26.487  0.00  0.00    +0.134 C 
BRANCH  18  19
ATOM     19  O   UNL     1      33.836  -4.414 -27.629  0.00  0.00    -0.506 OA
ATOM     20  H   UNL     1      34.681  -4.142 -27.928  0.00  0.00    +0.292 HD
ENDBRANCH  18  19
ENDBRANCH   6  13
TORSDOF 2
ENDMDL
