MODEL 1
REMARK VINA RESULT:      -8.3      0.000      0.000
REMARK  Name = 96876
REMARK  2 active torsions:
REMARK  status: ('A' for Active; 'I' for Inactive)
REMARK    1  A    between atoms: C_8  and  S_10
REMARK    2  A    between atoms: S_10  and  N_13
REMARK                            x       y       z     vdW  Elec       q    Type
REMARK                         _______ _______ _______ _____ _____    ______ ____
ROOT
ATOM      1  C   UNL     1      36.082 -18.222 -22.292  0.00  0.00    +0.009 C 
ATOM      2  C   UNL     1      36.652 -19.088 -21.159  0.00  0.00    +0.026 C 
ATOM      3  C   UNL     1      34.617 -17.931 -21.933  0.00  0.00    +0.026 C 
ATOM      4  C   UNL     1      35.423 -19.805 -20.696  0.00  0.00    -0.025 C 
ATOM      5  C   UNL     1      34.267 -19.149 -21.136  0.00  0.00    -0.026 C 
ATOM      6  C   UNL     1      35.344 -20.936 -19.901  0.00  0.00    +0.015 C 
ATOM      7  C   UNL     1      33.009 -19.609 -20.790  0.00  0.00    -0.003 C 
ATOM      8  C   UNL     1      34.077 -21.416 -19.558  0.00  0.00    +0.121 C 
ATOM      9  C   UNL     1      32.919 -20.757 -19.999  0.00  0.00    +0.020 C 
ENDROOT
BRANCH   8  10
ATOM     10  S   UNL     1      33.933 -22.855 -18.578  0.00  0.00    +0.057 S 
ATOM     11  O   UNL     1      33.919 -24.012 -19.462  0.00  0.00    -0.153 OA
ATOM     12  O   UNL     1      34.909 -22.779 -17.501  0.00  0.00    -0.153 OA
BRANCH  10  13
ATOM     13  N   UNL     1      32.371 -22.644 -17.919  0.00  0.00    -0.203 NA
ATOM     14  H   UNL     1      31.811 -22.070 -18.549  0.00  0.00    +0.144 HD
ATOM     15  H   UNL     1      32.445 -22.183 -17.012  0.00  0.00    +0.144 HD
ENDBRANCH  10  13
ENDBRANCH   8  10
TORSDOF 2
ENDMDL
MODEL 2
REMARK VINA RESULT:      -8.1      1.220      2.226
REMARK  Name = 96876
REMARK  2 active torsions:
REMARK  status: ('A' for Active; 'I' for Inactive)
REMARK    1  A    between atoms: C_8  and  S_10
REMARK    2  A    between atoms: S_10  and  N_13
REMARK                            x       y       z     vdW  Elec       q    Type
REMARK                         _______ _______ _______ _____ _____    ______ ____
ROOT
ATOM      1  C   UNL     1      35.079 -17.818 -21.667  0.00  0.00    +0.009 C 
ATOM      2  C   UNL     1      33.883 -18.777 -21.578  0.00  0.00    +0.026 C 
ATOM      3  C   UNL     1      36.345 -18.673 -21.509  0.00  0.00    +0.026 C 
ATOM      4  C   UNL     1      34.437 -19.849 -20.695  0.00  0.00    -0.025 C 
ATOM      5  C   UNL     1      35.835 -19.791 -20.654  0.00  0.00    -0.026 C 
ATOM      6  C   UNL     1      33.743 -20.835 -20.012  0.00  0.00    +0.015 C 
ATOM      7  C   UNL     1      36.568 -20.715 -19.931  0.00  0.00    -0.003 C 
ATOM      8  C   UNL     1      34.475 -21.764 -19.269  0.00  0.00    +0.121 C 
ATOM      9  C   UNL     1      35.877 -21.705 -19.229  0.00  0.00    +0.020 C 
ENDROOT
BRANCH   8  10
ATOM     10  S   UNL     1      33.637 -23.008 -18.373  0.00  0.00    +0.057 S 
ATOM     11  O   UNL     1      32.323 -22.502 -18.006  0.00  0.00    -0.153 OA
ATOM     12  O   UNL     1      33.753 -24.261 -19.105  0.00  0.00    -0.153 OA
BRANCH  10  13
ATOM     13  N   UNL     1      34.604 -23.103 -16.968  0.00  0.00    -0.203 NA
ATOM     14  H   UNL     1      34.761 -24.082 -16.728  0.00  0.00    +0.144 HD
ATOM     15  H   UNL     1      34.129 -22.635 -16.196  0.00  0.00    +0.144 HD
ENDBRANCH  10  13
ENDBRANCH   8  10
TORSDOF 2
ENDMDL
MODEL 3
REMARK VINA RESULT:      -7.6      4.095      4.882
REMARK  Name = 96876
REMARK  2 active torsions:
REMARK  status: ('A' for Active; 'I' for Inactive)
REMARK    1  A    between atoms: C_8  and  S_10
REMARK    2  A    between atoms: S_10  and  N_13
REMARK                            x       y       z     vdW  Elec       q    Type
REMARK                         _______ _______ _______ _____ _____    ______ ____
ROOT
ATOM      1  C   UNL     1      35.414 -22.244 -17.926  0.00  0.00    +0.009 C 
ATOM      2  C   UNL     1      36.328 -21.700 -19.034  0.00  0.00    +0.026 C 
ATOM      3  C   UNL     1      34.011 -22.378 -18.536  0.00  0.00    +0.026 C 
ATOM      4  C   UNL     1      35.356 -20.911 -19.851  0.00  0.00    -0.025 C 
ATOM      5  C   UNL     1      34.039 -21.295 -19.568  0.00  0.00    -0.026 C 
ATOM      6  C   UNL     1      35.629 -19.950 -20.811  0.00  0.00    +0.015 C 
ATOM      7  C   UNL     1      32.970 -20.727 -20.238  0.00  0.00    -0.003 C 
ATOM      8  C   UNL     1      34.554 -19.363 -21.483  0.00  0.00    +0.121 C 
ATOM      9  C   UNL     1      33.235 -19.748 -21.199  0.00  0.00    +0.020 C 
ENDROOT
BRANCH   8  10
ATOM     10  S   UNL     1      34.854 -18.128 -22.683  0.00  0.00    +0.057 S 
ATOM     11  O   UNL     1      34.416 -18.630 -23.977  0.00  0.00    -0.153 OA
ATOM     12  O   UNL     1      34.334 -16.864 -22.182  0.00  0.00    -0.153 OA
BRANCH  10  13
ATOM     13  N   UNL     1      36.561 -18.065 -22.663  0.00  0.00    -0.203 NA
ATOM     14  H   UNL     1      36.907 -18.458 -21.788  0.00  0.00    +0.144 HD
ATOM     15  H   UNL     1      36.866 -17.095 -22.745  0.00  0.00    +0.144 HD
ENDBRANCH  10  13
ENDBRANCH   8  10
TORSDOF 2
ENDMDL
MODEL 4
REMARK VINA RESULT:      -7.3      4.501      5.439
REMARK  Name = 96876
REMARK  2 active torsions:
REMARK  status: ('A' for Active; 'I' for Inactive)
REMARK    1  A    between atoms: C_8  and  S_10
REMARK    2  A    between atoms: S_10  and  N_13
REMARK                            x       y       z     vdW  Elec       q    Type
REMARK                         _______ _______ _______ _____ _____    ______ ____
ROOT
ATOM      1  C   UNL     1      34.487 -22.356 -19.264  0.00  0.00    +0.009 C 
ATOM      2  C   UNL     1      33.453 -21.307 -19.696  0.00  0.00    +0.026 C 
ATOM      3  C   UNL     1      35.824 -21.618 -19.100  0.00  0.00    +0.026 C 
ATOM      4  C   UNL     1      34.318 -20.331 -20.428  0.00  0.00    -0.025 C 
ATOM      5  C   UNL     1      35.666 -20.507 -20.090  0.00  0.00    -0.026 C 
ATOM      6  C   UNL     1      33.926 -19.328 -21.299  0.00  0.00    +0.015 C 
ATOM      7  C   UNL     1      36.647 -19.685 -20.615  0.00  0.00    -0.003 C 
ATOM      8  C   UNL     1      34.912 -18.501 -21.842  0.00  0.00    +0.121 C 
ATOM      9  C   UNL     1      36.262 -18.679 -21.503  0.00  0.00    +0.020 C 
ENDROOT
BRANCH   8  10
ATOM     10  S   UNL     1      34.462 -17.240 -22.965  0.00  0.00    +0.057 S 
ATOM     11  O   UNL     1      34.072 -17.862 -24.222  0.00  0.00    -0.153 OA
ATOM     12  O   UNL     1      33.545 -16.331 -22.292  0.00  0.00    -0.153 OA
BRANCH  10  13
ATOM     13  N   UNL     1      35.960 -16.448 -23.181  0.00  0.00    -0.203 NA
ATOM     14  H   UNL     1      36.591 -17.051 -23.708  0.00  0.00    +0.144 HD
ATOM     15  H   UNL     1      36.369 -16.240 -22.270  0.00  0.00    +0.144 HD
ENDBRANCH  10  13
ENDBRANCH   8  10
TORSDOF 2
ENDMDL
MODEL 5
REMARK VINA RESULT:      -7.3      4.694      5.935
REMARK  Name = 96876
REMARK  2 active torsions:
REMARK  status: ('A' for Active; 'I' for Inactive)
REMARK    1  A    between atoms: C_8  and  S_10
REMARK    2  A    between atoms: S_10  and  N_13
REMARK                            x       y       z     vdW  Elec       q    Type
REMARK                         _______ _______ _______ _____ _____    ______ ____
ROOT
ATOM      1  C   UNL     1      33.166 -13.656 -25.685  0.00  0.00    +0.009 C 
ATOM      2  C   UNL     1      33.002 -13.873 -24.174  0.00  0.00    +0.026 C 
ATOM      3  C   UNL     1      33.226 -15.050 -26.328  0.00  0.00    +0.026 C 
ATOM      4  C   UNL     1      33.692 -15.187 -23.993  0.00  0.00    -0.025 C 
ATOM      5  C   UNL     1      33.820 -15.856 -25.216  0.00  0.00    -0.026 C 
ATOM      6  C   UNL     1      34.133 -15.764 -22.813  0.00  0.00    +0.015 C 
ATOM      7  C   UNL     1      34.391 -17.115 -25.285  0.00  0.00    -0.003 C 
ATOM      8  C   UNL     1      34.722 -17.029 -22.876  0.00  0.00    +0.121 C 
ATOM      9  C   UNL     1      34.850 -17.700 -24.103  0.00  0.00    +0.020 C 
ENDROOT
BRANCH   8  10
ATOM     10  S   UNL     1      35.314 -17.781 -21.414  0.00  0.00    +0.057 S 
ATOM     11  O   UNL     1      36.552 -18.480 -21.728  0.00  0.00    -0.153 OA
ATOM     12  O   UNL     1      35.291 -16.793 -20.346  0.00  0.00    -0.153 OA
BRANCH  10  13
ATOM     13  N   UNL     1      34.088 -18.934 -21.122  0.00  0.00    -0.203 NA
ATOM     14  H   UNL     1      33.269 -18.711 -21.688  0.00  0.00    +0.144 HD
ATOM     15  H   UNL     1      33.835 -18.918 -20.134  0.00  0.00    +0.144 HD
ENDBRANCH  10  13
ENDBRANCH   8  10
TORSDOF 2
ENDMDL
MODEL 6
REMARK VINA RESULT:      -7.2      5.819      7.029
REMARK  Name = 96876
REMARK  2 active torsions:
REMARK  status: ('A' for Active; 'I' for Inactive)
REMARK    1  A    between atoms: C_8  and  S_10
REMARK    2  A    between atoms: S_10  and  N_13
REMARK                            x       y       z     vdW  Elec       q    Type
REMARK                         _______ _______ _______ _____ _____    ______ ____
ROOT
ATOM      1  C   UNL     1      34.539 -23.083 -16.022  0.00  0.00    +0.009 C 
ATOM      2  C   UNL     1      33.476 -23.323 -17.104  0.00  0.00    +0.026 C 
ATOM      3  C   UNL     1      33.961 -23.623 -14.706  0.00  0.00    +0.026 C 
ATOM      4  C   UNL     1      32.220 -23.261 -16.295  0.00  0.00    -0.025 C 
ATOM      5  C   UNL     1      32.494 -23.431 -14.932  0.00  0.00    -0.026 C 
ATOM      6  C   UNL     1      30.919 -23.108 -16.747  0.00  0.00    +0.015 C 
ATOM      7  C   UNL     1      31.476 -23.451 -13.995  0.00  0.00    -0.003 C 
ATOM      8  C   UNL     1      29.887 -23.115 -15.807  0.00  0.00    +0.121 C 
ATOM      9  C   UNL     1      30.163 -23.286 -14.441  0.00  0.00    +0.020 C 
ENDROOT
BRANCH   8  10
ATOM     10  S   UNL     1      28.235 -22.900 -16.333  0.00  0.00    +0.057 S 
ATOM     11  O   UNL     1      27.376 -22.892 -15.158  0.00  0.00    -0.153 OA
ATOM     12  O   UNL     1      28.191 -21.785 -17.269  0.00  0.00    -0.153 OA
BRANCH  10  13
ATOM     13  N   UNL     1      27.977 -24.351 -17.196  0.00  0.00    -0.203 NA
ATOM     14  H   UNL     1      27.630 -25.069 -16.560  0.00  0.00    +0.144 HD
ATOM     15  H   UNL     1      28.856 -24.660 -17.611  0.00  0.00    +0.144 HD
ENDBRANCH  10  13
ENDBRANCH   8  10
TORSDOF 2
ENDMDL
MODEL 7
REMARK VINA RESULT:      -7.2      6.636      7.856
REMARK  Name = 96876
REMARK  2 active torsions:
REMARK  status: ('A' for Active; 'I' for Inactive)
REMARK    1  A    between atoms: C_8  and  S_10
REMARK    2  A    between atoms: S_10  and  N_13
REMARK                            x       y       z     vdW  Elec       q    Type
REMARK                         _______ _______ _______ _____ _____    ______ ____
ROOT
ATOM      1  C   UNL     1      32.254 -23.285 -15.904  0.00  0.00    +0.009 C 
ATOM      2  C   UNL     1      32.399 -24.120 -14.623  0.00  0.00    +0.026 C 
ATOM      3  C   UNL     1      33.631 -23.278 -16.585  0.00  0.00    +0.026 C 
ATOM      4  C   UNL     1      33.839 -23.893 -14.290  0.00  0.00    -0.025 C 
ATOM      5  C   UNL     1      34.539 -23.414 -15.404  0.00  0.00    -0.026 C 
ATOM      6  C   UNL     1      34.487 -24.139 -13.091  0.00  0.00    +0.015 C 
ATOM      7  C   UNL     1      35.900 -23.173 -15.343  0.00  0.00    -0.003 C 
ATOM      8  C   UNL     1      35.859 -23.886 -13.017  0.00  0.00    +0.121 C 
ATOM      9  C   UNL     1      36.560 -23.406 -14.134  0.00  0.00    +0.020 C 
ENDROOT
BRANCH   8  10
ATOM     10  S   UNL     1      36.709 -24.159 -11.515  0.00  0.00    +0.057 S 
ATOM     11  O   UNL     1      37.684 -25.219 -11.726  0.00  0.00    -0.153 OA
ATOM     12  O   UNL     1      37.141 -22.871 -10.990  0.00  0.00    -0.153 OA
BRANCH  10  13
ATOM     13  N   UNL     1      35.447 -24.757 -10.531  0.00  0.00    -0.203 NA
ATOM     14  H   UNL     1      34.801 -25.302 -11.101  0.00  0.00    +0.144 HD
ATOM     15  H   UNL     1      34.949 -23.975 -10.105  0.00  0.00    +0.144 HD
ENDBRANCH  10  13
ENDBRANCH   8  10
TORSDOF 2
ENDMDL
MODEL 8
REMARK VINA RESULT:      -7.1      3.447      4.772
REMARK  Name = 96876
REMARK  2 active torsions:
REMARK  status: ('A' for Active; 'I' for Inactive)
REMARK    1  A    between atoms: C_8  and  S_10
REMARK    2  A    between atoms: S_10  and  N_13
REMARK                            x       y       z     vdW  Elec       q    Type
REMARK                         _______ _______ _______ _____ _____    ______ ____
ROOT
ATOM      1  C   UNL     1      33.503 -21.200 -19.670  0.00  0.00    +0.009 C 
ATOM      2  C   UNL     1      33.300 -22.408 -18.744  0.00  0.00    +0.026 C 
ATOM      3  C   UNL     1      35.017 -21.064 -19.894  0.00  0.00    +0.026 C 
ATOM      4  C   UNL     1      34.575 -22.393 -17.963  0.00  0.00    -0.025 C 
ATOM      5  C   UNL     1      35.551 -21.629 -18.616  0.00  0.00    -0.026 C 
ATOM      6  C   UNL     1      34.858 -23.051 -16.778  0.00  0.00    +0.015 C 
ATOM      7  C   UNL     1      36.828 -21.508 -18.097  0.00  0.00    -0.003 C 
ATOM      8  C   UNL     1      36.142 -22.924 -16.241  0.00  0.00    +0.121 C 
ATOM      9  C   UNL     1      37.119 -22.158 -16.896  0.00  0.00    +0.020 C 
ENDROOT
BRANCH   8  10
ATOM     10  S   UNL     1      36.532 -23.717 -14.734  0.00  0.00    +0.057 S 
ATOM     11  O   UNL     1      37.615 -22.983 -14.096  0.00  0.00    -0.153 OA
ATOM     12  O   UNL     1      35.294 -23.959 -14.007  0.00  0.00    -0.153 OA
BRANCH  10  13
ATOM     13  N   UNL     1      37.136 -25.211 -15.301  0.00  0.00    -0.203 NA
ATOM     14  H   UNL     1      36.444 -25.650 -15.908  0.00  0.00    +0.144 HD
ATOM     15  H   UNL     1      37.329 -25.822 -14.507  0.00  0.00    +0.144 HD
ENDBRANCH  10  13
ENDBRANCH   8  10
TORSDOF 2
ENDMDL
MODEL 9
REMARK VINA RESULT:      -7.0      6.706      7.992
REMARK  Name = 96876
REMARK  2 active torsions:
REMARK  status: ('A' for Active; 'I' for Inactive)
REMARK    1  A    between atoms: C_8  and  S_10
REMARK    2  A    between atoms: S_10  and  N_13
REMARK                            x       y       z     vdW  Elec       q    Type
REMARK                         _______ _______ _______ _____ _____    ______ ____
ROOT
ATOM      1  C   UNL     1      33.765 -23.795 -14.035  0.00  0.00    +0.009 C 
ATOM      2  C   UNL     1      33.180 -23.181 -15.316  0.00  0.00    +0.026 C 
ATOM      3  C   UNL     1      32.902 -25.019 -13.696  0.00  0.00    +0.026 C 
ATOM      4  C   UNL     1      31.740 -23.567 -15.190  0.00  0.00    -0.025 C 
ATOM      5  C   UNL     1      31.582 -24.611 -14.270  0.00  0.00    -0.026 C 
ATOM      6  C   UNL     1      30.655 -23.053 -15.881  0.00  0.00    +0.015 C 
ATOM      7  C   UNL     1      30.337 -25.162 -14.022  0.00  0.00    -0.003 C 
ATOM      8  C   UNL     1      29.393 -23.595 -15.628  0.00  0.00    +0.121 C 
ATOM      9  C   UNL     1      29.235 -24.642 -14.705  0.00  0.00    +0.020 C 
ENDROOT
BRANCH   8  10
ATOM     10  S   UNL     1      27.995 -22.959 -16.460  0.00  0.00    +0.057 S 
ATOM     11  O   UNL     1      26.904 -22.846 -15.503  0.00  0.00    -0.153 OA
ATOM     12  O   UNL     1      28.407 -21.792 -17.228  0.00  0.00    -0.153 OA
BRANCH  10  13
ATOM     13  N   UNL     1      27.651 -24.235 -17.542  0.00  0.00    -0.203 NA
ATOM     14  H   UNL     1      27.696 -25.124 -17.045  0.00  0.00    +0.144 HD
ATOM     15  H   UNL     1      28.336 -24.233 -18.298  0.00  0.00    +0.144 HD
ENDBRANCH  10  13
ENDBRANCH   8  10
TORSDOF 2
ENDMDL
