MODEL 1
REMARK VINA RESULT:      -7.6      0.000      0.000
REMARK  Name = 6101
REMARK  1 active torsions:
REMARK  status: ('A' for Active; 'I' for Inactive)
REMARK    1  A    between atoms: C_1  and  S_8
REMARK                            x       y       z     vdW  Elec       q    Type
REMARK                         _______ _______ _______ _____ _____    ______ ____
ROOT
ATOM      1  C   UNL     1      34.193 -21.321 -19.618  0.00  0.00    +0.112 C 
ATOM      2  C   UNL     1      34.780 -19.160 -21.282  0.00  0.00    -0.022 C 
ATOM      3  C   UNL     1      33.159 -20.556 -20.159  0.00  0.00    +0.019 C 
ATOM      4  C   UNL     1      35.520 -21.005 -19.910  0.00  0.00    +0.019 C 
ATOM      5  C   UNL     1      33.453 -19.475 -20.991  0.00  0.00    -0.003 C 
ATOM      6  C   UNL     1      35.814 -19.925 -20.742  0.00  0.00    -0.003 C 
ATOM      7  C   UNL     1      35.094 -18.005 -22.174  0.00  0.00    +0.031 C 
ENDROOT
BRANCH   1   8
ATOM      8  S   UNL     1      33.826 -22.673 -18.578  0.00  0.00    +0.042 S 
ATOM      9  O   UNL     1      33.937 -23.995 -19.534  0.00  0.00    -0.065 OA
ATOM     10  O   UNL     1      34.887 -22.777 -17.584  0.00  0.00    -0.065 OA
ATOM     11  O   UNL     1      32.438 -22.527 -18.167  0.00  0.00    -0.065 OA
ENDBRANCH   1   8
TORSDOF 1
ENDMDL
MODEL 2
REMARK VINA RESULT:      -6.9      3.981      4.681
REMARK  Name = 6101
REMARK  1 active torsions:
REMARK  status: ('A' for Active; 'I' for Inactive)
REMARK    1  A    between atoms: C_1  and  S_8
REMARK                            x       y       z     vdW  Elec       q    Type
REMARK                         _______ _______ _______ _____ _____    ______ ____
ROOT
ATOM      1  C   UNL     1      34.937 -19.649 -20.914  0.00  0.00    +0.112 C 
ATOM      2  C   UNL     1      34.085 -21.747 -19.285  0.00  0.00    -0.022 C 
ATOM      3  C   UNL     1      33.574 -19.857 -20.701  0.00  0.00    +0.019 C 
ATOM      4  C   UNL     1      35.873 -20.490 -20.312  0.00  0.00    +0.019 C 
ATOM      5  C   UNL     1      33.148 -20.907 -19.886  0.00  0.00    -0.003 C 
ATOM      6  C   UNL     1      35.448 -21.539 -19.497  0.00  0.00    -0.003 C 
ATOM      7  C   UNL     1      33.628 -22.868 -18.411  0.00  0.00    +0.031 C 
ENDROOT
BRANCH   1   8
ATOM      8  S   UNL     1      35.471 -18.336 -21.933  0.00  0.00    +0.042 S 
ATOM      9  O   UNL     1      35.174 -16.977 -21.074  0.00  0.00    -0.065 OA
ATOM     10  O   UNL     1      36.916 -18.439 -22.079  0.00  0.00    -0.065 OA
ATOM     11  O   UNL     1      34.606 -18.329 -23.102  0.00  0.00    -0.065 OA
ENDBRANCH   1   8
TORSDOF 1
ENDMDL
MODEL 3
REMARK VINA RESULT:      -6.8      4.026      4.729
REMARK  Name = 6101
REMARK  1 active torsions:
REMARK  status: ('A' for Active; 'I' for Inactive)
REMARK    1  A    between atoms: C_1  and  S_8
REMARK                            x       y       z     vdW  Elec       q    Type
REMARK                         _______ _______ _______ _____ _____    ______ ____
ROOT
ATOM      1  C   UNL     1      34.679 -19.574 -21.200  0.00  0.00    +0.112 C 
ATOM      2  C   UNL     1      33.839 -21.511 -19.377  0.00  0.00    -0.022 C 
ATOM      3  C   UNL     1      33.320 -19.727 -20.921  0.00  0.00    +0.019 C 
ATOM      4  C   UNL     1      35.616 -20.390 -20.567  0.00  0.00    +0.019 C 
ATOM      5  C   UNL     1      32.901 -20.696 -20.009  0.00  0.00    -0.003 C 
ATOM      6  C   UNL     1      35.197 -21.359 -19.656  0.00  0.00    -0.003 C 
ATOM      7  C   UNL     1      33.389 -22.546 -18.400  0.00  0.00    +0.031 C 
ENDROOT
BRANCH   1   8
ATOM      8  S   UNL     1      35.204 -18.362 -22.341  0.00  0.00    +0.042 S 
ATOM      9  O   UNL     1      34.586 -18.830 -23.781  0.00  0.00    -0.065 OA
ATOM     10  O   UNL     1      34.558 -17.105 -21.991  0.00  0.00    -0.065 OA
ATOM     11  O   UNL     1      36.654 -18.455 -22.420  0.00  0.00    -0.065 OA
ENDBRANCH   1   8
TORSDOF 1
ENDMDL
MODEL 4
REMARK VINA RESULT:      -6.7      6.557      7.758
REMARK  Name = 6101
REMARK  1 active torsions:
REMARK  status: ('A' for Active; 'I' for Inactive)
REMARK    1  A    between atoms: C_1  and  S_8
REMARK                            x       y       z     vdW  Elec       q    Type
REMARK                         _______ _______ _______ _____ _____    ______ ____
ROOT
ATOM      1  C   UNL     1      29.540 -23.585 -15.802  0.00  0.00    +0.112 C 
ATOM      2  C   UNL     1      31.867 -24.266 -14.421  0.00  0.00    -0.022 C 
ATOM      3  C   UNL     1      30.722 -22.882 -16.038  0.00  0.00    +0.019 C 
ATOM      4  C   UNL     1      29.522 -24.628 -14.876  0.00  0.00    +0.019 C 
ATOM      5  C   UNL     1      31.886 -23.223 -15.347  0.00  0.00    -0.003 C 
ATOM      6  C   UNL     1      30.685 -24.968 -14.185  0.00  0.00    -0.003 C 
ATOM      7  C   UNL     1      33.112 -24.631 -13.684  0.00  0.00    +0.031 C 
ENDROOT
BRANCH   1   8
ATOM      8  S   UNL     1      28.085 -23.159 -16.666  0.00  0.00    +0.042 S 
ATOM      9  O   UNL     1      26.943 -22.958 -15.513  0.00  0.00    -0.065 OA
ATOM     10  O   UNL     1      28.295 -21.858 -17.286  0.00  0.00    -0.065 OA
ATOM     11  O   UNL     1      27.717 -24.313 -17.471  0.00  0.00    -0.065 OA
ENDBRANCH   1   8
TORSDOF 1
ENDMDL
MODEL 5
REMARK VINA RESULT:      -6.7      6.558      7.720
REMARK  Name = 6101
REMARK  1 active torsions:
REMARK  status: ('A' for Active; 'I' for Inactive)
REMARK    1  A    between atoms: C_1  and  S_8
REMARK                            x       y       z     vdW  Elec       q    Type
REMARK                         _______ _______ _______ _____ _____    ______ ____
ROOT
ATOM      1  C   UNL     1      29.536 -23.592 -15.810  0.00  0.00    +0.112 C 
ATOM      2  C   UNL     1      31.860 -24.283 -14.430  0.00  0.00    -0.022 C 
ATOM      3  C   UNL     1      29.514 -24.638 -14.887  0.00  0.00    +0.019 C 
ATOM      4  C   UNL     1      30.720 -22.892 -16.042  0.00  0.00    +0.019 C 
ATOM      5  C   UNL     1      30.676 -24.983 -14.197  0.00  0.00    -0.003 C 
ATOM      6  C   UNL     1      31.882 -23.237 -15.353  0.00  0.00    -0.003 C 
ATOM      7  C   UNL     1      33.102 -24.652 -13.690  0.00  0.00    +0.031 C 
ENDROOT
BRANCH   1   8
ATOM      8  S   UNL     1      28.082 -23.159 -16.674  0.00  0.00    +0.042 S 
ATOM      9  O   UNL     1      26.941 -22.957 -15.520  0.00  0.00    -0.065 OA
ATOM     10  O   UNL     1      28.297 -21.858 -17.291  0.00  0.00    -0.065 OA
ATOM     11  O   UNL     1      27.710 -24.311 -17.481  0.00  0.00    -0.065 OA
ENDBRANCH   1   8
TORSDOF 1
ENDMDL
MODEL 6
REMARK VINA RESULT:      -6.4      4.588      5.795
REMARK  Name = 6101
REMARK  1 active torsions:
REMARK  status: ('A' for Active; 'I' for Inactive)
REMARK    1  A    between atoms: C_1  and  S_8
REMARK                            x       y       z     vdW  Elec       q    Type
REMARK                         _______ _______ _______ _____ _____    ______ ____
ROOT
ATOM      1  C   UNL     1      34.682 -16.922 -22.872  0.00  0.00    +0.112 C 
ATOM      2  C   UNL     1      33.721 -15.629 -25.150  0.00  0.00    -0.022 C 
ATOM      3  C   UNL     1      34.804 -17.529 -24.122  0.00  0.00    +0.019 C 
ATOM      4  C   UNL     1      34.079 -15.669 -22.762  0.00  0.00    +0.019 C 
ATOM      5  C   UNL     1      34.323 -16.882 -25.262  0.00  0.00    -0.003 C 
ATOM      6  C   UNL     1      33.599 -15.022 -23.900  0.00  0.00    -0.003 C 
ATOM      7  C   UNL     1      33.210 -14.937 -26.369  0.00  0.00    +0.031 C 
ENDROOT
BRANCH   1   8
ATOM      8  S   UNL     1      35.282 -17.731 -21.447  0.00  0.00    +0.042 S 
ATOM      9  O   UNL     1      34.161 -18.867 -21.092  0.00  0.00    -0.065 OA
ATOM     10  O   UNL     1      36.502 -18.439 -21.812  0.00  0.00    -0.065 OA
ATOM     11  O   UNL     1      35.288 -16.750 -20.373  0.00  0.00    -0.065 OA
ENDBRANCH   1   8
TORSDOF 1
ENDMDL
MODEL 7
REMARK VINA RESULT:      -6.3      3.997      5.521
REMARK  Name = 6101
REMARK  1 active torsions:
REMARK  status: ('A' for Active; 'I' for Inactive)
REMARK    1  A    between atoms: C_1  and  S_8
REMARK                            x       y       z     vdW  Elec       q    Type
REMARK                         _______ _______ _______ _____ _____    ______ ____
ROOT
ATOM      1  C   UNL     1      33.313 -22.983 -17.435  0.00  0.00    +0.112 C 
ATOM      2  C   UNL     1      32.282 -23.338 -14.867  0.00  0.00    -0.022 C 
ATOM      3  C   UNL     1      31.936 -22.911 -17.220  0.00  0.00    +0.019 C 
ATOM      4  C   UNL     1      34.173 -23.232 -16.366  0.00  0.00    +0.019 C 
ATOM      5  C   UNL     1      31.421 -23.089 -15.935  0.00  0.00    -0.003 C 
ATOM      6  C   UNL     1      33.659 -23.410 -15.082  0.00  0.00    -0.003 C 
ATOM      7  C   UNL     1      31.731 -23.527 -13.493  0.00  0.00    +0.031 C 
ENDROOT
BRANCH   1   8
ATOM      8  S   UNL     1      33.957 -22.760 -19.042  0.00  0.00    +0.042 S 
ATOM      9  O   UNL     1      33.960 -24.250 -19.714  0.00  0.00    -0.065 OA
ATOM     10  O   UNL     1      33.009 -21.954 -19.799  0.00  0.00    -0.065 OA
ATOM     11  O   UNL     1      35.338 -22.330 -18.889  0.00  0.00    -0.065 OA
ENDBRANCH   1   8
TORSDOF 1
ENDMDL
MODEL 8
REMARK VINA RESULT:      -6.3      6.512      7.598
REMARK  Name = 6101
REMARK  1 active torsions:
REMARK  status: ('A' for Active; 'I' for Inactive)
REMARK    1  A    between atoms: C_1  and  S_8
REMARK                            x       y       z     vdW  Elec       q    Type
REMARK                         _______ _______ _______ _____ _____    ______ ____
ROOT
ATOM      1  C   UNL     1      35.682 -23.902 -12.927  0.00  0.00    +0.112 C 
ATOM      2  C   UNL     1      34.494 -23.441 -15.409  0.00  0.00    -0.022 C 
ATOM      3  C   UNL     1      34.341 -24.231 -13.131  0.00  0.00    +0.019 C 
ATOM      4  C   UNL     1      36.428 -23.343 -13.965  0.00  0.00    +0.019 C 
ATOM      5  C   UNL     1      33.748 -23.999 -14.372  0.00  0.00    -0.003 C 
ATOM      6  C   UNL     1      35.835 -23.112 -15.206  0.00  0.00    -0.003 C 
ATOM      7  C   UNL     1      33.859 -23.196 -16.737  0.00  0.00    +0.031 C 
ENDROOT
BRANCH   1   8
ATOM      8  S   UNL     1      36.425 -24.191 -11.375  0.00  0.00    +0.042 S 
ATOM      9  O   UNL     1      37.607 -25.284 -11.660  0.00  0.00    -0.065 OA
ATOM     10  O   UNL     1      37.079 -22.959 -10.953  0.00  0.00    -0.065 OA
ATOM     11  O   UNL     1      35.419 -24.821 -10.534  0.00  0.00    -0.065 OA
ENDBRANCH   1   8
TORSDOF 1
ENDMDL
MODEL 9
REMARK VINA RESULT:      -6.3      6.119      7.264
REMARK  Name = 6101
REMARK  1 active torsions:
REMARK  status: ('A' for Active; 'I' for Inactive)
REMARK    1  A    between atoms: C_1  and  S_8
REMARK                            x       y       z     vdW  Elec       q    Type
REMARK                         _______ _______ _______ _____ _____    ______ ____
ROOT
ATOM      1  C   UNL     1      36.429 -24.123 -13.495  0.00  0.00    +0.112 C 
ATOM      2  C   UNL     1      36.615 -22.766 -15.925  0.00  0.00    -0.022 C 
ATOM      3  C   UNL     1      35.314 -23.464 -14.013  0.00  0.00    +0.019 C 
ATOM      4  C   UNL     1      37.637 -24.103 -14.193  0.00  0.00    +0.019 C 
ATOM      5  C   UNL     1      35.408 -22.785 -15.228  0.00  0.00    -0.003 C 
ATOM      6  C   UNL     1      37.730 -23.425 -15.408  0.00  0.00    -0.003 C 
ATOM      7  C   UNL     1      36.714 -22.041 -17.226  0.00  0.00    +0.031 C 
ENDROOT
BRANCH   1   8
ATOM      8  S   UNL     1      36.313 -24.972 -11.975  0.00  0.00    +0.042 S 
ATOM      9  O   UNL     1      37.218 -24.103 -10.927  0.00  0.00    -0.065 OA
ATOM     10  O   UNL     1      34.933 -24.887 -11.516  0.00  0.00    -0.065 OA
ATOM     11  O   UNL     1      36.953 -26.265 -12.161  0.00  0.00    -0.065 OA
ENDBRANCH   1   8
TORSDOF 1
ENDMDL
