MODEL 1
REMARK VINA RESULT:      -8.4      0.000      0.000
REMARK  Name = 9901946
REMARK  8 active torsions:
REMARK  status: ('A' for Active; 'I' for Inactive)
REMARK    1  A    between atoms: O_1  and  C_2
REMARK    2  A    between atoms: O_1  and  C_12
REMARK    3  A    between atoms: C_2  and  C_3
REMARK    4  A    between atoms: C_3  and  C_4
REMARK    5  A    between atoms: C_4  and  N_5
REMARK    6  A    between atoms: C_6  and  O_10
REMARK    7  A    between atoms: C_12  and  C_13
REMARK    8  A    between atoms: C_13  and  C_15
REMARK                            x       y       z     vdW  Elec       q    Type
REMARK                         _______ _______ _______ _____ _____    ______ ____
ROOT
ATOM      1  O   UNL     1      34.769 -23.641 -16.262  0.00  0.00    -0.353 OA
ENDROOT
BRANCH   1   2
ATOM      2  C   UNL     1      35.209 -22.847 -15.168  0.00  0.00    +0.140 C 
BRANCH   2   3
ATOM      3  C   UNL     1      35.964 -23.734 -14.188  0.00  0.00    +0.009 C 
BRANCH   3   4
ATOM      4  C   UNL     1      36.062 -25.169 -14.693  0.00  0.00    -0.075 C 
BRANCH   4   5
ATOM      5  N   UNL     1      37.366 -25.403 -15.301  0.00  0.00    +0.390 N 
ATOM      6  C   UNL     1      39.340 -25.562 -14.592  0.00  0.00    +0.069 C 
ATOM      7  C   UNL     1      38.089 -26.452 -14.540  0.00  0.00    -0.050 C 
ATOM      8  C   UNL     1      38.341 -24.412 -14.786  0.00  0.00    -0.050 C 
ATOM      9  H   UNL     1      37.171 -25.499 -16.298  0.00  0.00    -0.080 HD
BRANCH   6  10
ATOM     10  O   UNL     1      40.254 -25.810 -15.704  0.00  0.00    -0.389 OA
ATOM     11  H   UNL     1      39.837 -26.413 -16.339  0.00  0.00    +0.210 HD
ENDBRANCH   6  10
ENDBRANCH   4   5
ENDBRANCH   3   4
ENDBRANCH   2   3
ENDBRANCH   1   2
BRANCH   1  12
ATOM     12  C   UNL     1      33.610 -23.090 -16.874  0.00  0.00    +0.147 C 
BRANCH  12  13
ATOM     13  C   UNL     1      33.680 -23.300 -18.389  0.00  0.00    +0.058 C 
BRANCH  13  15
ATOM     14  S   UNL     1      36.007 -18.631 -21.334  0.00  0.00    -0.086 S 
ATOM     15  C   UNL     1      34.312 -22.155 -19.107  0.00  0.00    -0.020 C 
ATOM     16  C   UNL     1      33.508 -21.224 -19.770  0.00  0.00    -0.004 C 
ATOM     17  C   UNL     1      34.094 -20.133 -20.457  0.00  0.00    +0.006 C 
ATOM     18  C   UNL     1      35.693 -22.020 -19.115  0.00  0.00    -0.004 C 
ATOM     19  C   UNL     1      35.487 -20.018 -20.450  0.00  0.00    +0.029 C 
ATOM     20  C   UNL     1      36.301 -20.954 -19.783  0.00  0.00    +0.006 C 
ATOM     21  C   UNL     1      33.487 -19.063 -21.199  0.00  0.00    +0.007 C 
ATOM     22  C   UNL     1      34.408 -18.187 -21.722  0.00  0.00    +0.035 C 
ENDBRANCH  13  15
ENDBRANCH  12  13
ENDBRANCH   1  12
TORSDOF 8
ENDMDL
MODEL 2
REMARK VINA RESULT:      -8.4      1.509      2.165
REMARK  Name = 9901946
REMARK  8 active torsions:
REMARK  status: ('A' for Active; 'I' for Inactive)
REMARK    1  A    between atoms: O_1  and  C_2
REMARK    2  A    between atoms: O_1  and  C_12
REMARK    3  A    between atoms: C_2  and  C_3
REMARK    4  A    between atoms: C_3  and  C_4
REMARK    5  A    between atoms: C_4  and  N_5
REMARK    6  A    between atoms: C_6  and  O_10
REMARK    7  A    between atoms: C_12  and  C_13
REMARK    8  A    between atoms: C_13  and  C_15
REMARK                            x       y       z     vdW  Elec       q    Type
REMARK                         _______ _______ _______ _____ _____    ______ ____
ROOT
ATOM      1  O   UNL     1      34.827 -23.703 -16.278  0.00  0.00    -0.353 OA
ENDROOT
BRANCH   1   2
ATOM      2  C   UNL     1      35.537 -22.754 -15.495  0.00  0.00    +0.140 C 
BRANCH   2   3
ATOM      3  C   UNL     1      36.927 -22.566 -16.088  0.00  0.00    +0.009 C 
BRANCH   3   4
ATOM      4  C   UNL     1      37.938 -23.517 -15.457  0.00  0.00    -0.075 C 
BRANCH   4   5
ATOM      5  N   UNL     1      37.280 -24.381 -14.484  0.00  0.00    +0.390 N 
ATOM      6  C   UNL     1      37.845 -26.065 -13.357  0.00  0.00    +0.069 C 
ATOM      7  C   UNL     1      38.162 -24.563 -13.305  0.00  0.00    -0.050 C 
ATOM      8  C   UNL     1      37.521 -25.801 -14.835  0.00  0.00    -0.050 C 
ATOM      9  H   UNL     1      36.338 -24.000 -14.398  0.00  0.00    -0.080 HD
BRANCH   6  10
ATOM     10  O   UNL     1      36.728 -26.511 -12.528  0.00  0.00    -0.389 OA
ATOM     11  H   UNL     1      36.741 -26.035 -11.684  0.00  0.00    +0.210 HD
ENDBRANCH   6  10
ENDBRANCH   4   5
ENDBRANCH   3   4
ENDBRANCH   2   3
ENDBRANCH   1   2
BRANCH   1  12
ATOM     12  C   UNL     1      33.696 -23.118 -16.910  0.00  0.00    +0.147 C 
BRANCH  12  13
ATOM     13  C   UNL     1      33.770 -23.358 -18.420  0.00  0.00    +0.058 C 
BRANCH  13  15
ATOM     14  S   UNL     1      34.763 -18.336 -21.532  0.00  0.00    -0.086 S 
ATOM     15  C   UNL     1      33.961 -22.101 -19.200  0.00  0.00    -0.020 C 
ATOM     16  C   UNL     1      35.252 -21.654 -19.490  0.00  0.00    -0.004 C 
ATOM     17  C   UNL     1      35.449 -20.461 -20.228  0.00  0.00    +0.006 C 
ATOM     18  C   UNL     1      32.856 -21.380 -19.632  0.00  0.00    -0.004 C 
ATOM     19  C   UNL     1      34.321 -19.753 -20.652  0.00  0.00    +0.029 C 
ATOM     20  C   UNL     1      33.017 -20.200 -20.362  0.00  0.00    +0.006 C 
ATOM     21  C   UNL     1      36.659 -19.810 -20.643  0.00  0.00    +0.007 C 
ATOM     22  C   UNL     1      36.428 -18.656 -21.354  0.00  0.00    +0.035 C 
ENDBRANCH  13  15
ENDBRANCH  12  13
ENDBRANCH   1  12
TORSDOF 8
ENDMDL
MODEL 3
REMARK VINA RESULT:      -8.4      3.921      6.152
REMARK  Name = 9901946
REMARK  8 active torsions:
REMARK  status: ('A' for Active; 'I' for Inactive)
REMARK    1  A    between atoms: O_1  and  C_2
REMARK    2  A    between atoms: O_1  and  C_12
REMARK    3  A    between atoms: C_2  and  C_3
REMARK    4  A    between atoms: C_3  and  C_4
REMARK    5  A    between atoms: C_4  and  N_5
REMARK    6  A    between atoms: C_6  and  O_10
REMARK    7  A    between atoms: C_12  and  C_13
REMARK    8  A    between atoms: C_13  and  C_15
REMARK                            x       y       z     vdW  Elec       q    Type
REMARK                         _______ _______ _______ _____ _____    ______ ____
ROOT
ATOM      1  O   UNL     1      33.504 -23.155 -16.339  0.00  0.00    -0.353 OA
ENDROOT
BRANCH   1   2
ATOM      2  C   UNL     1      32.475 -23.516 -15.428  0.00  0.00    +0.140 C 
BRANCH   2   3
ATOM      3  C   UNL     1      31.127 -23.354 -16.117  0.00  0.00    +0.009 C 
BRANCH   3   4
ATOM      4  C   UNL     1      30.151 -24.450 -15.703  0.00  0.00    -0.075 C 
BRANCH   4   5
ATOM      5  N   UNL     1      28.807 -23.904 -15.561  0.00  0.00    +0.390 N 
ATOM      6  C   UNL     1      27.693 -22.403 -16.526  0.00  0.00    +0.069 C 
ATOM      7  C   UNL     1      28.161 -23.819 -16.894  0.00  0.00    -0.050 C 
ATOM      8  C   UNL     1      28.870 -22.423 -15.541  0.00  0.00    -0.050 C 
ATOM      9  H   UNL     1      28.393 -24.436 -14.795  0.00  0.00    -0.080 HD
BRANCH   6  10
ATOM     10  O   UNL     1      26.362 -22.305 -15.931  0.00  0.00    -0.389 OA
ATOM     11  H   UNL     1      26.237 -21.417 -15.564  0.00  0.00    +0.210 HD
ENDBRANCH   6  10
ENDBRANCH   4   5
ENDBRANCH   3   4
ENDBRANCH   2   3
ENDBRANCH   1   2
BRANCH   1  12
ATOM     12  C   UNL     1      32.984 -22.875 -17.632  0.00  0.00    +0.147 C 
BRANCH  12  13
ATOM     13  C   UNL     1      34.129 -22.835 -18.648  0.00  0.00    +0.058 C 
BRANCH  13  15
ATOM     14  S   UNL     1      34.360 -17.851 -21.964  0.00  0.00    -0.086 S 
ATOM     15  C   UNL     1      34.129 -21.593 -19.475  0.00  0.00    -0.020 C 
ATOM     16  C   UNL     1      35.342 -21.027 -19.874  0.00  0.00    -0.004 C 
ATOM     17  C   UNL     1      35.358 -19.847 -20.658  0.00  0.00    +0.006 C 
ATOM     18  C   UNL     1      32.927 -21.005 -19.841  0.00  0.00    -0.004 C 
ATOM     19  C   UNL     1      34.134 -19.274 -21.015  0.00  0.00    +0.029 C 
ATOM     20  C   UNL     1      32.909 -19.842 -20.614  0.00  0.00    +0.006 C 
ATOM     21  C   UNL     1      36.460 -19.090 -21.182  0.00  0.00    +0.007 C 
ATOM     22  C   UNL     1      36.058 -17.992 -21.904  0.00  0.00    +0.035 C 
ENDBRANCH  13  15
ENDBRANCH  12  13
ENDBRANCH   1  12
TORSDOF 8
ENDMDL
MODEL 4
REMARK VINA RESULT:      -8.2      6.764     11.175
REMARK  Name = 9901946
REMARK  8 active torsions:
REMARK  status: ('A' for Active; 'I' for Inactive)
REMARK    1  A    between atoms: O_1  and  C_2
REMARK    2  A    between atoms: O_1  and  C_12
REMARK    3  A    between atoms: C_2  and  C_3
REMARK    4  A    between atoms: C_3  and  C_4
REMARK    5  A    between atoms: C_4  and  N_5
REMARK    6  A    between atoms: C_6  and  O_10
REMARK    7  A    between atoms: C_12  and  C_13
REMARK    8  A    between atoms: C_13  and  C_15
REMARK                            x       y       z     vdW  Elec       q    Type
REMARK                         _______ _______ _______ _____ _____    ______ ____
ROOT
ATOM      1  O   UNL     1      34.235 -14.561 -22.092  0.00  0.00    -0.353 OA
ENDROOT
BRANCH   1   2
ATOM      2  C   UNL     1      32.825 -14.703 -22.205  0.00  0.00    +0.140 C 
BRANCH   2   3
ATOM      3  C   UNL     1      32.294 -13.624 -23.138  0.00  0.00    +0.009 C 
BRANCH   3   4
ATOM      4  C   UNL     1      33.194 -13.444 -24.356  0.00  0.00    -0.075 C 
BRANCH   4   5
ATOM      5  N   UNL     1      34.135 -12.354 -24.133  0.00  0.00    +0.390 N 
ATOM      6  C   UNL     1      34.109 -10.272 -24.433  0.00  0.00    +0.069 C 
ATOM      7  C   UNL     1      33.447 -11.238 -23.439  0.00  0.00    -0.050 C 
ATOM      8  C   UNL     1      34.208 -11.503 -25.345  0.00  0.00    -0.050 C 
ATOM      9  H   UNL     1      34.962 -12.804 -23.741  0.00  0.00    -0.080 HD
BRANCH   6  10
ATOM     10  O   UNL     1      35.379  -9.688 -24.007  0.00  0.00    -0.389 OA
ATOM     11  H   UNL     1      35.804 -10.273 -23.361  0.00  0.00    +0.210 HD
ENDBRANCH   6  10
ENDBRANCH   4   5
ENDBRANCH   3   4
ENDBRANCH   2   3
ENDBRANCH   1   2
BRANCH   1  12
ATOM     12  C   UNL     1      34.816 -15.656 -21.395  0.00  0.00    +0.147 C 
BRANCH  12  13
ATOM     13  C   UNL     1      34.854 -16.884 -22.309  0.00  0.00    +0.058 C 
BRANCH  13  15
ATOM     14  S   UNL     1      35.276 -22.034 -19.278  0.00  0.00    -0.086 S 
ATOM     15  C   UNL     1      35.016 -18.163 -21.557  0.00  0.00    -0.020 C 
ATOM     16  C   UNL     1      33.885 -18.873 -21.145  0.00  0.00    -0.004 C 
ATOM     17  C   UNL     1      34.024 -20.087 -20.429  0.00  0.00    +0.006 C 
ATOM     18  C   UNL     1      36.286 -18.640 -21.269  0.00  0.00    -0.004 C 
ATOM     19  C   UNL     1      35.314 -20.548 -20.152  0.00  0.00    +0.029 C 
ATOM     20  C   UNL     1      36.456 -19.835 -20.566  0.00  0.00    +0.006 C 
ATOM     21  C   UNL     1      33.029 -20.981 -19.908  0.00  0.00    +0.007 C 
ATOM     22  C   UNL     1      33.572 -22.069 -19.266  0.00  0.00    +0.035 C 
ENDBRANCH  13  15
ENDBRANCH  12  13
ENDBRANCH   1  12
TORSDOF 8
ENDMDL
MODEL 5
REMARK VINA RESULT:      -8.1      1.768      2.299
REMARK  Name = 9901946
REMARK  8 active torsions:
REMARK  status: ('A' for Active; 'I' for Inactive)
REMARK    1  A    between atoms: O_1  and  C_2
REMARK    2  A    between atoms: O_1  and  C_12
REMARK    3  A    between atoms: C_2  and  C_3
REMARK    4  A    between atoms: C_3  and  C_4
REMARK    5  A    between atoms: C_4  and  N_5
REMARK    6  A    between atoms: C_6  and  O_10
REMARK    7  A    between atoms: C_12  and  C_13
REMARK    8  A    between atoms: C_13  and  C_15
REMARK                            x       y       z     vdW  Elec       q    Type
REMARK                         _______ _______ _______ _____ _____    ______ ____
ROOT
ATOM      1  O   UNL     1      33.150 -23.524 -16.263  0.00  0.00    -0.353 OA
ENDROOT
BRANCH   1   2
ATOM      2  C   UNL     1      34.401 -23.122 -15.721  0.00  0.00    +0.140 C 
BRANCH   2   3
ATOM      3  C   UNL     1      34.820 -24.121 -14.652  0.00  0.00    +0.009 C 
BRANCH   3   4
ATOM      4  C   UNL     1      36.252 -24.600 -14.865  0.00  0.00    -0.075 C 
BRANCH   4   5
ATOM      5  N   UNL     1      37.163 -23.877 -13.986  0.00  0.00    +0.390 N 
ATOM      6  C   UNL     1      37.780 -24.073 -11.985  0.00  0.00    +0.069 C 
ATOM      7  C   UNL     1      38.049 -24.841 -13.288  0.00  0.00    -0.050 C 
ATOM      8  C   UNL     1      36.497 -23.610 -12.689  0.00  0.00    -0.050 C 
ATOM      9  H   UNL     1      37.536 -23.125 -14.566  0.00  0.00    -0.080 HD
BRANCH   6  10
ATOM     10  O   UNL     1      38.741 -23.024 -11.651  0.00  0.00    -0.389 OA
ATOM     11  H   UNL     1      38.354 -22.157 -11.846  0.00  0.00    +0.210 HD
ENDBRANCH   6  10
ENDBRANCH   4   5
ENDBRANCH   3   4
ENDBRANCH   2   3
ENDBRANCH   1   2
BRANCH   1  12
ATOM     12  C   UNL     1      33.018 -23.128 -17.622  0.00  0.00    +0.147 C 
BRANCH  12  13
ATOM     13  C   UNL     1      34.399 -22.804 -18.199  0.00  0.00    +0.058 C 
BRANCH  13  15
ATOM     14  S   UNL     1      34.521 -18.252 -22.092  0.00  0.00    -0.086 S 
ATOM     15  C   UNL     1      34.372 -21.673 -19.172  0.00  0.00    -0.020 C 
ATOM     16  C   UNL     1      35.571 -21.086 -19.586  0.00  0.00    -0.004 C 
ATOM     17  C   UNL     1      35.561 -20.011 -20.507  0.00  0.00    +0.006 C 
ATOM     18  C   UNL     1      33.159 -21.208 -19.659  0.00  0.00    -0.004 C 
ATOM     19  C   UNL     1      34.326 -19.561 -20.985  0.00  0.00    +0.029 C 
ATOM     20  C   UNL     1      33.116 -20.150 -20.570  0.00  0.00    +0.006 C 
ATOM     21  C   UNL     1      36.644 -19.257 -21.073  0.00  0.00    +0.007 C 
ATOM     22  C   UNL     1      36.218 -18.281 -21.942  0.00  0.00    +0.035 C 
ENDBRANCH  13  15
ENDBRANCH  12  13
ENDBRANCH   1  12
TORSDOF 8
ENDMDL
MODEL 6
REMARK VINA RESULT:      -8.1      3.441      5.371
REMARK  Name = 9901946
REMARK  8 active torsions:
REMARK  status: ('A' for Active; 'I' for Inactive)
REMARK    1  A    between atoms: O_1  and  C_2
REMARK    2  A    between atoms: O_1  and  C_12
REMARK    3  A    between atoms: C_2  and  C_3
REMARK    4  A    between atoms: C_3  and  C_4
REMARK    5  A    between atoms: C_4  and  N_5
REMARK    6  A    between atoms: C_6  and  O_10
REMARK    7  A    between atoms: C_12  and  C_13
REMARK    8  A    between atoms: C_13  and  C_15
REMARK                            x       y       z     vdW  Elec       q    Type
REMARK                         _______ _______ _______ _____ _____    ______ ____
ROOT
ATOM      1  O   UNL     1      33.192 -23.828 -16.231  0.00  0.00    -0.353 OA
ENDROOT
BRANCH   1   2
ATOM      2  C   UNL     1      33.275 -23.307 -14.911  0.00  0.00    +0.140 C 
BRANCH   2   3
ATOM      3  C   UNL     1      31.898 -22.816 -14.486  0.00  0.00    +0.009 C 
BRANCH   3   4
ATOM      4  C   UNL     1      30.915 -23.972 -14.331  0.00  0.00    -0.075 C 
BRANCH   4   5
ATOM      5  N   UNL     1      30.123 -24.128 -15.545  0.00  0.00    +0.390 N 
ATOM      6  C   UNL     1      28.166 -23.623 -16.127  0.00  0.00    +0.069 C 
ATOM      7  C   UNL     1      29.463 -22.841 -15.876  0.00  0.00    -0.050 C 
ATOM      8  C   UNL     1      28.789 -24.678 -15.203  0.00  0.00    -0.050 C 
ATOM      9  H   UNL     1      30.747 -24.597 -16.201  0.00  0.00    -0.080 HD
BRANCH   6  10
ATOM     10  O   UNL     1      27.929 -24.042 -17.507  0.00  0.00    -0.389 OA
ATOM     11  H   UNL     1      28.767 -24.038 -17.995  0.00  0.00    +0.210 HD
ENDBRANCH   6  10
ENDBRANCH   4   5
ENDBRANCH   3   4
ENDBRANCH   2   3
ENDBRANCH   1   2
BRANCH   1  12
ATOM     12  C   UNL     1      32.999 -22.795 -17.188  0.00  0.00    +0.147 C 
BRANCH  12  13
ATOM     13  C   UNL     1      33.642 -23.202 -18.518  0.00  0.00    +0.058 C 
BRANCH  13  15
ATOM     14  S   UNL     1      36.035 -18.537 -21.415  0.00  0.00    -0.086 S 
ATOM     15  C   UNL     1      34.290 -22.059 -19.224  0.00  0.00    -0.020 C 
ATOM     16  C   UNL     1      33.498 -21.099 -19.862  0.00  0.00    -0.004 C 
ATOM     17  C   UNL     1      34.100 -20.010 -20.538  0.00  0.00    +0.006 C 
ATOM     18  C   UNL     1      35.673 -21.955 -19.248  0.00  0.00    -0.004 C 
ATOM     19  C   UNL     1      35.495 -19.926 -20.547  0.00  0.00    +0.029 C 
ATOM     20  C   UNL     1      36.296 -20.891 -19.906  0.00  0.00    +0.006 C 
ATOM     21  C   UNL     1      33.508 -18.915 -21.254  0.00  0.00    +0.007 C 
ATOM     22  C   UNL     1      34.441 -18.051 -21.775  0.00  0.00    +0.035 C 
ENDBRANCH  13  15
ENDBRANCH  12  13
ENDBRANCH   1  12
TORSDOF 8
ENDMDL
MODEL 7
REMARK VINA RESULT:      -8.1      6.562     11.046
REMARK  Name = 9901946
REMARK  8 active torsions:
REMARK  status: ('A' for Active; 'I' for Inactive)
REMARK    1  A    between atoms: O_1  and  C_2
REMARK    2  A    between atoms: O_1  and  C_12
REMARK    3  A    between atoms: C_2  and  C_3
REMARK    4  A    between atoms: C_3  and  C_4
REMARK    5  A    between atoms: C_4  and  N_5
REMARK    6  A    between atoms: C_6  and  O_10
REMARK    7  A    between atoms: C_12  and  C_13
REMARK    8  A    between atoms: C_13  and  C_15
REMARK                            x       y       z     vdW  Elec       q    Type
REMARK                         _______ _______ _______ _____ _____    ______ ____
ROOT
ATOM      1  O   UNL     1      34.186 -16.899 -24.324  0.00  0.00    -0.353 OA
ENDROOT
BRANCH   1   2
ATOM      2  C   UNL     1      34.634 -15.768 -23.590  0.00  0.00    +0.140 C 
BRANCH   2   3
ATOM      3  C   UNL     1      33.439 -14.879 -23.275  0.00  0.00    +0.009 C 
BRANCH   3   4
ATOM      4  C   UNL     1      33.217 -13.833 -24.363  0.00  0.00    -0.075 C 
BRANCH   4   5
ATOM      5  N   UNL     1      34.100 -12.692 -24.154  0.00  0.00    +0.390 N 
ATOM      6  C   UNL     1      33.905 -10.603 -24.309  0.00  0.00    +0.069 C 
ATOM      7  C   UNL     1      33.409 -11.674 -23.326  0.00  0.00    -0.050 C 
ATOM      8  C   UNL     1      33.998 -11.766 -25.308  0.00  0.00    -0.050 C 
ATOM      9  H   UNL     1      34.990 -13.103 -23.871  0.00  0.00    -0.080 HD
BRANCH   6  10
ATOM     10  O   UNL     1      35.168  -9.954 -23.963  0.00  0.00    -0.389 OA
ATOM     11  H   UNL     1      35.681  -9.793 -24.770  0.00  0.00    +0.210 HD
ENDBRANCH   6  10
ENDBRANCH   4   5
ENDBRANCH   3   4
ENDBRANCH   2   3
ENDBRANCH   1   2
BRANCH   1  12
ATOM     12  C   UNL     1      34.894 -18.075 -23.956  0.00  0.00    +0.147 C 
BRANCH  12  13
ATOM     13  C   UNL     1      35.422 -17.930 -22.525  0.00  0.00    +0.058 C 
BRANCH  13  15
ATOM     14  S   UNL     1      33.566 -22.208 -18.765  0.00  0.00    -0.086 S 
ATOM     15  C   UNL     1      34.906 -18.985 -21.605  0.00  0.00    -0.020 C 
ATOM     16  C   UNL     1      35.797 -19.695 -20.796  0.00  0.00    -0.004 C 
ATOM     17  C   UNL     1      35.322 -20.701 -19.919  0.00  0.00    +0.006 C 
ATOM     18  C   UNL     1      33.547 -19.259 -21.559  0.00  0.00    -0.004 C 
ATOM     19  C   UNL     1      33.948 -20.957 -19.890  0.00  0.00    +0.029 C 
ATOM     20  C   UNL     1      33.047 -20.244 -20.704  0.00  0.00    +0.006 C 
ATOM     21  C   UNL     1      36.030 -21.552 -19.004  0.00  0.00    +0.007 C 
ATOM     22  C   UNL     1      35.200 -22.408 -18.321  0.00  0.00    +0.035 C 
ENDBRANCH  13  15
ENDBRANCH  12  13
ENDBRANCH   1  12
TORSDOF 8
ENDMDL
MODEL 8
REMARK VINA RESULT:      -8.0      4.717      8.578
REMARK  Name = 9901946
REMARK  8 active torsions:
REMARK  status: ('A' for Active; 'I' for Inactive)
REMARK    1  A    between atoms: O_1  and  C_2
REMARK    2  A    between atoms: O_1  and  C_12
REMARK    3  A    between atoms: C_2  and  C_3
REMARK    4  A    between atoms: C_3  and  C_4
REMARK    5  A    between atoms: C_4  and  N_5
REMARK    6  A    between atoms: C_6  and  O_10
REMARK    7  A    between atoms: C_12  and  C_13
REMARK    8  A    between atoms: C_13  and  C_15
REMARK                            x       y       z     vdW  Elec       q    Type
REMARK                         _______ _______ _______ _____ _____    ______ ____
ROOT
ATOM      1  O   UNL     1      35.939 -20.308 -19.985  0.00  0.00    -0.353 OA
ENDROOT
BRANCH   1   2
ATOM      2  C   UNL     1      34.630 -20.106 -20.498  0.00  0.00    +0.140 C 
BRANCH   2   3
ATOM      3  C   UNL     1      34.733 -19.530 -21.904  0.00  0.00    +0.009 C 
BRANCH   3   4
ATOM      4  C   UNL     1      35.760 -18.405 -21.973  0.00  0.00    -0.075 C 
BRANCH   4   5
ATOM      5  N   UNL     1      35.806 -17.843 -23.317  0.00  0.00    +0.390 N 
ATOM      6  C   UNL     1      34.389 -17.055 -24.657  0.00  0.00    +0.069 C 
ATOM      7  C   UNL     1      35.039 -16.574 -23.352  0.00  0.00    -0.050 C 
ATOM      8  C   UNL     1      34.747 -18.460 -24.151  0.00  0.00    -0.050 C 
ATOM      9  H   UNL     1      36.791 -17.885 -23.580  0.00  0.00    -0.080 HD
BRANCH   6  10
ATOM     10  O   UNL     1      35.046 -16.633 -25.892  0.00  0.00    -0.389 OA
ATOM     11  H   UNL     1      35.458 -15.766 -25.760  0.00  0.00    +0.210 HD
ENDBRANCH   6  10
ENDBRANCH   4   5
ENDBRANCH   3   4
ENDBRANCH   2   3
ENDBRANCH   1   2
BRANCH   1  12
ATOM     12  C   UNL     1      35.993 -21.431 -19.116  0.00  0.00    +0.147 C 
BRANCH  12  13
ATOM     13  C   UNL     1      34.678 -22.213 -19.206  0.00  0.00    +0.058 C 
BRANCH  13  15
ATOM     14  S   UNL     1      32.427 -23.969 -13.939  0.00  0.00    -0.086 S 
ATOM     15  C   UNL     1      34.171 -22.653 -17.874  0.00  0.00    -0.020 C 
ATOM     16  C   UNL     1      32.799 -22.834 -17.679  0.00  0.00    -0.004 C 
ATOM     17  C   UNL     1      32.303 -23.250 -16.420  0.00  0.00    +0.006 C 
ATOM     18  C   UNL     1      35.062 -22.877 -16.834  0.00  0.00    -0.004 C 
ATOM     19  C   UNL     1      33.220 -23.470 -15.388  0.00  0.00    +0.029 C 
ATOM     20  C   UNL     1      34.603 -23.288 -15.580  0.00  0.00    +0.006 C 
ATOM     21  C   UNL     1      30.958 -23.500 -15.984  0.00  0.00    +0.007 C 
ATOM     22  C   UNL     1      30.888 -23.895 -14.669  0.00  0.00    +0.035 C 
ENDBRANCH  13  15
ENDBRANCH  12  13
ENDBRANCH   1  12
TORSDOF 8
ENDMDL
MODEL 9
REMARK VINA RESULT:      -8.0      2.023      2.526
REMARK  Name = 9901946
REMARK  8 active torsions:
REMARK  status: ('A' for Active; 'I' for Inactive)
REMARK    1  A    between atoms: O_1  and  C_2
REMARK    2  A    between atoms: O_1  and  C_12
REMARK    3  A    between atoms: C_2  and  C_3
REMARK    4  A    between atoms: C_3  and  C_4
REMARK    5  A    between atoms: C_4  and  N_5
REMARK    6  A    between atoms: C_6  and  O_10
REMARK    7  A    between atoms: C_12  and  C_13
REMARK    8  A    between atoms: C_13  and  C_15
REMARK                            x       y       z     vdW  Elec       q    Type
REMARK                         _______ _______ _______ _____ _____    ______ ____
ROOT
ATOM      1  O   UNL     1      34.763 -24.094 -16.201  0.00  0.00    -0.353 OA
ENDROOT
BRANCH   1   2
ATOM      2  C   UNL     1      36.066 -23.599 -15.925  0.00  0.00    +0.140 C 
BRANCH   2   3
ATOM      3  C   UNL     1      36.307 -23.654 -14.423  0.00  0.00    +0.009 C 
BRANCH   3   4
ATOM      4  C   UNL     1      36.403 -25.092 -13.924  0.00  0.00    -0.075 C 
BRANCH   4   5
ATOM      5  N   UNL     1      36.179 -25.144 -12.484  0.00  0.00    +0.390 N 
ATOM      6  C   UNL     1      36.161 -23.735 -10.922  0.00  0.00    +0.069 C 
ATOM      7  C   UNL     1      35.225 -24.078 -12.091  0.00  0.00    -0.050 C 
ATOM      8  C   UNL     1      37.248 -24.390 -11.786  0.00  0.00    -0.050 C 
ATOM      9  H   UNL     1      35.998 -26.129 -12.288  0.00  0.00    -0.080 HD
BRANCH   6  10
ATOM     10  O   UNL     1      35.867 -24.397  -9.653  0.00  0.00    -0.389 OA
ATOM     11  H   UNL     1      35.517 -23.749  -9.023  0.00  0.00    +0.210 HD
ENDBRANCH   6  10
ENDBRANCH   4   5
ENDBRANCH   3   4
ENDBRANCH   2   3
ENDBRANCH   1   2
BRANCH   1  12
ATOM     12  C   UNL     1      33.889 -23.057 -16.625  0.00  0.00    +0.147 C 
BRANCH  12  13
ATOM     13  C   UNL     1      33.618 -23.195 -18.126  0.00  0.00    +0.058 C 
BRANCH  13  15
ATOM     14  S   UNL     1      35.959 -18.781 -21.432  0.00  0.00    -0.086 S 
ATOM     15  C   UNL     1      34.253 -22.113 -18.933  0.00  0.00    -0.020 C 
ATOM     16  C   UNL     1      33.451 -21.213 -19.639  0.00  0.00    -0.004 C 
ATOM     17  C   UNL     1      34.040 -20.182 -20.411  0.00  0.00    +0.006 C 
ATOM     18  C   UNL     1      35.636 -22.007 -18.982  0.00  0.00    -0.004 C 
ATOM     19  C   UNL     1      35.435 -20.095 -20.444  0.00  0.00    +0.029 C 
ATOM     20  C   UNL     1      36.247 -21.000 -19.734  0.00  0.00    +0.006 C 
ATOM     21  C   UNL     1      33.435 -19.153 -21.210  0.00  0.00    +0.007 C 
ATOM     22  C   UNL     1      34.359 -18.332 -21.812  0.00  0.00    +0.035 C 
ENDBRANCH  13  15
ENDBRANCH  12  13
ENDBRANCH   1  12
TORSDOF 8
ENDMDL
