MODEL 1
REMARK VINA RESULT:     -12.2      0.000      0.000
REMARK  Name = 3151
REMARK  5 active torsions:
REMARK  status: ('A' for Active; 'I' for Inactive)
REMARK    1  A    between atoms: N_1  and  C_20
REMARK    2  A    between atoms: C_2  and  N_10
REMARK    3  A    between atoms: C_20  and  C_21
REMARK    4  A    between atoms: C_21  and  C_22
REMARK    5  A    between atoms: C_22  and  N_24
REMARK                            x       y       z     vdW  Elec       q    Type
REMARK                         _______ _______ _______ _____ _____    ______ ____
ROOT
ATOM      1  N   UNL     1      34.623 -15.512 -23.289  0.00  0.00    +0.387 N 
ATOM      2  C   UNL     1      34.542 -18.094 -21.916  0.00  0.00    +0.086 C 
ATOM      3  C   UNL     1      34.582 -16.767 -21.157  0.00  0.00    -0.000 C 
ATOM      4  C   UNL     1      35.157 -17.926 -23.305  0.00  0.00    -0.000 C 
ATOM      5  C   UNL     1      33.962 -15.638 -21.982  0.00  0.00    -0.075 C 
ATOM      6  C   UNL     1      34.518 -16.759 -24.059  0.00  0.00    -0.075 C 
ATOM      7  H   UNL     1      35.611 -15.325 -23.125  0.00  0.00    -0.080 HD
ENDROOT
BRANCH   2  10
ATOM      8 CL   UNL     1      33.376 -23.551 -17.801  0.00  0.00    -0.082 Cl
ATOM      9  O   UNL     1      37.507 -18.681 -21.605  0.00  0.00    -0.247 OA
ATOM     10  N   UNL     1      35.212 -19.130 -21.172  0.00  0.00    -0.282 N 
ATOM     11  N   UNL     1      36.784 -20.472 -20.240  0.00  0.00    -0.305 N 
ATOM     12  C   UNL     1      34.555 -20.109 -20.415  0.00  0.00    +0.079 A 
ATOM     13  C   UNL     1      36.616 -19.335 -21.080  0.00  0.00    +0.328 A 
ATOM     14  C   UNL     1      35.527 -20.930 -19.845  0.00  0.00    +0.077 A 
ATOM     15  C   UNL     1      33.210 -20.326 -20.197  0.00  0.00    +0.020 C 
ATOM     16  C   UNL     1      35.210 -21.998 -19.036  0.00  0.00    +0.030 C 
ATOM     17  C   UNL     1      32.863 -21.405 -19.378  0.00  0.00    +0.013 C 
ATOM     18  C   UNL     1      33.852 -22.232 -18.804  0.00  0.00    +0.059 C 
ATOM     19  H   UNL     1      37.646 -20.870 -19.981  0.00  0.00    +0.170 HD
ENDBRANCH   2  10
BRANCH   1  20
ATOM     20  C   UNL     1      34.053 -14.395 -24.044  0.00  0.00    -0.075 C 
BRANCH  20  21
ATOM     21  C   UNL     1      33.789 -13.178 -23.153  0.00  0.00    +0.002 C 
BRANCH  21  22
ATOM     22  C   UNL     1      32.444 -12.496 -23.398  0.00  0.00    +0.108 C 
BRANCH  22  24
ATOM     23  O   UNL     1      30.619 -11.434 -21.241  0.00  0.00    -0.247 OA
ATOM     24  N   UNL     1      32.380 -11.181 -22.821  0.00  0.00    -0.280 N 
ATOM     25  N   UNL     1      31.779  -9.397 -21.548  0.00  0.00    -0.305 N 
ATOM     26  C   UNL     1      33.196 -10.092 -23.171  0.00  0.00    +0.079 A 
ATOM     27  C   UNL     1      31.478 -10.765 -21.799  0.00  0.00    +0.328 A 
ATOM     28  C   UNL     1      32.822  -9.002 -22.388  0.00  0.00    +0.076 A 
ATOM     29  C   UNL     1      34.211  -9.996 -24.101  0.00  0.00    +0.019 C 
ATOM     30  C   UNL     1      33.435  -7.774 -22.489  0.00  0.00    +0.019 C 
ATOM     31  C   UNL     1      34.849  -8.758 -24.223  0.00  0.00    +0.002 C 
ATOM     32  C   UNL     1      34.466  -7.658 -23.426  0.00  0.00    +0.002 C 
ATOM     33  H   UNL     1      31.325  -8.821 -20.890  0.00  0.00    +0.170 HD
ENDBRANCH  22  24
ENDBRANCH  21  22
ENDBRANCH  20  21
ENDBRANCH   1  20
TORSDOF 5
ENDMDL
MODEL 2
REMARK VINA RESULT:     -12.1      5.002     11.479
REMARK  Name = 3151
REMARK  5 active torsions:
REMARK  status: ('A' for Active; 'I' for Inactive)
REMARK    1  A    between atoms: N_1  and  C_20
REMARK    2  A    between atoms: C_2  and  N_10
REMARK    3  A    between atoms: C_20  and  C_21
REMARK    4  A    between atoms: C_21  and  C_22
REMARK    5  A    between atoms: C_22  and  N_24
REMARK                            x       y       z     vdW  Elec       q    Type
REMARK                         _______ _______ _______ _____ _____    ______ ____
ROOT
ATOM      1  N   UNL     1      33.362 -10.834 -24.316  0.00  0.00    +0.387 N 
ATOM      2  C   UNL     1      33.076  -8.631 -22.413  0.00  0.00    +0.086 C 
ATOM      3  C   UNL     1      31.954  -9.637 -22.672  0.00  0.00    -0.000 C 
ATOM      4  C   UNL     1      33.999  -8.546 -23.629  0.00  0.00    -0.000 C 
ATOM      5  C   UNL     1      32.513 -10.986 -23.127  0.00  0.00    -0.075 C 
ATOM      6  C   UNL     1      34.491  -9.931 -24.051  0.00  0.00    -0.075 C 
ATOM      7  H   UNL     1      32.797 -10.422 -25.057  0.00  0.00    -0.080 HD
ENDROOT
BRANCH   2  10
ATOM      8 CL   UNL     1      30.603  -2.800 -25.234  0.00  0.00    -0.082 Cl
ATOM      9  O   UNL     1      32.570  -7.357 -19.702  0.00  0.00    -0.247 OA
ATOM     10  N   UNL     1      32.537  -7.336 -22.079  0.00  0.00    -0.282 N 
ATOM     11  N   UNL     1      31.785  -5.515 -20.959  0.00  0.00    -0.305 N 
ATOM     12  C   UNL     1      32.128  -6.384 -23.022  0.00  0.00    +0.079 A 
ATOM     13  C   UNL     1      32.332  -6.816 -20.772  0.00  0.00    +0.328 A 
ATOM     14  C   UNL     1      31.667  -5.268 -22.327  0.00  0.00    +0.077 A 
ATOM     15  C   UNL     1      32.130  -6.425 -24.401  0.00  0.00    +0.020 C 
ATOM     16  C   UNL     1      31.190  -4.145 -22.966  0.00  0.00    +0.030 C 
ATOM     17  C   UNL     1      31.651  -5.296 -25.073  0.00  0.00    +0.013 C 
ATOM     18  C   UNL     1      31.186  -4.169 -24.363  0.00  0.00    +0.059 C 
ATOM     19  H   UNL     1      31.531  -4.892 -20.240  0.00  0.00    +0.170 HD
ENDBRANCH   2  10
BRANCH   1  20
ATOM     20  C   UNL     1      33.848 -12.139 -24.767  0.00  0.00    -0.075 C 
BRANCH  20  21
ATOM     21  C   UNL     1      33.955 -13.139 -23.613  0.00  0.00    +0.002 C 
BRANCH  21  22
ATOM     22  C   UNL     1      33.043 -14.357 -23.745  0.00  0.00    +0.108 C 
BRANCH  22  24
ATOM     23  O   UNL     1      33.602 -15.601 -26.438  0.00  0.00    -0.247 OA
ATOM     24  N   UNL     1      33.768 -15.557 -24.065  0.00  0.00    -0.280 N 
ATOM     25  N   UNL     1      34.743 -17.264 -25.204  0.00  0.00    -0.305 N 
ATOM     26  C   UNL     1      34.381 -16.415 -23.137  0.00  0.00    +0.079 A 
ATOM     27  C   UNL     1      33.984 -16.073 -25.376  0.00  0.00    +0.328 A 
ATOM     28  C   UNL     1      34.976 -17.459 -23.842  0.00  0.00    +0.076 A 
ATOM     29  C   UNL     1      34.449 -16.344 -21.760  0.00  0.00    +0.019 C 
ATOM     30  C   UNL     1      35.664 -18.475 -23.217  0.00  0.00    +0.019 C 
ATOM     31  C   UNL     1      35.142 -17.365 -21.103  0.00  0.00    +0.002 C 
ATOM     32  C   UNL     1      35.744 -18.419 -21.823  0.00  0.00    +0.002 C 
ATOM     33  H   UNL     1      35.054 -17.856 -25.928  0.00  0.00    +0.170 HD
ENDBRANCH  22  24
ENDBRANCH  21  22
ENDBRANCH  20  21
ENDBRANCH   1  20
TORSDOF 5
ENDMDL
MODEL 3
REMARK VINA RESULT:     -12.0      4.065     10.913
REMARK  Name = 3151
REMARK  5 active torsions:
REMARK  status: ('A' for Active; 'I' for Inactive)
REMARK    1  A    between atoms: N_1  and  C_20
REMARK    2  A    between atoms: C_2  and  N_10
REMARK    3  A    between atoms: C_20  and  C_21
REMARK    4  A    between atoms: C_21  and  C_22
REMARK    5  A    between atoms: C_22  and  N_24
REMARK                            x       y       z     vdW  Elec       q    Type
REMARK                         _______ _______ _______ _____ _____    ______ ____
ROOT
ATOM      1  N   UNL     1      34.763 -19.906 -20.193  0.00  0.00    +0.387 N 
ATOM      2  C   UNL     1      34.547 -17.713 -22.117  0.00  0.00    +0.086 C 
ATOM      3  C   UNL     1      35.846 -18.020 -21.373  0.00  0.00    -0.000 C 
ATOM      4  C   UNL     1      33.347 -18.217 -21.315  0.00  0.00    -0.000 C 
ATOM      5  C   UNL     1      35.930 -19.498 -20.989  0.00  0.00    -0.075 C 
ATOM      6  C   UNL     1      33.513 -19.689 -20.934  0.00  0.00    -0.075 C 
ATOM      7  H   UNL     1      34.736 -19.327 -19.355  0.00  0.00    -0.080 HD
ENDROOT
BRANCH   2  10
ATOM      8 CL   UNL     1      33.116 -13.180 -27.165  0.00  0.00    -0.082 Cl
ATOM      9  O   UNL     1      34.940 -15.322 -20.284  0.00  0.00    -0.247 OA
ATOM     10  N   UNL     1      34.433 -16.302 -22.390  0.00  0.00    -0.282 N 
ATOM     11  N   UNL     1      34.410 -14.043 -22.202  0.00  0.00    -0.305 N 
ATOM     12  C   UNL     1      34.097 -15.765 -23.640  0.00  0.00    +0.079 A 
ATOM     13  C   UNL     1      34.635 -15.242 -21.466  0.00  0.00    +0.328 A 
ATOM     14  C   UNL     1      34.085 -14.377 -23.517  0.00  0.00    +0.077 A 
ATOM     15  C   UNL     1      33.810 -16.385 -24.839  0.00  0.00    +0.020 C 
ATOM     16  C   UNL     1      33.789 -13.545 -24.573  0.00  0.00    +0.030 C 
ATOM     17  C   UNL     1      33.507 -15.561 -25.927  0.00  0.00    +0.013 C 
ATOM     18  C   UNL     1      33.497 -14.156 -25.795  0.00  0.00    +0.059 C 
ATOM     19  H   UNL     1      34.473 -13.130 -21.841  0.00  0.00    +0.170 HD
ENDBRANCH   2  10
BRANCH   1  20
ATOM     20  C   UNL     1      34.883 -21.308 -19.792  0.00  0.00    -0.075 C 
BRANCH  20  21
ATOM     21  C   UNL     1      33.638 -21.798 -19.045  0.00  0.00    +0.002 C 
BRANCH  21  22
ATOM     22  C   UNL     1      33.773 -23.193 -18.439  0.00  0.00    +0.108 C 
BRANCH  22  24
ATOM     23  O   UNL     1      35.982 -23.171 -16.382  0.00  0.00    -0.247 OA
ATOM     24  N   UNL     1      33.686 -23.182 -17.004  0.00  0.00    -0.280 N 
ATOM     25  N   UNL     1      34.228 -23.164 -14.797  0.00  0.00    -0.305 N 
ATOM     26  C   UNL     1      32.497 -23.180 -16.257  0.00  0.00    +0.079 A 
ATOM     27  C   UNL     1      34.791 -23.173 -16.104  0.00  0.00    +0.328 A 
ATOM     28  C   UNL     1      32.836 -23.169 -14.905  0.00  0.00    +0.076 A 
ATOM     29  C   UNL     1      31.180 -23.186 -16.669  0.00  0.00    +0.019 C 
ATOM     30  C   UNL     1      31.890 -23.163 -13.905  0.00  0.00    +0.019 C 
ATOM     31  C   UNL     1      30.200 -23.181 -15.671  0.00  0.00    +0.002 C 
ATOM     32  C   UNL     1      30.550 -23.169 -14.304  0.00  0.00    +0.002 C 
ATOM     33  H   UNL     1      34.736 -23.157 -13.954  0.00  0.00    +0.170 HD
ENDBRANCH  22  24
ENDBRANCH  21  22
ENDBRANCH  20  21
ENDBRANCH   1  20
TORSDOF 5
ENDMDL
MODEL 4
REMARK VINA RESULT:     -12.0      4.096     10.920
REMARK  Name = 3151
REMARK  5 active torsions:
REMARK  status: ('A' for Active; 'I' for Inactive)
REMARK    1  A    between atoms: N_1  and  C_20
REMARK    2  A    between atoms: C_2  and  N_10
REMARK    3  A    between atoms: C_20  and  C_21
REMARK    4  A    between atoms: C_21  and  C_22
REMARK    5  A    between atoms: C_22  and  N_24
REMARK                            x       y       z     vdW  Elec       q    Type
REMARK                         _______ _______ _______ _____ _____    ______ ____
ROOT
ATOM      1  N   UNL     1      35.024 -20.798 -20.534  0.00  0.00    +0.387 N 
ATOM      2  C   UNL     1      34.525 -18.016 -21.287  0.00  0.00    +0.086 C 
ATOM      3  C   UNL     1      33.448 -19.095 -21.394  0.00  0.00    -0.000 C 
ATOM      4  C   UNL     1      35.915 -18.647 -21.367  0.00  0.00    -0.000 C 
ATOM      5  C   UNL     1      33.683 -20.216 -20.379  0.00  0.00    -0.075 C 
ATOM      6  C   UNL     1      36.068 -19.781 -20.352  0.00  0.00    -0.075 C 
ATOM      7  H   UNL     1      35.101 -21.163 -21.482  0.00  0.00    -0.080 HD
ENDROOT
BRANCH   2  10
ATOM      8 CL   UNL     1      31.990 -11.657 -22.390  0.00  0.00    -0.082 Cl
ATOM      9  O   UNL     1      35.314 -18.048 -24.221  0.00  0.00    -0.247 OA
ATOM     10  N   UNL     1      34.350 -17.015 -22.310  0.00  0.00    -0.282 N 
ATOM     11  N   UNL     1      34.366 -15.882 -24.273  0.00  0.00    -0.305 N 
ATOM     12  C   UNL     1      33.741 -15.770 -22.099  0.00  0.00    +0.079 A 
ATOM     13  C   UNL     1      34.753 -17.112 -23.669  0.00  0.00    +0.328 A 
ATOM     14  C   UNL     1      33.754 -15.080 -23.309  0.00  0.00    +0.077 A 
ATOM     15  C   UNL     1      33.195 -15.217 -20.960  0.00  0.00    +0.020 C 
ATOM     16  C   UNL     1      33.228 -13.815 -23.444  0.00  0.00    +0.030 C 
ATOM     17  C   UNL     1      32.653 -13.932 -21.071  0.00  0.00    +0.013 C 
ATOM     18  C   UNL     1      32.670 -13.239 -22.300  0.00  0.00    +0.059 C 
ATOM     19  H   UNL     1      34.508 -15.638 -25.216  0.00  0.00    +0.170 HD
ENDBRANCH   2  10
BRANCH   1  20
ATOM     20  C   UNL     1      35.214 -21.900 -19.589  0.00  0.00    -0.075 C 
BRANCH  20  21
ATOM     21  C   UNL     1      33.982 -22.115 -18.706  0.00  0.00    +0.002 C 
BRANCH  21  22
ATOM     22  C   UNL     1      33.881 -23.509 -18.091  0.00  0.00    +0.108 C 
BRANCH  22  24
ATOM     23  O   UNL     1      36.002 -23.668 -15.947  0.00  0.00    -0.247 OA
ATOM     24  N   UNL     1      33.740 -23.472 -16.660  0.00  0.00    -0.280 N 
ATOM     25  N   UNL     1      34.195 -23.476 -14.434  0.00  0.00    -0.305 N 
ATOM     26  C   UNL     1      32.528 -23.348 -15.960  0.00  0.00    +0.079 A 
ATOM     27  C   UNL     1      34.806 -23.554 -15.717  0.00  0.00    +0.328 A 
ATOM     28  C   UNL     1      32.815 -23.352 -14.597  0.00  0.00    +0.076 A 
ATOM     29  C   UNL     1      31.233 -23.237 -16.424  0.00  0.00    +0.019 C 
ATOM     30  C   UNL     1      31.835 -23.245 -13.635  0.00  0.00    +0.019 C 
ATOM     31  C   UNL     1      30.220 -23.127 -15.466  0.00  0.00    +0.002 C 
ATOM     32  C   UNL     1      30.517 -23.130 -14.087  0.00  0.00    +0.002 C 
ATOM     33  H   UNL     1      34.669 -23.505 -13.571  0.00  0.00    +0.170 HD
ENDBRANCH  22  24
ENDBRANCH  21  22
ENDBRANCH  20  21
ENDBRANCH   1  20
TORSDOF 5
ENDMDL
MODEL 5
REMARK VINA RESULT:     -11.9      3.463     10.238
REMARK  Name = 3151
REMARK  5 active torsions:
REMARK  status: ('A' for Active; 'I' for Inactive)
REMARK    1  A    between atoms: N_1  and  C_20
REMARK    2  A    between atoms: C_2  and  N_10
REMARK    3  A    between atoms: C_20  and  C_21
REMARK    4  A    between atoms: C_21  and  C_22
REMARK    5  A    between atoms: C_22  and  N_24
REMARK                            x       y       z     vdW  Elec       q    Type
REMARK                         _______ _______ _______ _____ _____    ______ ____
ROOT
ATOM      1  N   UNL     1      34.249 -16.677 -24.174  0.00  0.00    +0.387 N 
ATOM      2  C   UNL     1      34.055 -13.767 -23.954  0.00  0.00    +0.086 C 
ATOM      3  C   UNL     1      34.547 -14.641 -22.801  0.00  0.00    -0.000 C 
ATOM      4  C   UNL     1      33.152 -14.578 -24.883  0.00  0.00    -0.000 C 
ATOM      5  C   UNL     1      35.182 -15.934 -23.316  0.00  0.00    -0.075 C 
ATOM      6  C   UNL     1      33.834 -15.872 -25.330  0.00  0.00    -0.075 C 
ATOM      7  H   UNL     1      33.417 -16.890 -23.624  0.00  0.00    -0.080 HD
ENDROOT
BRANCH   2  10
ATOM      8 CL   UNL     1      34.127  -6.837 -24.183  0.00  0.00    -0.082 Cl
ATOM      9  O   UNL     1      31.654 -13.533 -22.107  0.00  0.00    -0.247 OA
ATOM     10  N   UNL     1      33.374 -12.598 -23.457  0.00  0.00    -0.282 N 
ATOM     11  N   UNL     1      31.943 -11.202 -22.388  0.00  0.00    -0.305 N 
ATOM     12  C   UNL     1      33.736 -11.281 -23.770  0.00  0.00    +0.079 A 
ATOM     13  C   UNL     1      32.248 -12.578 -22.589  0.00  0.00    +0.328 A 
ATOM     14  C   UNL     1      32.853 -10.429 -23.109  0.00  0.00    +0.077 A 
ATOM     15  C   UNL     1      34.751 -10.791 -24.566  0.00  0.00    +0.020 C 
ATOM     16  C   UNL     1      32.936  -9.058 -23.208  0.00  0.00    +0.030 C 
ATOM     17  C   UNL     1      34.856  -9.401 -24.681  0.00  0.00    +0.013 C 
ATOM     18  C   UNL     1      33.959  -8.545 -24.010  0.00  0.00    +0.059 C 
ATOM     19  H   UNL     1      31.210 -10.854 -21.831  0.00  0.00    +0.170 HD
ENDBRANCH   2  10
BRANCH   1  20
ATOM     20  C   UNL     1      34.853 -17.935 -24.618  0.00  0.00    -0.075 C 
BRANCH  20  21
ATOM     21  C   UNL     1      34.460 -19.108 -23.716  0.00  0.00    +0.002 C 
BRANCH  21  22
ATOM     22  C   UNL     1      34.188 -18.724 -22.263  0.00  0.00    +0.108 C 
BRANCH  22  24
ATOM     23  O   UNL     1      37.162 -18.430 -21.836  0.00  0.00    -0.247 OA
ATOM     24  N   UNL     1      35.051 -19.410 -21.341  0.00  0.00    -0.280 N 
ATOM     25  N   UNL     1      36.882 -20.096 -20.182  0.00  0.00    -0.305 N 
ATOM     26  C   UNL     1      34.651 -20.394 -20.421  0.00  0.00    +0.079 A 
ATOM     27  C   UNL     1      36.456 -19.206 -21.207  0.00  0.00    +0.328 A 
ATOM     28  C   UNL     1      35.777 -20.810 -19.715  0.00  0.00    +0.076 A 
ATOM     29  C   UNL     1      33.404 -20.931 -20.171  0.00  0.00    +0.019 C 
ATOM     30  C   UNL     1      35.720 -21.773 -18.733  0.00  0.00    +0.019 C 
ATOM     31  C   UNL     1      33.321 -21.912 -19.177  0.00  0.00    +0.002 C 
ATOM     32  C   UNL     1      34.466 -22.328 -18.465  0.00  0.00    +0.002 C 
ATOM     33  H   UNL     1      37.807 -20.194 -19.855  0.00  0.00    +0.170 HD
ENDBRANCH  22  24
ENDBRANCH  21  22
ENDBRANCH  20  21
ENDBRANCH   1  20
TORSDOF 5
ENDMDL
MODEL 6
REMARK VINA RESULT:     -11.9      1.651      2.099
REMARK  Name = 3151
REMARK  5 active torsions:
REMARK  status: ('A' for Active; 'I' for Inactive)
REMARK    1  A    between atoms: N_1  and  C_20
REMARK    2  A    between atoms: C_2  and  N_10
REMARK    3  A    between atoms: C_20  and  C_21
REMARK    4  A    between atoms: C_21  and  C_22
REMARK    5  A    between atoms: C_22  and  N_24
REMARK                            x       y       z     vdW  Elec       q    Type
REMARK                         _______ _______ _______ _____ _____    ______ ____
ROOT
ATOM      1  N   UNL     1      34.411 -15.573 -23.828  0.00  0.00    +0.387 N 
ATOM      2  C   UNL     1      34.430 -18.021 -22.226  0.00  0.00    +0.086 C 
ATOM      3  C   UNL     1      34.492 -16.631 -21.592  0.00  0.00    -0.000 C 
ATOM      4  C   UNL     1      34.973 -17.976 -23.654  0.00  0.00    -0.000 C 
ATOM      5  C   UNL     1      33.819 -15.585 -22.483  0.00  0.00    -0.075 C 
ATOM      6  C   UNL     1      34.282 -16.886 -24.476  0.00  0.00    -0.075 C 
ATOM      7  H   UNL     1      35.404 -15.366 -23.733  0.00  0.00    -0.080 HD
ENDROOT
BRANCH   2  10
ATOM      8 CL   UNL     1      33.527 -23.334 -17.864  0.00  0.00    -0.082 Cl
ATOM      9  O   UNL     1      37.419 -18.422 -21.860  0.00  0.00    -0.247 OA
ATOM     10  N   UNL     1      35.150 -18.981 -21.427  0.00  0.00    -0.282 N 
ATOM     11  N   UNL     1      36.784 -20.185 -20.417  0.00  0.00    -0.305 N 
ATOM     12  C   UNL     1      34.540 -19.959 -20.629  0.00  0.00    +0.079 A 
ATOM     13  C   UNL     1      36.561 -19.100 -21.313  0.00  0.00    +0.328 A 
ATOM     14  C   UNL     1      35.550 -20.695 -20.012  0.00  0.00    +0.077 A 
ATOM     15  C   UNL     1      33.207 -20.241 -20.413  0.00  0.00    +0.020 C 
ATOM     16  C   UNL     1      35.284 -21.740 -19.156  0.00  0.00    +0.030 C 
ATOM     17  C   UNL     1      32.912 -21.298 -19.546  0.00  0.00    +0.013 C 
ATOM     18  C   UNL     1      33.939 -22.039 -18.925  0.00  0.00    +0.059 C 
ATOM     19  H   UNL     1      37.664 -20.520 -20.132  0.00  0.00    +0.170 HD
ENDBRANCH   2  10
BRANCH   1  20
ATOM     20  C   UNL     1      33.790 -14.534 -24.650  0.00  0.00    -0.075 C 
BRANCH  20  21
ATOM     21  C   UNL     1      33.905 -13.150 -24.005  0.00  0.00    +0.002 C 
BRANCH  21  22
ATOM     22  C   UNL     1      33.364 -12.007 -24.862  0.00  0.00    +0.108 C 
BRANCH  22  24
ATOM     23  O   UNL     1      35.746 -10.403 -25.794  0.00  0.00    -0.247 OA
ATOM     24  N   UNL     1      33.828 -10.720 -24.421  0.00  0.00    -0.280 N 
ATOM     25  N   UNL     1      35.040  -8.811 -24.196  0.00  0.00    -0.305 N 
ATOM     26  C   UNL     1      33.229  -9.931 -23.425  0.00  0.00    +0.079 A 
ATOM     27  C   UNL     1      34.973 -10.033 -24.921  0.00  0.00    +0.328 A 
ATOM     28  C   UNL     1      33.977  -8.763 -23.292  0.00  0.00    +0.076 A 
ATOM     29  C   UNL     1      32.109 -10.161 -22.653  0.00  0.00    +0.019 C 
ATOM     30  C   UNL     1      33.650  -7.774 -22.392  0.00  0.00    +0.019 C 
ATOM     31  C   UNL     1      31.756  -9.171 -21.730  0.00  0.00    +0.002 C 
ATOM     32  C   UNL     1      32.517  -7.990 -21.601  0.00  0.00    +0.002 C 
ATOM     33  H   UNL     1      35.725  -8.112 -24.311  0.00  0.00    +0.170 HD
ENDBRANCH  22  24
ENDBRANCH  21  22
ENDBRANCH  20  21
ENDBRANCH   1  20
TORSDOF 5
ENDMDL
MODEL 7
REMARK VINA RESULT:     -11.8      4.528     11.609
REMARK  Name = 3151
REMARK  5 active torsions:
REMARK  status: ('A' for Active; 'I' for Inactive)
REMARK    1  A    between atoms: N_1  and  C_20
REMARK    2  A    between atoms: C_2  and  N_10
REMARK    3  A    between atoms: C_20  and  C_21
REMARK    4  A    between atoms: C_21  and  C_22
REMARK    5  A    between atoms: C_22  and  N_24
REMARK                            x       y       z     vdW  Elec       q    Type
REMARK                         _______ _______ _______ _____ _____    ______ ____
ROOT
ATOM      1  N   UNL     1      35.002 -21.397 -19.841  0.00  0.00    +0.387 N 
ATOM      2  C   UNL     1      34.724 -18.816 -21.190  0.00  0.00    +0.086 C 
ATOM      3  C   UNL     1      33.573 -19.818 -21.102  0.00  0.00    -0.000 C 
ATOM      4  C   UNL     1      36.066 -19.541 -21.082  0.00  0.00    -0.000 C 
ATOM      5  C   UNL     1      33.705 -20.706 -19.863  0.00  0.00    -0.075 C 
ATOM      6  C   UNL     1      36.114 -20.437 -19.843  0.00  0.00    -0.075 C 
ATOM      7  H   UNL     1      35.072 -21.962 -20.686  0.00  0.00    -0.080 HD
ENDROOT
BRANCH   2  10
ATOM      8 CL   UNL     1      33.719 -12.393 -23.600  0.00  0.00    -0.082 Cl
ATOM      9  O   UNL     1      35.003 -19.698 -24.085  0.00  0.00    -0.247 OA
ATOM     10  N   UNL     1      34.645 -18.050 -22.409  0.00  0.00    -0.282 N 
ATOM     11  N   UNL     1      34.630 -17.417 -24.586  0.00  0.00    -0.305 N 
ATOM     12  C   UNL     1      34.408 -16.670 -22.459  0.00  0.00    +0.079 A 
ATOM     13  C   UNL     1      34.789 -18.547 -23.733  0.00  0.00    +0.328 A 
ATOM     14  C   UNL     1      34.401 -16.288 -23.799  0.00  0.00    +0.077 A 
ATOM     15  C   UNL     1      34.206 -15.754 -21.447  0.00  0.00    +0.020 C 
ATOM     16  C   UNL     1      34.193 -14.986 -24.195  0.00  0.00    +0.030 C 
ATOM     17  C   UNL     1      33.992 -14.424 -21.824  0.00  0.00    +0.013 C 
ATOM     18  C   UNL     1      33.986 -14.045 -23.183  0.00  0.00    +0.059 C 
ATOM     19  H   UNL     1      34.676 -17.431 -25.569  0.00  0.00    +0.170 HD
ENDBRANCH   2  10
BRANCH   1  20
ATOM     20  C   UNL     1      35.091 -22.279 -18.676  0.00  0.00    -0.075 C 
BRANCH  20  21
ATOM     21  C   UNL     1      36.365 -22.028 -17.865  0.00  0.00    +0.002 C 
BRANCH  21  22
ATOM     22  C   UNL     1      36.145 -21.933 -16.357  0.00  0.00    +0.108 C 
BRANCH  22  24
ATOM     23  O   UNL     1      33.575 -23.391 -15.740  0.00  0.00    -0.247 OA
ATOM     24  N   UNL     1      35.948 -23.220 -15.747  0.00  0.00    -0.280 N 
ATOM     25  N   UNL     1      34.981 -25.086 -14.883  0.00  0.00    -0.305 N 
ATOM     26  C   UNL     1      36.966 -24.080 -15.302  0.00  0.00    +0.079 A 
ATOM     27  C   UNL     1      34.687 -23.834 -15.492  0.00  0.00    +0.328 A 
ATOM     28  C   UNL     1      36.366 -25.222 -14.774  0.00  0.00    +0.076 A 
ATOM     29  C   UNL     1      38.337 -23.934 -15.329  0.00  0.00    +0.019 C 
ATOM     30  C   UNL     1      37.096 -26.265 -14.251  0.00  0.00    +0.019 C 
ATOM     31  C   UNL     1      39.101 -24.981 -14.803  0.00  0.00    +0.002 C 
ATOM     32  C   UNL     1      38.488 -26.134 -14.271  0.00  0.00    +0.002 C 
ATOM     33  H   UNL     1      34.316 -25.750 -14.585  0.00  0.00    +0.170 HD
ENDBRANCH  22  24
ENDBRANCH  21  22
ENDBRANCH  20  21
ENDBRANCH   1  20
TORSDOF 5
ENDMDL
MODEL 8
REMARK VINA RESULT:     -11.6      3.192      4.951
REMARK  Name = 3151
REMARK  5 active torsions:
REMARK  status: ('A' for Active; 'I' for Inactive)
REMARK    1  A    between atoms: N_1  and  C_20
REMARK    2  A    between atoms: C_2  and  N_10
REMARK    3  A    between atoms: C_20  and  C_21
REMARK    4  A    between atoms: C_21  and  C_22
REMARK    5  A    between atoms: C_22  and  N_24
REMARK                            x       y       z     vdW  Elec       q    Type
REMARK                         _______ _______ _______ _____ _____    ______ ____
ROOT
ATOM      1  N   UNL     1      32.773 -11.635 -22.506  0.00  0.00    +0.387 N 
ATOM      2  C   UNL     1      33.013 -14.180 -23.928  0.00  0.00    +0.086 C 
ATOM      3  C   UNL     1      32.547 -14.098 -22.474  0.00  0.00    -0.000 C 
ATOM      4  C   UNL     1      33.876 -12.966 -24.275  0.00  0.00    -0.000 C 
ATOM      5  C   UNL     1      31.878 -12.754 -22.181  0.00  0.00    -0.075 C 
ATOM      6  C   UNL     1      33.162 -11.660 -23.923  0.00  0.00    -0.075 C 
ATOM      7  H   UNL     1      33.619 -11.735 -21.946  0.00  0.00    -0.080 HD
ENDROOT
BRANCH   2  10
ATOM      8 CL   UNL     1      36.479 -19.256 -20.718  0.00  0.00    -0.082 Cl
ATOM      9  O   UNL     1      33.576 -15.644 -26.530  0.00  0.00    -0.247 OA
ATOM     10  N   UNL     1      33.727 -15.410 -24.169  0.00  0.00    -0.282 N 
ATOM     11  N   UNL     1      34.692 -17.209 -25.153  0.00  0.00    -0.305 N 
ATOM     12  C   UNL     1      34.321 -16.187 -23.166  0.00  0.00    +0.079 A 
ATOM     13  C   UNL     1      33.945 -16.029 -25.429  0.00  0.00    +0.328 A 
ATOM     14  C   UNL     1      34.912 -17.291 -23.777  0.00  0.00    +0.077 A 
ATOM     15  C   UNL     1      34.378 -16.003 -21.800  0.00  0.00    +0.020 C 
ATOM     16  C   UNL     1      35.585 -18.258 -23.064  0.00  0.00    +0.030 C 
ATOM     17  C   UNL     1      35.057 -16.971 -21.054  0.00  0.00    +0.013 C 
ATOM     18  C   UNL     1      35.653 -18.086 -21.679  0.00  0.00    +0.059 C 
ATOM     19  H   UNL     1      35.002 -17.861 -25.822  0.00  0.00    +0.170 HD
ENDBRANCH   2  10
BRANCH   1  20
ATOM     20  C   UNL     1      32.138 -10.359 -22.174  0.00  0.00    -0.075 C 
BRANCH  20  21
ATOM     21  C   UNL     1      32.446  -9.278 -23.213  0.00  0.00    +0.002 C 
BRANCH  21  22
ATOM     22  C   UNL     1      33.344  -8.152 -22.706  0.00  0.00    +0.108 C 
BRANCH  22  24
ATOM     23  O   UNL     1      32.210  -7.186 -20.080  0.00  0.00    -0.247 OA
ATOM     24  N   UNL     1      32.609  -6.951 -22.414  0.00  0.00    -0.280 N 
ATOM     25  N   UNL     1      31.456  -5.323 -21.325  0.00  0.00    -0.305 N 
ATOM     26  C   UNL     1      32.266  -5.954 -23.343  0.00  0.00    +0.079 A 
ATOM     27  C   UNL     1      32.108  -6.574 -21.133  0.00  0.00    +0.328 A 
ATOM     28  C   UNL     1      31.559  -4.961 -22.669  0.00  0.00    +0.076 A 
ATOM     29  C   UNL     1      32.524  -5.864 -24.695  0.00  0.00    +0.019 C 
ATOM     30  C   UNL     1      31.078  -3.837 -23.302  0.00  0.00    +0.019 C 
ATOM     31  C   UNL     1      32.044  -4.731 -25.361  0.00  0.00    +0.002 C 
ATOM     32  C   UNL     1      31.330  -3.728 -24.672  0.00  0.00    +0.002 C 
ATOM     33  H   UNL     1      31.003  -4.799 -20.623  0.00  0.00    +0.170 HD
ENDBRANCH  22  24
ENDBRANCH  21  22
ENDBRANCH  20  21
ENDBRANCH   1  20
TORSDOF 5
ENDMDL
MODEL 9
REMARK VINA RESULT:     -11.5      4.778     11.234
REMARK  Name = 3151
REMARK  5 active torsions:
REMARK  status: ('A' for Active; 'I' for Inactive)
REMARK    1  A    between atoms: N_1  and  C_20
REMARK    2  A    between atoms: C_2  and  N_10
REMARK    3  A    between atoms: C_20  and  C_21
REMARK    4  A    between atoms: C_21  and  C_22
REMARK    5  A    between atoms: C_22  and  N_24
REMARK                            x       y       z     vdW  Elec       q    Type
REMARK                         _______ _______ _______ _____ _____    ______ ____
ROOT
ATOM      1  N   UNL     1      32.866 -11.366 -23.925  0.00  0.00    +0.387 N 
ATOM      2  C   UNL     1      32.885  -9.022 -22.175  0.00  0.00    +0.086 C 
ATOM      3  C   UNL     1      31.703  -9.989 -22.229  0.00  0.00    -0.000 C 
ATOM      4  C   UNL     1      33.666  -9.067 -23.489  0.00  0.00    -0.000 C 
ATOM      5  C   UNL     1      32.153 -11.393 -22.640  0.00  0.00    -0.075 C 
ATOM      6  C   UNL     1      34.051 -10.501 -23.856  0.00  0.00    -0.075 C 
ATOM      7  H   UNL     1      32.235 -10.981 -24.627  0.00  0.00    -0.080 HD
ENDROOT
BRANCH   2  10
ATOM      8 CL   UNL     1      30.676  -3.174 -25.175  0.00  0.00    -0.082 Cl
ATOM      9  O   UNL     1      32.556  -7.603 -19.509  0.00  0.00    -0.247 OA
ATOM     10  N   UNL     1      32.439  -7.683 -21.882  0.00  0.00    -0.282 N 
ATOM     11  N   UNL     1      31.841  -5.771 -20.822  0.00  0.00    -0.305 N 
ATOM     12  C   UNL     1      32.056  -6.749 -22.854  0.00  0.00    +0.079 A 
ATOM     13  C   UNL     1      32.313  -7.095 -20.594  0.00  0.00    +0.328 A 
ATOM     14  C   UNL     1      31.690  -5.576 -22.195  0.00  0.00    +0.077 A 
ATOM     15  C   UNL     1      32.007  -6.849 -24.229  0.00  0.00    +0.020 C 
ATOM     16  C   UNL     1      31.260  -4.455 -22.868  0.00  0.00    +0.030 C 
ATOM     17  C   UNL     1      31.574  -5.722 -24.935  0.00  0.00    +0.013 C 
ATOM     18  C   UNL     1      31.204  -4.538 -24.262  0.00  0.00    +0.059 C 
ATOM     19  H   UNL     1      31.651  -5.103 -20.124  0.00  0.00    +0.170 HD
ENDBRANCH   2  10
BRANCH   1  20
ATOM     20  C   UNL     1      33.245 -12.722 -24.327  0.00  0.00    -0.075 C 
BRANCH  20  21
ATOM     21  C   UNL     1      33.198 -13.701 -23.150  0.00  0.00    +0.002 C 
BRANCH  21  22
ATOM     22  C   UNL     1      34.569 -14.118 -22.621  0.00  0.00    +0.108 C 
BRANCH  22  24
ATOM     23  O   UNL     1      34.807 -15.481 -19.938  0.00  0.00    -0.247 OA
ATOM     24  N   UNL     1      34.636 -15.520 -22.311  0.00  0.00    -0.280 N 
ATOM     25  N   UNL     1      34.782 -17.489 -21.186  0.00  0.00    -0.305 N 
ATOM     26  C   UNL     1      34.603 -16.568 -23.246  0.00  0.00    +0.079 A 
ATOM     27  C   UNL     1      34.749 -16.078 -21.004  0.00  0.00    +0.328 A 
ATOM     28  C   UNL     1      34.693 -17.772 -22.550  0.00  0.00    +0.076 A 
ATOM     29  C   UNL     1      34.502 -16.537 -24.622  0.00  0.00    +0.019 C 
ATOM     30  C   UNL     1      34.686 -18.994 -23.183  0.00  0.00    +0.019 C 
ATOM     31  C   UNL     1      34.494 -17.767 -25.288  0.00  0.00    +0.002 C 
ATOM     32  C   UNL     1      34.584 -18.983 -24.577  0.00  0.00    +0.002 C 
ATOM     33  H   UNL     1      34.856 -18.159 -20.467  0.00  0.00    +0.170 HD
ENDBRANCH  22  24
ENDBRANCH  21  22
ENDBRANCH  20  21
ENDBRANCH   1  20
TORSDOF 5
ENDMDL
