MODEL 1
REMARK VINA RESULT:      -9.5      0.000      0.000
REMARK  Name = 25220914
REMARK  8 active torsions:
REMARK  status: ('A' for Active; 'I' for Inactive)
REMARK    1  A    between atoms: N_2  and  C_21
REMARK    2  A    between atoms: C_3  and  C_7
REMARK    3  A    between atoms: C_11  and  C_12
REMARK    4  A    between atoms: C_12  and  N_13
REMARK    5  A    between atoms: C_12  and  C_17
REMARK    6  A    between atoms: C_17  and  C_18
REMARK    7  A    between atoms: C_21  and  C_22
REMARK    8  A    between atoms: C_27  and  C_30
REMARK                            x       y       z     vdW  Elec       q    Type
REMARK                         _______ _______ _______ _____ _____    ______ ____
ROOT
ATOM      1  O   UNL     1      34.193 -17.284 -23.279  0.00  0.00    -0.273 OA
ATOM      2  N   UNL     1      35.582 -17.755 -21.470  0.00  0.00    -0.299 N 
ATOM      3  C   UNL     1      34.779 -16.944 -22.254  0.00  0.00    +0.241 C 
ATOM      4  H   UNL     1      35.999 -17.367 -20.668  0.00  0.00    +0.150 HD
ENDROOT
BRANCH   3   7
ATOM      5  O   UNL     1      35.122 -14.501 -24.331  0.00  0.00    -0.277 OA
ATOM      6  N   UNL     1      33.705 -14.840 -22.533  0.00  0.00    -0.275 N 
ATOM      7  C   UNL     1      34.662 -15.556 -21.700  0.00  0.00    +0.152 C 
ATOM      8  C   UNL     1      34.042 -15.552 -20.307  0.00  0.00    +0.031 C 
ATOM      9  C   UNL     1      32.542 -15.509 -20.587  0.00  0.00    +0.024 C 
ATOM     10  C   UNL     1      32.443 -14.634 -21.828  0.00  0.00    +0.094 C 
ATOM     11  C   UNL     1      34.046 -14.305 -23.765  0.00  0.00    +0.205 C 
BRANCH  11  12
ATOM     12  C   UNL     1      32.989 -13.445 -24.414  0.00  0.00    +0.013 C 
BRANCH  12  13
ATOM     13  N   UNL     1      32.461 -14.243 -25.513  0.00  0.00    +0.387 N 
ATOM     14  H   UNL     1      33.164 -14.919 -25.811  0.00  0.00    -0.089 HD
ATOM     15  H   UNL     1      32.224 -13.631 -26.295  0.00  0.00    -0.089 HD
ATOM     16  H   UNL     1      31.624 -14.737 -25.202  0.00  0.00    -0.089 HD
ENDBRANCH  12  13
BRANCH  12  17
ATOM     17  C   UNL     1      33.594 -12.145 -24.945  0.00  0.00    -0.013 C 
BRANCH  17  18
ATOM     18  C   UNL     1      33.915 -11.090 -23.865  0.00  0.00    -0.002 C 
ATOM     19  C   UNL     1      32.615 -10.601 -23.220  0.00  0.00    -0.000 C 
ATOM     20  C   UNL     1      34.692  -9.898 -24.423  0.00  0.00    -0.000 C 
ENDBRANCH  17  18
ENDBRANCH  12  17
ENDBRANCH  11  12
ENDBRANCH   3   7
BRANCH   2  21
ATOM     21  C   UNL     1      35.837 -19.145 -21.775  0.00  0.00    +0.116 C 
BRANCH  21  22
ATOM     22  C   UNL     1      35.166 -20.067 -20.797  0.00  0.00    -0.003 C 
ATOM     23  C   UNL     1      35.931 -20.940 -20.024  0.00  0.00    -0.003 C 
ATOM     24  C   UNL     1      33.778 -20.050 -20.663  0.00  0.00    -0.003 C 
ATOM     25  C   UNL     1      35.309 -21.797 -19.117  0.00  0.00    +0.002 C 
ATOM     26  C   UNL     1      33.155 -20.906 -19.755  0.00  0.00    +0.002 C 
ATOM     27  C   UNL     1      33.921 -21.780 -18.983  0.00  0.00    +0.031 C 
BRANCH  27  30
ATOM     28  N   UNL     1      31.899 -22.604 -17.799  0.00  0.00    -0.343 N 
ATOM     29  N   UNL     1      33.985 -23.571 -17.381  0.00  0.00    -0.285 NA
ATOM     30  C   UNL     1      33.271 -22.674 -18.037  0.00  0.00    +0.117 C 
ATOM     31  H   UNL     1      31.480 -23.219 -17.154  0.00  0.00    +0.144 HD
ATOM     32  H   UNL     1      31.350 -21.940 -18.275  0.00  0.00    +0.144 HD
ATOM     33  H   UNL     1      33.547 -24.177 -16.741  0.00  0.00    +0.188 HD
ENDBRANCH  27  30
ENDBRANCH  21  22
ENDBRANCH   2  21
TORSDOF 8
ENDMDL
MODEL 2
REMARK VINA RESULT:      -9.4      2.925      9.536
REMARK  Name = 25220914
REMARK  8 active torsions:
REMARK  status: ('A' for Active; 'I' for Inactive)
REMARK    1  A    between atoms: N_2  and  C_21
REMARK    2  A    between atoms: C_3  and  C_7
REMARK    3  A    between atoms: C_11  and  C_12
REMARK    4  A    between atoms: C_12  and  N_13
REMARK    5  A    between atoms: C_12  and  C_17
REMARK    6  A    between atoms: C_17  and  C_18
REMARK    7  A    between atoms: C_21  and  C_22
REMARK    8  A    between atoms: C_27  and  C_30
REMARK                            x       y       z     vdW  Elec       q    Type
REMARK                         _______ _______ _______ _____ _____    ______ ____
ROOT
ATOM      1  O   UNL     1      34.940 -13.972 -23.508  0.00  0.00    -0.273 OA
ATOM      2  N   UNL     1      32.954 -12.763 -23.627  0.00  0.00    -0.299 N 
ATOM      3  C   UNL     1      33.732 -13.866 -23.317  0.00  0.00    +0.241 C 
ATOM      4  H   UNL     1      31.991 -12.797 -23.425  0.00  0.00    +0.150 HD
ENDROOT
BRANCH   3   7
ATOM      5  O   UNL     1      34.382 -16.890 -24.230  0.00  0.00    -0.277 OA
ATOM      6  N   UNL     1      33.883 -15.947 -22.176  0.00  0.00    -0.275 N 
ATOM      7  C   UNL     1      32.934 -14.959 -22.673  0.00  0.00    +0.152 C 
ATOM      8  C   UNL     1      32.200 -14.469 -21.430  0.00  0.00    +0.031 C 
ATOM      9  C   UNL     1      33.233 -14.640 -20.318  0.00  0.00    +0.024 C 
ATOM     10  C   UNL     1      33.972 -15.908 -20.719  0.00  0.00    +0.094 C 
ATOM     11  C   UNL     1      34.479 -16.888 -23.003  0.00  0.00    +0.205 C 
BRANCH  11  12
ATOM     12  C   UNL     1      35.295 -17.945 -22.301  0.00  0.00    +0.013 C 
BRANCH  12  13
ATOM     13  N   UNL     1      36.453 -18.171 -23.155  0.00  0.00    +0.387 N 
ATOM     14  H   UNL     1      36.693 -17.306 -23.639  0.00  0.00    -0.089 HD
ATOM     15  H   UNL     1      36.235 -18.895 -23.841  0.00  0.00    -0.089 HD
ATOM     16  H   UNL     1      37.244 -18.470 -22.584  0.00  0.00    -0.089 HD
ENDBRANCH  12  13
BRANCH  12  17
ATOM     17  C   UNL     1      34.493 -19.237 -22.141  0.00  0.00    -0.013 C 
BRANCH  17  18
ATOM     18  C   UNL     1      34.293 -19.700 -20.683  0.00  0.00    -0.002 C 
ATOM     19  C   UNL     1      35.436 -20.636 -20.278  0.00  0.00    -0.000 C 
ATOM     20  C   UNL     1      32.953 -20.405 -20.471  0.00  0.00    -0.000 C 
ENDBRANCH  17  18
ENDBRANCH  12  17
ENDBRANCH  11  12
ENDBRANCH   3   7
BRANCH   2  21
ATOM     21  C   UNL     1      33.488 -11.566 -24.235  0.00  0.00    +0.116 C 
BRANCH  21  22
ATOM     22  C   UNL     1      33.213 -10.344 -23.406  0.00  0.00    -0.003 C 
ATOM     23  C   UNL     1      33.983  -9.195 -23.581  0.00  0.00    -0.003 C 
ATOM     24  C   UNL     1      32.188 -10.360 -22.460  0.00  0.00    -0.003 C 
ATOM     25  C   UNL     1      33.729  -8.061 -22.811  0.00  0.00    +0.002 C 
ATOM     26  C   UNL     1      31.933  -9.225 -21.690  0.00  0.00    +0.002 C 
ATOM     27  C   UNL     1      32.704  -8.076 -21.865  0.00  0.00    +0.031 C 
BRANCH  27  30
ATOM     28  N   UNL     1      32.009  -5.702 -21.645  0.00  0.00    -0.343 N 
ATOM     29  N   UNL     1      32.608  -6.934 -19.753  0.00  0.00    -0.285 NA
ATOM     30  C   UNL     1      32.439  -6.892 -21.061  0.00  0.00    +0.117 C 
ATOM     31  H   UNL     1      31.836  -4.913 -21.082  0.00  0.00    +0.144 HD
ATOM     32  H   UNL     1      31.880  -5.649 -22.620  0.00  0.00    +0.144 HD
ATOM     33  H   UNL     1      32.428  -6.135 -19.206  0.00  0.00    +0.188 HD
ENDBRANCH  27  30
ENDBRANCH  21  22
ENDBRANCH   2  21
TORSDOF 8
ENDMDL
MODEL 3
REMARK VINA RESULT:      -9.3      4.940     11.417
REMARK  Name = 25220914
REMARK  8 active torsions:
REMARK  status: ('A' for Active; 'I' for Inactive)
REMARK    1  A    between atoms: N_2  and  C_21
REMARK    2  A    between atoms: C_3  and  C_7
REMARK    3  A    between atoms: C_11  and  C_12
REMARK    4  A    between atoms: C_12  and  N_13
REMARK    5  A    between atoms: C_12  and  C_17
REMARK    6  A    between atoms: C_17  and  C_18
REMARK    7  A    between atoms: C_21  and  C_22
REMARK    8  A    between atoms: C_27  and  C_30
REMARK                            x       y       z     vdW  Elec       q    Type
REMARK                         _______ _______ _______ _____ _____    ______ ____
ROOT
ATOM      1  O   UNL     1      34.032 -23.737 -17.041  0.00  0.00    -0.273 OA
ATOM      2  N   UNL     1      35.339 -22.093 -18.047  0.00  0.00    -0.299 N 
ATOM      3  C   UNL     1      34.926 -22.895 -16.996  0.00  0.00    +0.241 C 
ATOM      4  H   UNL     1      36.069 -21.452 -17.888  0.00  0.00    +0.150 HD
ENDROOT
BRANCH   3   7
ATOM      5  O   UNL     1      34.713 -25.111 -14.662  0.00  0.00    -0.277 OA
ATOM      6  N   UNL     1      36.482 -23.863 -15.480  0.00  0.00    -0.275 N 
ATOM      7  C   UNL     1      35.720 -22.650 -15.749  0.00  0.00    +0.152 C 
ATOM      8  C   UNL     1      36.774 -21.568 -15.952  0.00  0.00    +0.031 C 
ATOM      9  C   UNL     1      37.973 -22.339 -16.500  0.00  0.00    +0.024 C 
ATOM     10  C   UNL     1      37.901 -23.667 -15.762  0.00  0.00    +0.094 C 
ATOM     11  C   UNL     1      35.917 -24.980 -14.884  0.00  0.00    +0.205 C 
BRANCH  11  12
ATOM     12  C   UNL     1      36.884 -26.079 -14.517  0.00  0.00    +0.013 C 
BRANCH  12  13
ATOM     13  N   UNL     1      36.277 -27.309 -15.010  0.00  0.00    +0.387 N 
ATOM     14  H   UNL     1      36.376 -28.041 -14.307  0.00  0.00    -0.089 HD
ATOM     15  H   UNL     1      36.745 -27.598 -15.870  0.00  0.00    -0.089 HD
ATOM     16  H   UNL     1      35.288 -27.149 -15.197  0.00  0.00    -0.089 HD
ENDBRANCH  12  13
BRANCH  12  17
ATOM     17  C   UNL     1      37.076 -26.152 -13.002  0.00  0.00    -0.013 C 
BRANCH  17  18
ATOM     18  C   UNL     1      38.402 -25.551 -12.488  0.00  0.00    -0.002 C 
ATOM     19  C   UNL     1      38.179 -24.096 -12.065  0.00  0.00    -0.000 C 
ATOM     20  C   UNL     1      39.518 -25.618 -13.531  0.00  0.00    -0.000 C 
ENDBRANCH  17  18
ENDBRANCH  12  17
ENDBRANCH  11  12
ENDBRANCH   3   7
BRANCH   2  21
ATOM     21  C   UNL     1      34.749 -22.151 -19.364  0.00  0.00    +0.116 C 
BRANCH  21  22
ATOM     22  C   UNL     1      34.856 -20.839 -20.086  0.00  0.00    -0.003 C 
ATOM     23  C   UNL     1      33.703 -20.192 -20.533  0.00  0.00    -0.003 C 
ATOM     24  C   UNL     1      36.108 -20.267 -20.311  0.00  0.00    -0.003 C 
ATOM     25  C   UNL     1      33.802 -18.975 -21.205  0.00  0.00    +0.002 C 
ATOM     26  C   UNL     1      36.207 -19.048 -20.982  0.00  0.00    +0.002 C 
ATOM     27  C   UNL     1      35.055 -18.403 -21.430  0.00  0.00    +0.031 C 
BRANCH  27  30
ATOM     28  N   UNL     1      35.608 -17.066 -23.448  0.00  0.00    -0.343 N 
ATOM     29  N   UNL     1      34.827 -16.011 -21.515  0.00  0.00    -0.285 NA
ATOM     30  C   UNL     1      35.159 -17.132 -22.130  0.00  0.00    +0.117 C 
ATOM     31  H   UNL     1      35.670 -16.195 -23.903  0.00  0.00    +0.144 HD
ATOM     32  H   UNL     1      35.863 -17.889 -23.924  0.00  0.00    +0.144 HD
ATOM     33  H   UNL     1      34.895 -15.150 -21.987  0.00  0.00    +0.188 HD
ENDBRANCH  27  30
ENDBRANCH  21  22
ENDBRANCH   2  21
TORSDOF 8
ENDMDL
MODEL 4
REMARK VINA RESULT:      -9.3      4.410      7.550
REMARK  Name = 25220914
REMARK  8 active torsions:
REMARK  status: ('A' for Active; 'I' for Inactive)
REMARK    1  A    between atoms: N_2  and  C_21
REMARK    2  A    between atoms: C_3  and  C_7
REMARK    3  A    between atoms: C_11  and  C_12
REMARK    4  A    between atoms: C_12  and  N_13
REMARK    5  A    between atoms: C_12  and  C_17
REMARK    6  A    between atoms: C_17  and  C_18
REMARK    7  A    between atoms: C_21  and  C_22
REMARK    8  A    between atoms: C_27  and  C_30
REMARK                            x       y       z     vdW  Elec       q    Type
REMARK                         _______ _______ _______ _____ _____    ______ ____
ROOT
ATOM      1  O   UNL     1      32.286  -9.373 -21.491  0.00  0.00    -0.273 OA
ATOM      2  N   UNL     1      32.163 -11.303 -22.788  0.00  0.00    -0.299 N 
ATOM      3  C   UNL     1      32.352  -9.948 -22.574  0.00  0.00    +0.241 C 
ATOM      4  H   UNL     1      32.242 -11.648 -23.705  0.00  0.00    +0.150 HD
ENDROOT
BRANCH   3   7
ATOM      5  O   UNL     1      30.234  -7.740 -23.594  0.00  0.00    -0.277 OA
ATOM      6  N   UNL     1      32.548  -7.793 -23.559  0.00  0.00    -0.275 N 
ATOM      7  C   UNL     1      32.686  -9.216 -23.838  0.00  0.00    +0.152 C 
ATOM      8  C   UNL     1      34.149  -9.393 -24.227  0.00  0.00    +0.031 C 
ATOM      9  C   UNL     1      34.858  -8.281 -23.458  0.00  0.00    +0.024 C 
ATOM     10  C   UNL     1      33.852  -7.140 -23.489  0.00  0.00    +0.094 C 
ATOM     11  C   UNL     1      31.316  -7.156 -23.532  0.00  0.00    +0.205 C 
BRANCH  11  12
ATOM     12  C   UNL     1      31.365  -5.653 -23.406  0.00  0.00    +0.013 C 
BRANCH  12  13
ATOM     13  N   UNL     1      30.371  -5.316 -22.396  0.00  0.00    +0.387 N 
ATOM     14  H   UNL     1      30.705  -5.611 -21.478  0.00  0.00    -0.089 HD
ATOM     15  H   UNL     1      29.494  -5.795 -22.608  0.00  0.00    -0.089 HD
ATOM     16  H   UNL     1      30.216  -4.308 -22.393  0.00  0.00    -0.089 HD
ENDBRANCH  12  13
BRANCH  12  17
ATOM     17  C   UNL     1      31.019  -4.983 -24.736  0.00  0.00    -0.013 C 
BRANCH  17  18
ATOM     18  C   UNL     1      32.166  -4.166 -25.368  0.00  0.00    -0.002 C 
ATOM     19  C   UNL     1      31.588  -2.959 -26.114  0.00  0.00    -0.000 C 
ATOM     20  C   UNL     1      33.020  -4.999 -26.323  0.00  0.00    -0.000 C 
ENDBRANCH  17  18
ENDBRANCH  12  17
ENDBRANCH  11  12
ENDBRANCH   3   7
BRANCH   2  21
ATOM     21  C   UNL     1      31.853 -12.234 -21.727  0.00  0.00    +0.116 C 
BRANCH  21  22
ATOM     22  C   UNL     1      32.717 -13.461 -21.785  0.00  0.00    -0.003 C 
ATOM     23  C   UNL     1      32.700 -14.376 -20.733  0.00  0.00    -0.003 C 
ATOM     24  C   UNL     1      33.538 -13.683 -22.891  0.00  0.00    -0.003 C 
ATOM     25  C   UNL     1      33.503 -15.515 -20.786  0.00  0.00    +0.002 C 
ATOM     26  C   UNL     1      34.341 -14.822 -22.945  0.00  0.00    +0.002 C 
ATOM     27  C   UNL     1      34.324 -15.738 -21.892  0.00  0.00    +0.031 C 
BRANCH  27  30
ATOM     28  N   UNL     1      35.360 -17.726 -20.824  0.00  0.00    -0.343 N 
ATOM     29  N   UNL     1      35.755 -17.260 -23.080  0.00  0.00    -0.285 NA
ATOM     30  C   UNL     1      35.162 -16.926 -21.948  0.00  0.00    +0.117 C 
ATOM     31  H   UNL     1      35.932 -18.526 -20.885  0.00  0.00    +0.144 HD
ATOM     32  H   UNL     1      34.930 -17.492 -19.971  0.00  0.00    +0.144 HD
ATOM     33  H   UNL     1      36.322 -18.064 -23.120  0.00  0.00    +0.188 HD
ENDBRANCH  27  30
ENDBRANCH  21  22
ENDBRANCH   2  21
TORSDOF 8
ENDMDL
MODEL 5
REMARK VINA RESULT:      -9.1      4.958     10.091
REMARK  Name = 25220914
REMARK  8 active torsions:
REMARK  status: ('A' for Active; 'I' for Inactive)
REMARK    1  A    between atoms: N_2  and  C_21
REMARK    2  A    between atoms: C_3  and  C_7
REMARK    3  A    between atoms: C_11  and  C_12
REMARK    4  A    between atoms: C_12  and  N_13
REMARK    5  A    between atoms: C_12  and  C_17
REMARK    6  A    between atoms: C_17  and  C_18
REMARK    7  A    between atoms: C_21  and  C_22
REMARK    8  A    between atoms: C_27  and  C_30
REMARK                            x       y       z     vdW  Elec       q    Type
REMARK                         _______ _______ _______ _____ _____    ______ ____
ROOT
ATOM      1  O   UNL     1      34.081 -24.273 -15.861  0.00  0.00    -0.273 OA
ATOM      2  N   UNL     1      32.936 -22.889 -17.343  0.00  0.00    -0.299 N 
ATOM      3  C   UNL     1      33.189 -23.466 -16.110  0.00  0.00    +0.241 C 
ATOM      4  H   UNL     1      32.190 -22.253 -17.419  0.00  0.00    +0.150 HD
ENDROOT
BRANCH   3   7
ATOM      5  O   UNL     1      30.395 -22.197 -17.101  0.00  0.00    -0.277 OA
ATOM      6  N   UNL     1      30.948 -23.570 -15.322  0.00  0.00    -0.275 N 
ATOM      7  C   UNL     1      32.249 -22.975 -15.051  0.00  0.00    +0.152 C 
ATOM      8  C   UNL     1      32.631 -23.493 -13.669  0.00  0.00    +0.031 C 
ATOM      9  C   UNL     1      31.928 -24.846 -13.591  0.00  0.00    +0.024 C 
ATOM     10  C   UNL     1      30.629 -24.608 -14.346  0.00  0.00    +0.094 C 
ATOM     11  C   UNL     1      30.091 -23.075 -16.293  0.00  0.00    +0.205 C 
BRANCH  11  12
ATOM     12  C   UNL     1      28.715 -23.695 -16.323  0.00  0.00    +0.013 C 
BRANCH  12  13
ATOM     13  N   UNL     1      28.931 -25.101 -16.640  0.00  0.00    +0.387 N 
ATOM     14  H   UNL     1      28.836 -25.659 -15.792  0.00  0.00    -0.089 HD
ATOM     15  H   UNL     1      29.869 -25.223 -17.025  0.00  0.00    -0.089 HD
ATOM     16  H   UNL     1      28.240 -25.404 -17.326  0.00  0.00    -0.089 HD
ENDBRANCH  12  13
BRANCH  12  17
ATOM     17  C   UNL     1      27.843 -23.037 -17.392  0.00  0.00    -0.013 C 
BRANCH  17  18
ATOM     18  C   UNL     1      27.089 -21.773 -16.926  0.00  0.00    -0.002 C 
ATOM     19  C   UNL     1      26.379 -22.058 -15.599  0.00  0.00    -0.000 C 
ATOM     20  C   UNL     1      26.072 -21.285 -17.959  0.00  0.00    -0.000 C 
ENDBRANCH  17  18
ENDBRANCH  12  17
ENDBRANCH  11  12
ENDBRANCH   3   7
BRANCH   2  21
ATOM     21  C   UNL     1      33.717 -23.178 -18.525  0.00  0.00    +0.116 C 
BRANCH  21  22
ATOM     22  C   UNL     1      34.025 -21.937 -19.312  0.00  0.00    -0.003 C 
ATOM     23  C   UNL     1      35.351 -21.571 -19.546  0.00  0.00    -0.003 C 
ATOM     24  C   UNL     1      32.986 -21.150 -19.808  0.00  0.00    -0.003 C 
ATOM     25  C   UNL     1      35.638 -20.419 -20.275  0.00  0.00    +0.002 C 
ATOM     26  C   UNL     1      33.274 -19.997 -20.539  0.00  0.00    +0.002 C 
ATOM     27  C   UNL     1      34.599 -19.631 -20.772  0.00  0.00    +0.031 C 
BRANCH  27  30
ATOM     28  N   UNL     1      34.907 -18.437 -22.928  0.00  0.00    -0.343 N 
ATOM     29  N   UNL     1      35.173 -17.301 -20.903  0.00  0.00    -0.285 NA
ATOM     30  C   UNL     1      34.899 -18.428 -21.534  0.00  0.00    +0.117 C 
ATOM     31  H   UNL     1      35.112 -17.611 -23.423  0.00  0.00    +0.144 HD
ATOM     32  H   UNL     1      34.708 -19.268 -23.417  0.00  0.00    +0.144 HD
ATOM     33  H   UNL     1      35.375 -16.485 -21.416  0.00  0.00    +0.188 HD
ENDBRANCH  27  30
ENDBRANCH  21  22
ENDBRANCH   2  21
TORSDOF 8
ENDMDL
MODEL 6
REMARK VINA RESULT:      -9.0      3.262      9.451
REMARK  Name = 25220914
REMARK  8 active torsions:
REMARK  status: ('A' for Active; 'I' for Inactive)
REMARK    1  A    between atoms: N_2  and  C_21
REMARK    2  A    between atoms: C_3  and  C_7
REMARK    3  A    between atoms: C_11  and  C_12
REMARK    4  A    between atoms: C_12  and  N_13
REMARK    5  A    between atoms: C_12  and  C_17
REMARK    6  A    between atoms: C_17  and  C_18
REMARK    7  A    between atoms: C_21  and  C_22
REMARK    8  A    between atoms: C_27  and  C_30
REMARK                            x       y       z     vdW  Elec       q    Type
REMARK                         _______ _______ _______ _____ _____    ______ ____
ROOT
ATOM      1  O   UNL     1      32.358 -15.300 -21.750  0.00  0.00    -0.273 OA
ATOM      2  N   UNL     1      32.772 -13.107 -22.415  0.00  0.00    -0.299 N 
ATOM      3  C   UNL     1      33.074 -14.452 -22.276  0.00  0.00    +0.241 C 
ATOM      4  H   UNL     1      33.429 -12.523 -22.856  0.00  0.00    +0.150 HD
ENDROOT
BRANCH   3   7
ATOM      5  O   UNL     1      35.163 -16.031 -20.393  0.00  0.00    -0.277 OA
ATOM      6  N   UNL     1      34.623 -16.220 -22.636  0.00  0.00    -0.275 N 
ATOM      7  C   UNL     1      34.403 -14.799 -22.874  0.00  0.00    +0.152 C 
ATOM      8  C   UNL     1      34.395 -14.659 -24.392  0.00  0.00    +0.031 C 
ATOM      9  C   UNL     1      33.884 -16.015 -24.872  0.00  0.00    +0.024 C 
ATOM     10  C   UNL     1      34.486 -16.989 -23.870  0.00  0.00    +0.094 C 
ATOM     11  C   UNL     1      35.060 -16.711 -21.415  0.00  0.00    +0.205 C 
BRANCH  11  12
ATOM     12  C   UNL     1      35.407 -18.179 -21.392  0.00  0.00    +0.013 C 
BRANCH  12  13
ATOM     13  N   UNL     1      36.485 -18.338 -22.359  0.00  0.00    +0.387 N 
ATOM     14  H   UNL     1      37.382 -18.189 -21.896  0.00  0.00    -0.089 HD
ATOM     15  H   UNL     1      36.373 -17.655 -23.110  0.00  0.00    -0.089 HD
ATOM     16  H   UNL     1      36.456 -19.280 -22.748  0.00  0.00    -0.089 HD
ENDBRANCH  12  13
BRANCH  12  17
ATOM     17  C   UNL     1      34.202 -19.030 -21.796  0.00  0.00    -0.013 C 
BRANCH  17  18
ATOM     18  C   UNL     1      34.021 -20.327 -20.979  0.00  0.00    -0.002 C 
ATOM     19  C   UNL     1      32.787 -20.202 -20.081  0.00  0.00    -0.000 C 
ATOM     20  C   UNL     1      35.246 -20.656 -20.125  0.00  0.00    -0.000 C 
ENDBRANCH  17  18
ENDBRANCH  12  17
ENDBRANCH  11  12
ENDBRANCH   3   7
BRANCH   2  21
ATOM     21  C   UNL     1      31.538 -12.522 -21.942  0.00  0.00    +0.116 C 
BRANCH  21  22
ATOM     22  C   UNL     1      31.718 -11.089 -21.530  0.00  0.00    -0.003 C 
ATOM     23  C   UNL     1      32.034 -10.124 -22.485  0.00  0.00    -0.003 C 
ATOM     24  C   UNL     1      31.569 -10.724 -20.192  0.00  0.00    -0.003 C 
ATOM     25  C   UNL     1      32.202  -8.793 -22.104  0.00  0.00    +0.002 C 
ATOM     26  C   UNL     1      31.735  -9.393 -19.810  0.00  0.00    +0.002 C 
ATOM     27  C   UNL     1      32.052  -8.428 -20.766  0.00  0.00    +0.031 C 
BRANCH  27  30
ATOM     28  N   UNL     1      31.545  -6.009 -21.012  0.00  0.00    -0.343 N 
ATOM     29  N   UNL     1      33.048  -6.737 -19.378  0.00  0.00    -0.285 NA
ATOM     30  C   UNL     1      32.227  -7.039 -20.367  0.00  0.00    +0.117 C 
ATOM     31  H   UNL     1      31.679  -5.077 -20.726  0.00  0.00    +0.144 HD
ATOM     32  H   UNL     1      30.932  -6.214 -21.755  0.00  0.00    +0.144 HD
ATOM     33  H   UNL     1      33.167  -5.798 -19.105  0.00  0.00    +0.188 HD
ENDBRANCH  27  30
ENDBRANCH  21  22
ENDBRANCH   2  21
TORSDOF 8
ENDMDL
MODEL 7
REMARK VINA RESULT:      -9.0      2.259      3.599
REMARK  Name = 25220914
REMARK  8 active torsions:
REMARK  status: ('A' for Active; 'I' for Inactive)
REMARK    1  A    between atoms: N_2  and  C_21
REMARK    2  A    between atoms: C_3  and  C_7
REMARK    3  A    between atoms: C_11  and  C_12
REMARK    4  A    between atoms: C_12  and  N_13
REMARK    5  A    between atoms: C_12  and  C_17
REMARK    6  A    between atoms: C_17  and  C_18
REMARK    7  A    between atoms: C_21  and  C_22
REMARK    8  A    between atoms: C_27  and  C_30
REMARK                            x       y       z     vdW  Elec       q    Type
REMARK                         _______ _______ _______ _____ _____    ______ ____
ROOT
ATOM      1  O   UNL     1      36.781 -18.657 -21.702  0.00  0.00    -0.273 OA
ATOM      2  N   UNL     1      35.505 -20.320 -20.689  0.00  0.00    -0.299 N 
ATOM      3  C   UNL     1      35.714 -19.240 -21.530  0.00  0.00    +0.241 C 
ATOM      4  H   UNL     1      34.600 -20.704 -20.634  0.00  0.00    +0.150 HD
ENDROOT
BRANCH   3   7
ATOM      5  O   UNL     1      33.947 -16.867 -20.245  0.00  0.00    -0.277 OA
ATOM      6  N   UNL     1      34.510 -17.396 -22.427  0.00  0.00    -0.275 N 
ATOM      7  C   UNL     1      34.468 -18.843 -22.263  0.00  0.00    +0.152 C 
ATOM      8  C   UNL     1      34.448 -19.392 -23.685  0.00  0.00    +0.031 C 
ATOM      9  C   UNL     1      35.196 -18.330 -24.487  0.00  0.00    +0.024 C 
ATOM     10  C   UNL     1      34.782 -17.030 -23.814  0.00  0.00    +0.094 C 
ATOM     11  C   UNL     1      34.170 -16.521 -21.406  0.00  0.00    +0.205 C 
BRANCH  11  12
ATOM     12  C   UNL     1      34.095 -15.066 -21.796  0.00  0.00    +0.013 C 
BRANCH  12  13
ATOM     13  N   UNL     1      34.693 -14.336 -20.685  0.00  0.00    +0.387 N 
ATOM     14  H   UNL     1      34.345 -14.712 -19.804  0.00  0.00    -0.089 HD
ATOM     15  H   UNL     1      34.446 -13.348 -20.754  0.00  0.00    -0.089 HD
ATOM     16  H   UNL     1      35.708 -14.436 -20.720  0.00  0.00    -0.089 HD
ENDBRANCH  12  13
BRANCH  12  17
ATOM     17  C   UNL     1      32.644 -14.629 -21.997  0.00  0.00    -0.013 C 
BRANCH  17  18
ATOM     18  C   UNL     1      32.443 -13.511 -23.043  0.00  0.00    -0.002 C 
ATOM     19  C   UNL     1      33.691 -13.398 -23.923  0.00  0.00    -0.000 C 
ATOM     20  C   UNL     1      32.143 -12.157 -22.400  0.00  0.00    -0.000 C 
ENDBRANCH  17  18
ENDBRANCH  12  17
ENDBRANCH  11  12
ENDBRANCH   3   7
BRANCH   2  21
ATOM     21  C   UNL     1      36.552 -20.910 -19.886  0.00  0.00    +0.116 C 
BRANCH  21  22
ATOM     22  C   UNL     1      36.003 -21.636 -18.692  0.00  0.00    -0.003 C 
ATOM     23  C   UNL     1      36.783 -21.780 -17.544  0.00  0.00    -0.003 C 
ATOM     24  C   UNL     1      34.713 -22.166 -18.730  0.00  0.00    -0.003 C 
ATOM     25  C   UNL     1      36.274 -22.454 -16.435  0.00  0.00    +0.002 C 
ATOM     26  C   UNL     1      34.204 -22.840 -17.620  0.00  0.00    +0.002 C 
ATOM     27  C   UNL     1      34.984 -22.985 -16.473  0.00  0.00    +0.031 C 
BRANCH  27  30
ATOM     28  N   UNL     1      34.908 -24.960 -14.969  0.00  0.00    -0.343 N 
ATOM     29  N   UNL     1      33.519 -23.123 -14.573  0.00  0.00    -0.285 NA
ATOM     30  C   UNL     1      34.453 -23.688 -15.316  0.00  0.00    +0.117 C 
ATOM     31  H   UNL     1      34.534 -25.418 -14.182  0.00  0.00    +0.144 HD
ATOM     32  H   UNL     1      35.602 -25.399 -15.512  0.00  0.00    +0.144 HD
ATOM     33  H   UNL     1      33.158 -23.597 -13.789  0.00  0.00    +0.188 HD
ENDBRANCH  27  30
ENDBRANCH  21  22
ENDBRANCH   2  21
TORSDOF 8
ENDMDL
MODEL 8
REMARK VINA RESULT:      -9.0      3.005      9.845
REMARK  Name = 25220914
REMARK  8 active torsions:
REMARK  status: ('A' for Active; 'I' for Inactive)
REMARK    1  A    between atoms: N_2  and  C_21
REMARK    2  A    between atoms: C_3  and  C_7
REMARK    3  A    between atoms: C_11  and  C_12
REMARK    4  A    between atoms: C_12  and  N_13
REMARK    5  A    between atoms: C_12  and  C_17
REMARK    6  A    between atoms: C_17  and  C_18
REMARK    7  A    between atoms: C_21  and  C_22
REMARK    8  A    between atoms: C_27  and  C_30
REMARK                            x       y       z     vdW  Elec       q    Type
REMARK                         _______ _______ _______ _____ _____    ______ ____
ROOT
ATOM      1  O   UNL     1      33.497 -14.040 -25.192  0.00  0.00    -0.273 OA
ATOM      2  N   UNL     1      33.719 -12.480 -23.478  0.00  0.00    -0.299 N 
ATOM      3  C   UNL     1      33.373 -13.708 -24.016  0.00  0.00    +0.241 C 
ATOM      4  H   UNL     1      33.572 -12.332 -22.516  0.00  0.00    +0.150 HD
ENDROOT
BRANCH   3   7
ATOM      5  O   UNL     1      34.215 -16.811 -24.270  0.00  0.00    -0.277 OA
ATOM      6  N   UNL     1      33.961 -15.401 -22.453  0.00  0.00    -0.275 N 
ATOM      7  C   UNL     1      32.831 -14.649 -22.983  0.00  0.00    +0.152 C 
ATOM      8  C   UNL     1      32.265 -13.903 -21.780  0.00  0.00    +0.031 C 
ATOM      9  C   UNL     1      33.483 -13.702 -20.882  0.00  0.00    +0.024 C 
ATOM     10  C   UNL     1      34.289 -14.974 -21.095  0.00  0.00    +0.094 C 
ATOM     11  C   UNL     1      34.516 -16.480 -23.123  0.00  0.00    +0.205 C 
BRANCH  11  12
ATOM     12  C   UNL     1      35.559 -17.255 -22.356  0.00  0.00    +0.013 C 
BRANCH  12  13
ATOM     13  N   UNL     1      36.086 -18.233 -23.298  0.00  0.00    +0.387 N 
ATOM     14  H   UNL     1      37.086 -18.080 -23.424  0.00  0.00    -0.089 HD
ATOM     15  H   UNL     1      35.611 -18.132 -24.196  0.00  0.00    -0.089 HD
ATOM     16  H   UNL     1      35.930 -19.173 -22.934  0.00  0.00    -0.089 HD
ENDBRANCH  12  13
BRANCH  12  17
ATOM     17  C   UNL     1      34.937 -17.960 -21.150  0.00  0.00    -0.013 C 
BRANCH  17  18
ATOM     18  C   UNL     1      34.672 -19.468 -21.347  0.00  0.00    -0.002 C 
ATOM     19  C   UNL     1      33.219 -19.787 -20.980  0.00  0.00    -0.000 C 
ATOM     20  C   UNL     1      35.615 -20.340 -20.519  0.00  0.00    -0.000 C 
ENDBRANCH  17  18
ENDBRANCH  12  17
ENDBRANCH  11  12
ENDBRANCH   3   7
BRANCH   2  21
ATOM     21  C   UNL     1      34.286 -11.406 -24.261  0.00  0.00    +0.116 C 
BRANCH  21  22
ATOM     22  C   UNL     1      33.762 -10.064 -23.835  0.00  0.00    -0.003 C 
ATOM     23  C   UNL     1      32.482  -9.955 -23.292  0.00  0.00    -0.003 C 
ATOM     24  C   UNL     1      34.557  -8.927 -23.984  0.00  0.00    -0.003 C 
ATOM     25  C   UNL     1      31.996  -8.709 -22.898  0.00  0.00    +0.002 C 
ATOM     26  C   UNL     1      34.070  -7.681 -23.589  0.00  0.00    +0.002 C 
ATOM     27  C   UNL     1      32.790  -7.572 -23.047  0.00  0.00    +0.031 C 
BRANCH  27  30
ATOM     28  N   UNL     1      32.119  -5.951 -21.289  0.00  0.00    -0.343 N 
ATOM     29  N   UNL     1      31.964  -5.371 -23.547  0.00  0.00    -0.285 NA
ATOM     30  C   UNL     1      32.283  -6.272 -22.636  0.00  0.00    +0.117 C 
ATOM     31  H   UNL     1      31.774  -5.065 -21.034  0.00  0.00    +0.144 HD
ATOM     32  H   UNL     1      32.348  -6.610 -20.594  0.00  0.00    +0.144 HD
ATOM     33  H   UNL     1      31.621  -4.490 -23.272  0.00  0.00    +0.188 HD
ENDBRANCH  27  30
ENDBRANCH  21  22
ENDBRANCH   2  21
TORSDOF 8
ENDMDL
MODEL 9
REMARK VINA RESULT:      -8.9      6.905     10.287
REMARK  Name = 25220914
REMARK  8 active torsions:
REMARK  status: ('A' for Active; 'I' for Inactive)
REMARK    1  A    between atoms: N_2  and  C_21
REMARK    2  A    between atoms: C_3  and  C_7
REMARK    3  A    between atoms: C_11  and  C_12
REMARK    4  A    between atoms: C_12  and  N_13
REMARK    5  A    between atoms: C_12  and  C_17
REMARK    6  A    between atoms: C_17  and  C_18
REMARK    7  A    between atoms: C_21  and  C_22
REMARK    8  A    between atoms: C_27  and  C_30
REMARK                            x       y       z     vdW  Elec       q    Type
REMARK                         _______ _______ _______ _____ _____    ______ ____
ROOT
ATOM      1  O   UNL     1      35.475 -23.801 -12.933  0.00  0.00    -0.273 OA
ATOM      2  N   UNL     1      33.743 -24.737 -14.175  0.00  0.00    -0.299 N 
ATOM      3  C   UNL     1      35.067 -24.438 -13.900  0.00  0.00    +0.241 C 
ATOM      4  H   UNL     1      33.539 -25.257 -14.985  0.00  0.00    +0.150 HD
ENDROOT
BRANCH   3   7
ATOM      5  O   UNL     1      34.940 -23.185 -16.869  0.00  0.00    -0.277 OA
ATOM      6  N   UNL     1      36.699 -23.890 -15.541  0.00  0.00    -0.275 N 
ATOM      7  C   UNL     1      36.002 -25.010 -14.922  0.00  0.00    +0.152 C 
ATOM      8  C   UNL     1      37.104 -25.843 -14.279  0.00  0.00    +0.031 C 
ATOM      9  C   UNL     1      38.181 -24.813 -13.948  0.00  0.00    +0.024 C 
ATOM     10  C   UNL     1      38.092 -23.830 -15.106  0.00  0.00    +0.094 C 
ATOM     11  C   UNL     1      36.120 -23.107 -16.528  0.00  0.00    +0.205 C 
BRANCH  11  12
ATOM     12  C   UNL     1      37.039 -22.106 -17.184  0.00  0.00    +0.013 C 
BRANCH  12  13
ATOM     13  N   UNL     1      36.706 -20.822 -16.581  0.00  0.00    +0.387 N 
ATOM     14  H   UNL     1      37.548 -20.404 -16.184  0.00  0.00    -0.089 HD
ATOM     15  H   UNL     1      36.015 -20.961 -15.842  0.00  0.00    -0.089 HD
ATOM     16  H   UNL     1      36.323 -20.201 -17.293  0.00  0.00    -0.089 HD
ENDBRANCH  12  13
BRANCH  12  17
ATOM     17  C   UNL     1      36.805 -22.059 -18.694  0.00  0.00    -0.013 C 
BRANCH  17  18
ATOM     18  C   UNL     1      36.020 -20.826 -19.191  0.00  0.00    -0.002 C 
ATOM     19  C   UNL     1      34.649 -21.265 -19.715  0.00  0.00    -0.000 C 
ATOM     20  C   UNL     1      36.765 -20.059 -20.283  0.00  0.00    -0.000 C 
ENDBRANCH  17  18
ENDBRANCH  12  17
ENDBRANCH  11  12
ENDBRANCH   3   7
BRANCH   2  21
ATOM     21  C   UNL     1      32.647 -24.321 -13.330  0.00  0.00    +0.116 C 
BRANCH  21  22
ATOM     22  C   UNL     1      31.409 -24.019 -14.124  0.00  0.00    -0.003 C 
ATOM     23  C   UNL     1      31.257 -22.774 -14.734  0.00  0.00    -0.003 C 
ATOM     24  C   UNL     1      30.410 -24.984 -14.251  0.00  0.00    -0.003 C 
ATOM     25  C   UNL     1      30.107 -22.493 -15.470  0.00  0.00    +0.002 C 
ATOM     26  C   UNL     1      29.259 -24.704 -14.988  0.00  0.00    +0.002 C 
ATOM     27  C   UNL     1      29.108 -23.458 -15.597  0.00  0.00    +0.031 C 
BRANCH  27  30
ATOM     28  N   UNL     1      26.957 -22.255 -15.905  0.00  0.00    -0.343 N 
ATOM     29  N   UNL     1      27.701 -23.771 -17.520  0.00  0.00    -0.285 NA
ATOM     30  C   UNL     1      27.907 -23.166 -16.365  0.00  0.00    +0.117 C 
ATOM     31  H   UNL     1      26.152 -22.072 -16.441  0.00  0.00    +0.144 HD
ATOM     32  H   UNL     1      27.091 -21.795 -15.045  0.00  0.00    +0.144 HD
ATOM     33  H   UNL     1      26.889 -23.574 -18.042  0.00  0.00    +0.188 HD
ENDBRANCH  27  30
ENDBRANCH  21  22
ENDBRANCH   2  21
TORSDOF 8
ENDMDL
