MODEL 1
REMARK VINA RESULT:      -6.2      0.000      0.000
REMARK  Name = 444294
REMARK  0 active torsions:
REMARK  status: ('A' for Active; 'I' for Inactive)
REMARK                            x       y       z     vdW  Elec       q    Type
REMARK                         _______ _______ _______ _____ _____    ______ ____
ROOT
ATOM      1  O   UNL     1      36.890 -26.386 -11.649  0.00  0.00    -0.296 OA
ATOM      2  C   UNL     1      37.153 -24.559 -14.617  0.00  0.00    +0.007 C 
ATOM      3  C   UNL     1      37.745 -24.667 -13.185  0.00  0.00    +0.052 C 
ATOM      4  C   UNL     1      37.736 -25.937 -15.034  0.00  0.00    +0.008 C 
ATOM      5  C   UNL     1      39.249 -24.936 -13.424  0.00  0.00    +0.007 C 
ATOM      6  C   UNL     1      39.245 -25.790 -14.711  0.00  0.00    +0.001 C 
ATOM      7  C   UNL     1      37.141 -26.930 -14.005  0.00  0.00    +0.064 C 
ATOM      8  C   UNL     1      37.204 -26.041 -12.778  0.00  0.00    +0.150 C 
ATOM      9  C   UNL     1      35.616 -24.488 -14.681  0.00  0.00    +0.000 C 
ATOM     10  C   UNL     1      37.682 -23.368 -15.443  0.00  0.00    +0.000 C 
ATOM     11  C   UNL     1      37.442 -23.556 -12.209  0.00  0.00    +0.007 C 
ENDROOT
TORSDOF 0
ENDMDL
MODEL 2
REMARK VINA RESULT:      -5.8      1.667      2.916
REMARK  Name = 444294
REMARK  0 active torsions:
REMARK  status: ('A' for Active; 'I' for Inactive)
REMARK                            x       y       z     vdW  Elec       q    Type
REMARK                         _______ _______ _______ _____ _____    ______ ____
ROOT
ATOM      1  O   UNL     1      36.005 -26.554 -15.538  0.00  0.00    -0.296 OA
ATOM      2  C   UNL     1      36.378 -23.936 -13.253  0.00  0.00    +0.007 C 
ATOM      3  C   UNL     1      37.193 -24.921 -14.135  0.00  0.00    +0.052 C 
ATOM      4  C   UNL     1      35.797 -23.201 -14.493  0.00  0.00    +0.008 C 
ATOM      5  C   UNL     1      38.017 -23.997 -15.061  0.00  0.00    +0.007 C 
ATOM      6  C   UNL     1      37.066 -22.801 -15.287  0.00  0.00    +0.001 C 
ATOM      7  C   UNL     1      35.085 -24.317 -15.298  0.00  0.00    +0.064 C 
ATOM      8  C   UNL     1      36.080 -25.435 -15.055  0.00  0.00    +0.150 C 
ATOM      9  C   UNL     1      35.308 -24.593 -12.361  0.00  0.00    +0.000 C 
ATOM     10  C   UNL     1      37.232 -23.044 -12.328  0.00  0.00    +0.000 C 
ATOM     11  C   UNL     1      37.985 -26.002 -13.440  0.00  0.00    +0.007 C 
ENDROOT
TORSDOF 0
ENDMDL
MODEL 3
REMARK VINA RESULT:      -5.8      1.847      3.088
REMARK  Name = 444294
REMARK  0 active torsions:
REMARK  status: ('A' for Active; 'I' for Inactive)
REMARK                            x       y       z     vdW  Elec       q    Type
REMARK                         _______ _______ _______ _____ _____    ______ ____
ROOT
ATOM      1  O   UNL     1      39.206 -23.924 -15.442  0.00  0.00    -0.296 OA
ATOM      2  C   UNL     1      37.055 -24.538 -12.756  0.00  0.00    +0.007 C 
ATOM      3  C   UNL     1      37.081 -24.405 -14.304  0.00  0.00    +0.052 C 
ATOM      4  C   UNL     1      37.912 -25.834 -12.787  0.00  0.00    +0.008 C 
ATOM      5  C   UNL     1      36.564 -25.775 -14.803  0.00  0.00    +0.007 C 
ATOM      6  C   UNL     1      37.115 -26.756 -13.744  0.00  0.00    +0.001 C 
ATOM      7  C   UNL     1      39.208 -25.417 -13.524  0.00  0.00    +0.064 C 
ATOM      8  C   UNL     1      38.590 -24.490 -14.552  0.00  0.00    +0.150 C 
ATOM      9  C   UNL     1      37.715 -23.374 -11.993  0.00  0.00    +0.000 C 
ATOM     10  C   UNL     1      35.649 -24.719 -12.150  0.00  0.00    +0.000 C 
ATOM     11  C   UNL     1      36.406 -23.204 -14.922  0.00  0.00    +0.007 C 
ENDROOT
TORSDOF 0
ENDMDL
MODEL 4
REMARK VINA RESULT:      -5.8     19.152     20.495
REMARK  Name = 444294
REMARK  0 active torsions:
REMARK  status: ('A' for Active; 'I' for Inactive)
REMARK                            x       y       z     vdW  Elec       q    Type
REMARK                         _______ _______ _______ _____ _____    ______ ____
ROOT
ATOM      1  O   UNL     1      32.005  -9.574 -21.103  0.00  0.00    -0.296 OA
ATOM      2  C   UNL     1      33.223  -7.160 -23.319  0.00  0.00    +0.007 C 
ATOM      3  C   UNL     1      32.201  -8.326 -23.212  0.00  0.00    +0.052 C 
ATOM      4  C   UNL     1      32.440  -6.292 -22.294  0.00  0.00    +0.008 C 
ATOM      5  C   UNL     1      30.839  -7.654 -23.505  0.00  0.00    +0.007 C 
ATOM      6  C   UNL     1      31.012  -6.246 -22.895  0.00  0.00    +0.001 C 
ATOM      7  C   UNL     1      32.374  -7.173 -21.022  0.00  0.00    +0.064 C 
ATOM      8  C   UNL     1      32.176  -8.518 -21.693  0.00  0.00    +0.150 C 
ATOM      9  C   UNL     1      34.655  -7.509 -22.873  0.00  0.00    +0.000 C 
ATOM     10  C   UNL     1      33.340  -6.534 -24.724  0.00  0.00    +0.000 C 
ATOM     11  C   UNL     1      32.478  -9.583 -24.002  0.00  0.00    +0.007 C 
ENDROOT
TORSDOF 0
ENDMDL
MODEL 5
REMARK VINA RESULT:      -5.8     19.027     20.217
REMARK  Name = 444294
REMARK  0 active torsions:
REMARK  status: ('A' for Active; 'I' for Inactive)
REMARK                            x       y       z     vdW  Elec       q    Type
REMARK                         _______ _______ _______ _____ _____    ______ ____
ROOT
ATOM      1  O   UNL     1      33.801 -10.133 -23.741  0.00  0.00    -0.296 OA
ATOM      2  C   UNL     1      32.372  -7.430 -22.048  0.00  0.00    +0.007 C 
ATOM      3  C   UNL     1      33.290  -7.778 -23.251  0.00  0.00    +0.052 C 
ATOM      4  C   UNL     1      31.131  -8.082 -22.719  0.00  0.00    +0.008 C 
ATOM      5  C   UNL     1      32.548  -7.180 -24.470  0.00  0.00    +0.007 C 
ATOM      6  C   UNL     1      31.062  -7.367 -24.092  0.00  0.00    +0.001 C 
ATOM      7  C   UNL     1      31.567  -9.544 -22.985  0.00  0.00    +0.064 C 
ATOM      8  C   UNL     1      33.009  -9.279 -23.373  0.00  0.00    +0.150 C 
ATOM      9  C   UNL     1      32.773  -8.085 -20.713  0.00  0.00    +0.000 C 
ATOM     10  C   UNL     1      32.223  -5.920 -21.768  0.00  0.00    +0.000 C 
ATOM     11  C   UNL     1      34.753  -7.417 -23.152  0.00  0.00    +0.007 C 
ENDROOT
TORSDOF 0
ENDMDL
MODEL 6
REMARK VINA RESULT:      -5.7      1.507      2.572
REMARK  Name = 444294
REMARK  0 active torsions:
REMARK  status: ('A' for Active; 'I' for Inactive)
REMARK                            x       y       z     vdW  Elec       q    Type
REMARK                         _______ _______ _______ _____ _____    ______ ____
ROOT
ATOM      1  O   UNL     1      36.443 -26.872 -15.768  0.00  0.00    -0.296 OA
ATOM      2  C   UNL     1      37.447 -23.967 -14.104  0.00  0.00    +0.007 C 
ATOM      3  C   UNL     1      36.372 -25.088 -14.078  0.00  0.00    +0.052 C 
ATOM      4  C   UNL     1      38.585 -24.959 -13.736  0.00  0.00    +0.008 C 
ATOM      5  C   UNL     1      36.542 -25.735 -12.683  0.00  0.00    +0.007 C 
ATOM      6  C   UNL     1      38.063 -25.623 -12.437  0.00  0.00    +0.001 C 
ATOM      7  C   UNL     1      38.532 -26.031 -14.853  0.00  0.00    +0.064 C 
ATOM      8  C   UNL     1      37.027 -26.105 -15.018  0.00  0.00    +0.150 C 
ATOM      9  C   UNL     1      37.637 -23.280 -15.469  0.00  0.00    +0.000 C 
ATOM     10  C   UNL     1      37.227 -22.841 -13.073  0.00  0.00    +0.000 C 
ATOM     11  C   UNL     1      34.954 -24.716 -14.441  0.00  0.00    +0.007 C 
ENDROOT
TORSDOF 0
ENDMDL
MODEL 7
REMARK VINA RESULT:      -5.6     18.653     20.036
REMARK  Name = 444294
REMARK  0 active torsions:
REMARK  status: ('A' for Active; 'I' for Inactive)
REMARK                            x       y       z     vdW  Elec       q    Type
REMARK                         _______ _______ _______ _____ _____    ______ ____
ROOT
ATOM      1  O   UNL     1      32.037  -9.148 -20.619  0.00  0.00    -0.296 OA
ATOM      2  C   UNL     1      32.161  -7.460 -23.677  0.00  0.00    +0.007 C 
ATOM      3  C   UNL     1      32.731  -7.428 -22.232  0.00  0.00    +0.052 C 
ATOM      4  C   UNL     1      32.900  -8.786 -24.010  0.00  0.00    +0.008 C 
ATOM      5  C   UNL     1      34.261  -7.542 -22.434  0.00  0.00    +0.007 C 
ATOM      6  C   UNL     1      34.376  -8.457 -23.673  0.00  0.00    +0.001 C 
ATOM      7  C   UNL     1      32.396  -9.783 -22.938  0.00  0.00    +0.064 C 
ATOM      8  C   UNL     1      32.335  -8.830 -21.760  0.00  0.00    +0.150 C 
ATOM      9  C   UNL     1      30.627  -7.563 -23.768  0.00  0.00    +0.000 C 
ATOM     10  C   UNL     1      32.574  -6.263 -24.559  0.00  0.00    +0.000 C 
ATOM     11  C   UNL     1      32.288  -6.307 -21.323  0.00  0.00    +0.007 C 
ENDROOT
TORSDOF 0
ENDMDL
MODEL 8
REMARK VINA RESULT:      -5.6      1.190      2.092
REMARK  Name = 444294
REMARK  0 active torsions:
REMARK  status: ('A' for Active; 'I' for Inactive)
REMARK                            x       y       z     vdW  Elec       q    Type
REMARK                         _______ _______ _______ _____ _____    ______ ____
ROOT
ATOM      1  O   UNL     1      35.038 -23.863 -12.701  0.00  0.00    -0.296 OA
ATOM      2  C   UNL     1      37.852 -24.648 -14.621  0.00  0.00    +0.007 C 
ATOM      3  C   UNL     1      37.314 -24.670 -13.164  0.00  0.00    +0.052 C 
ATOM      4  C   UNL     1      36.835 -25.728 -15.084  0.00  0.00    +0.008 C 
ATOM      5  C   UNL     1      37.390 -26.162 -12.762  0.00  0.00    +0.007 C 
ATOM      6  C   UNL     1      37.084 -26.891 -14.090  0.00  0.00    +0.001 C 
ATOM      7  C   UNL     1      35.452 -25.120 -14.741  0.00  0.00    +0.064 C 
ATOM      8  C   UNL     1      35.821 -24.455 -13.429  0.00  0.00    +0.150 C 
ATOM      9  C   UNL     1      37.702 -23.299 -15.349  0.00  0.00    +0.000 C 
ATOM     10  C   UNL     1      39.330 -25.063 -14.767  0.00  0.00    +0.000 C 
ATOM     11  C   UNL     1      37.923 -23.709 -12.171  0.00  0.00    +0.007 C 
ENDROOT
TORSDOF 0
ENDMDL
MODEL 9
REMARK VINA RESULT:      -5.6      1.588      3.055
REMARK  Name = 444294
REMARK  0 active torsions:
REMARK  status: ('A' for Active; 'I' for Inactive)
REMARK                            x       y       z     vdW  Elec       q    Type
REMARK                         _______ _______ _______ _____ _____    ______ ____
ROOT
ATOM      1  O   UNL     1      39.288 -23.266 -11.666  0.00  0.00    -0.296 OA
ATOM      2  C   UNL     1      36.841 -24.196 -13.983  0.00  0.00    +0.007 C 
ATOM      3  C   UNL     1      37.974 -24.777 -13.093  0.00  0.00    +0.052 C 
ATOM      4  C   UNL     1      35.983 -23.801 -12.748  0.00  0.00    +0.008 C 
ATOM      5  C   UNL     1      37.247 -25.793 -12.182  0.00  0.00    +0.007 C 
ATOM      6  C   UNL     1      35.867 -25.133 -11.964  0.00  0.00    +0.001 C 
ATOM      7  C   UNL     1      36.904 -22.865 -11.928  0.00  0.00    +0.064 C 
ATOM      8  C   UNL     1      38.218 -23.584 -12.163  0.00  0.00    +0.150 C 
ATOM      9  C   UNL     1      37.253 -22.999 -14.862  0.00  0.00    +0.000 C 
ATOM     10  C   UNL     1      36.171 -25.220 -14.921  0.00  0.00    +0.000 C 
ATOM     11  C   UNL     1      39.211 -25.304 -13.780  0.00  0.00    +0.007 C 
ENDROOT
TORSDOF 0
ENDMDL
