MODEL 1
REMARK VINA RESULT:      -8.4      0.000      0.000
REMARK  Name = 9543472
REMARK  6 active torsions:
REMARK  status: ('A' for Active; 'I' for Inactive)
REMARK    1  A    between atoms: S_1  and  C_3
REMARK    2  A    between atoms: S_1  and  C_13
REMARK    3  A    between atoms: C_3  and  N_5
REMARK    4  A    between atoms: N_5  and  C_8
REMARK    5  A    between atoms: C_13  and  C_14
REMARK    6  A    between atoms: C_15  and  C_23
REMARK                            x       y       z     vdW  Elec       q    Type
REMARK                         _______ _______ _______ _____ _____    ______ ____
ROOT
ATOM      1  S   UNL     1      36.673 -21.657 -17.615  0.00  0.00    -0.071 S 
ENDROOT
BRANCH   1   3
ATOM      2  N   UNL     1      37.610 -22.742 -15.412  0.00  0.00    -0.276 NA
ATOM      3  C   UNL     1      36.619 -22.752 -16.242  0.00  0.00    +0.185 C 
ATOM      4  H   UNL     1      38.380 -22.151 -15.571  0.00  0.00    +0.189 HD
BRANCH   3   5
ATOM      5  N   UNL     1      35.544 -23.571 -16.025  0.00  0.00    -0.190 NA
BRANCH   5   8
ATOM      6  N   UNL     1      34.889 -23.334 -13.721  0.00  0.00    -0.370 N 
ATOM      7  N   UNL     1      35.628 -25.344 -14.513  0.00  0.00    -0.370 N 
ATOM      8  C   UNL     1      35.353 -24.032 -14.815  0.00  0.00    +0.195 C 
ATOM      9  H   UNL     1      34.655 -22.382 -13.808  0.00  0.00    +0.159 HD
ATOM     10  H   UNL     1      34.791 -23.788 -12.853  0.00  0.00    +0.159 HD
ATOM     11  H   UNL     1      35.968 -25.950 -15.213  0.00  0.00    +0.159 HD
ATOM     12  H   UNL     1      35.487 -25.680 -13.599  0.00  0.00    +0.159 HD
ENDBRANCH   5   8
ENDBRANCH   3   5
ENDBRANCH   1   3
BRANCH   1  13
ATOM     13  C   UNL     1      35.345 -22.302 -18.655  0.00  0.00    +0.091 C 
BRANCH  13  14
ATOM     14  C   UNL     1      34.774 -21.247 -19.563  0.00  0.00    -0.011 C 
ATOM     15  C   UNL     1      35.099 -19.433 -21.107  0.00  0.00    +0.071 C 
ATOM     16  C   UNL     1      35.630 -20.410 -20.265  0.00  0.00    +0.000 C 
ATOM     17  C   UNL     1      33.396 -21.127 -19.689  0.00  0.00    -0.003 C 
ATOM     18  C   UNL     1      33.717 -19.303 -21.240  0.00  0.00    +0.004 C 
ATOM     19  C   UNL     1      32.865 -20.150 -20.531  0.00  0.00    -0.000 C 
BRANCH  15  23
ATOM     20  F   UNL     1      37.329 -18.687 -21.548  0.00  0.00    -0.166 F 
ATOM     21  F   UNL     1      35.946 -18.695 -23.219  0.00  0.00    -0.166 F 
ATOM     22  F   UNL     1      35.738 -17.208 -21.647  0.00  0.00    -0.166 F 
ATOM     23  C   UNL     1      36.009 -18.527 -21.865  0.00  0.00    +0.419 C 
ENDBRANCH  15  23
ENDBRANCH  13  14
ENDBRANCH   1  13
TORSDOF 6
ENDMDL
MODEL 2
REMARK VINA RESULT:      -8.3      6.659      8.388
REMARK  Name = 9543472
REMARK  6 active torsions:
REMARK  status: ('A' for Active; 'I' for Inactive)
REMARK    1  A    between atoms: S_1  and  C_3
REMARK    2  A    between atoms: S_1  and  C_13
REMARK    3  A    between atoms: C_3  and  N_5
REMARK    4  A    between atoms: N_5  and  C_8
REMARK    5  A    between atoms: C_13  and  C_14
REMARK    6  A    between atoms: C_15  and  C_23
REMARK                            x       y       z     vdW  Elec       q    Type
REMARK                         _______ _______ _______ _____ _____    ______ ____
ROOT
ATOM      1  S   UNL     1      34.665 -18.730 -23.746  0.00  0.00    -0.071 S 
ENDROOT
BRANCH   1   3
ATOM      2  N   UNL     1      35.718 -16.327 -23.589  0.00  0.00    -0.276 NA
ATOM      3  C   UNL     1      34.941 -17.084 -24.292  0.00  0.00    +0.185 C 
ATOM      4  H   UNL     1      36.117 -16.669 -22.757  0.00  0.00    +0.189 HD
BRANCH   3   5
ATOM      5  N   UNL     1      34.384 -16.614 -25.452  0.00  0.00    -0.190 NA
BRANCH   5   8
ATOM      6  N   UNL     1      33.347 -14.788 -24.277  0.00  0.00    -0.370 N 
ATOM      7  N   UNL     1      32.845 -15.188 -26.468  0.00  0.00    -0.370 N 
ATOM      8  C   UNL     1      33.581 -15.584 -25.377  0.00  0.00    +0.195 C 
ATOM      9  H   UNL     1      33.817 -14.969 -23.430  0.00  0.00    +0.159 HD
ATOM     10  H   UNL     1      32.712 -14.038 -24.337  0.00  0.00    +0.159 HD
ATOM     11  H   UNL     1      32.923 -15.679 -27.319  0.00  0.00    +0.159 HD
ATOM     12  H   UNL     1      32.239 -14.415 -26.400  0.00  0.00    +0.159 HD
ENDBRANCH   5   8
ENDBRANCH   3   5
ENDBRANCH   1   3
BRANCH   1  13
ATOM     13  C   UNL     1      34.218 -18.477 -22.015  0.00  0.00    +0.091 C 
BRANCH  13  14
ATOM     14  C   UNL     1      34.929 -19.435 -21.099  0.00  0.00    -0.011 C 
ATOM     15  C   UNL     1      34.863 -21.297 -19.580  0.00  0.00    +0.071 C 
ATOM     16  C   UNL     1      34.203 -20.409 -20.429  0.00  0.00    +0.000 C 
ATOM     17  C   UNL     1      36.304 -19.332 -20.938  0.00  0.00    -0.003 C 
ATOM     18  C   UNL     1      36.244 -21.203 -19.410  0.00  0.00    +0.004 C 
ATOM     19  C   UNL     1      36.965 -20.220 -20.088  0.00  0.00    -0.000 C 
BRANCH  15  23
ATOM     20  F   UNL     1      32.822 -21.967 -18.527  0.00  0.00    -0.166 F 
ATOM     21  F   UNL     1      33.946 -23.506 -19.562  0.00  0.00    -0.166 F 
ATOM     22  F   UNL     1      34.680 -22.711 -17.677  0.00  0.00    -0.166 F 
ATOM     23  C   UNL     1      34.093 -22.348 -18.854  0.00  0.00    +0.419 C 
ENDBRANCH  15  23
ENDBRANCH  13  14
ENDBRANCH   1  13
TORSDOF 6
ENDMDL
MODEL 3
REMARK VINA RESULT:      -8.2      6.697      8.375
REMARK  Name = 9543472
REMARK  6 active torsions:
REMARK  status: ('A' for Active; 'I' for Inactive)
REMARK    1  A    between atoms: S_1  and  C_3
REMARK    2  A    between atoms: S_1  and  C_13
REMARK    3  A    between atoms: C_3  and  N_5
REMARK    4  A    between atoms: N_5  and  C_8
REMARK    5  A    between atoms: C_13  and  C_14
REMARK    6  A    between atoms: C_15  and  C_23
REMARK                            x       y       z     vdW  Elec       q    Type
REMARK                         _______ _______ _______ _____ _____    ______ ____
ROOT
ATOM      1  S   UNL     1      34.625 -16.737 -21.258  0.00  0.00    -0.071 S 
ENDROOT
BRANCH   1   3
ATOM      2  N   UNL     1      35.445 -15.984 -23.639  0.00  0.00    -0.276 NA
ATOM      3  C   UNL     1      34.487 -15.870 -22.779  0.00  0.00    +0.185 C 
ATOM      4  H   UNL     1      36.238 -16.525 -23.423  0.00  0.00    +0.189 HD
BRANCH   3   5
ATOM      5  N   UNL     1      33.380 -15.119 -23.074  0.00  0.00    -0.190 NA
BRANCH   5   8
ATOM      6  N   UNL     1      34.123 -12.920 -23.708  0.00  0.00    -0.370 N 
ATOM      7  N   UNL     1      33.005 -14.238 -25.200  0.00  0.00    -0.370 N 
ATOM      8  C   UNL     1      33.511 -14.135 -23.927  0.00  0.00    +0.195 C 
ATOM      9  H   UNL     1      34.528 -12.723 -22.832  0.00  0.00    +0.159 HD
ATOM     10  H   UNL     1      34.157 -12.249 -24.428  0.00  0.00    +0.159 HD
ATOM     11  H   UNL     1      32.542 -15.061 -25.481  0.00  0.00    +0.159 HD
ATOM     12  H   UNL     1      33.104 -13.490 -25.832  0.00  0.00    +0.159 HD
ENDBRANCH   5   8
ENDBRANCH   3   5
ENDBRANCH   1   3
BRANCH   1  13
ATOM     13  C   UNL     1      34.186 -18.419 -21.749  0.00  0.00    +0.091 C 
BRANCH  13  14
ATOM     14  C   UNL     1      34.892 -19.454 -20.917  0.00  0.00    -0.011 C 
ATOM     15  C   UNL     1      34.807 -21.387 -19.489  0.00  0.00    +0.071 C 
ATOM     16  C   UNL     1      34.151 -20.427 -20.259  0.00  0.00    +0.000 C 
ATOM     17  C   UNL     1      36.277 -19.424 -20.819  0.00  0.00    -0.003 C 
ATOM     18  C   UNL     1      36.197 -21.365 -19.383  0.00  0.00    +0.004 C 
ATOM     19  C   UNL     1      36.932 -20.384 -20.047  0.00  0.00    -0.000 C 
BRANCH  15  23
ATOM     20  F   UNL     1      34.575 -22.825 -17.591  0.00  0.00    -0.166 F 
ATOM     21  F   UNL     1      32.749 -22.049 -18.466  0.00  0.00    -0.166 F 
ATOM     22  F   UNL     1      33.886 -23.579 -19.511  0.00  0.00    -0.166 F 
ATOM     23  C   UNL     1      34.021 -22.436 -18.778  0.00  0.00    +0.419 C 
ENDBRANCH  15  23
ENDBRANCH  13  14
ENDBRANCH   1  13
TORSDOF 6
ENDMDL
MODEL 4
REMARK VINA RESULT:      -8.1      6.363      7.951
REMARK  Name = 9543472
REMARK  6 active torsions:
REMARK  status: ('A' for Active; 'I' for Inactive)
REMARK    1  A    between atoms: S_1  and  C_3
REMARK    2  A    between atoms: S_1  and  C_13
REMARK    3  A    between atoms: C_3  and  N_5
REMARK    4  A    between atoms: N_5  and  C_8
REMARK    5  A    between atoms: C_13  and  C_14
REMARK    6  A    between atoms: C_15  and  C_23
REMARK                            x       y       z     vdW  Elec       q    Type
REMARK                         _______ _______ _______ _____ _____    ______ ____
ROOT
ATOM      1  S   UNL     1      35.240 -18.309 -23.951  0.00  0.00    -0.071 S 
ENDROOT
BRANCH   1   3
ATOM      2  N   UNL     1      34.156 -16.373 -25.359  0.00  0.00    -0.276 NA
ATOM      3  C   UNL     1      34.798 -16.639 -24.270  0.00  0.00    +0.185 C 
ATOM      4  H   UNL     1      33.949 -17.092 -25.998  0.00  0.00    +0.189 HD
BRANCH   3   5
ATOM      5  N   UNL     1      35.088 -15.642 -23.377  0.00  0.00    -0.190 NA
BRANCH   5   8
ATOM      6  N   UNL     1      34.221 -13.406 -23.573  0.00  0.00    -0.370 N 
ATOM      7  N   UNL     1      33.040 -15.012 -22.459  0.00  0.00    -0.370 N 
ATOM      8  C   UNL     1      34.183 -14.722 -23.165  0.00  0.00    +0.195 C 
ATOM      9  H   UNL     1      34.990 -13.073 -24.090  0.00  0.00    +0.159 HD
ATOM     10  H   UNL     1      33.479 -12.799 -23.349  0.00  0.00    +0.159 HD
ATOM     11  H   UNL     1      32.894 -15.922 -22.111  0.00  0.00    +0.159 HD
ATOM     12  H   UNL     1      32.368 -14.311 -22.300  0.00  0.00    +0.159 HD
ENDBRANCH   5   8
ENDBRANCH   3   5
ENDBRANCH   1   3
BRANCH   1  13
ATOM     13  C   UNL     1      35.667 -18.252 -22.198  0.00  0.00    +0.091 C 
BRANCH  13  14
ATOM     14  C   UNL     1      34.764 -19.121 -21.366  0.00  0.00    -0.011 C 
ATOM     15  C   UNL     1      34.463 -20.992 -19.886  0.00  0.00    +0.071 C 
ATOM     16  C   UNL     1      35.300 -20.188 -20.658  0.00  0.00    +0.000 C 
ATOM     17  C   UNL     1      33.404 -18.843 -21.315  0.00  0.00    -0.003 C 
ATOM     18  C   UNL     1      33.095 -20.722 -19.829  0.00  0.00    +0.004 C 
ATOM     19  C   UNL     1      32.566 -19.648 -20.544  0.00  0.00    -0.000 C 
BRANCH  15  23
ATOM     20  F   UNL     1      36.385 -22.084 -18.970  0.00  0.00    -0.166 F 
ATOM     21  F   UNL     1      34.533 -22.253 -17.855  0.00  0.00    -0.166 F 
ATOM     22  F   UNL     1      34.778 -23.343 -19.720  0.00  0.00    -0.166 F 
ATOM     23  C   UNL     1      35.028 -22.141 -19.123  0.00  0.00    +0.419 C 
ENDBRANCH  15  23
ENDBRANCH  13  14
ENDBRANCH   1  13
TORSDOF 6
ENDMDL
MODEL 5
REMARK VINA RESULT:      -8.0      2.850      4.005
REMARK  Name = 9543472
REMARK  6 active torsions:
REMARK  status: ('A' for Active; 'I' for Inactive)
REMARK    1  A    between atoms: S_1  and  C_3
REMARK    2  A    between atoms: S_1  and  C_13
REMARK    3  A    between atoms: C_3  and  N_5
REMARK    4  A    between atoms: N_5  and  C_8
REMARK    5  A    between atoms: C_13  and  C_14
REMARK    6  A    between atoms: C_15  and  C_23
REMARK                            x       y       z     vdW  Elec       q    Type
REMARK                         _______ _______ _______ _____ _____    ______ ____
ROOT
ATOM      1  S   UNL     1      36.372 -20.288 -20.245  0.00  0.00    -0.071 S 
ENDROOT
BRANCH   1   3
ATOM      2  N   UNL     1      36.573 -21.438 -17.890  0.00  0.00    -0.276 NA
ATOM      3  C   UNL     1      35.980 -21.501 -19.036  0.00  0.00    +0.185 C 
ATOM      4  H   UNL     1      37.245 -20.738 -17.721  0.00  0.00    +0.189 HD
BRANCH   3   5
ATOM      5  N   UNL     1      35.044 -22.471 -19.277  0.00  0.00    -0.190 NA
BRANCH   5   8
ATOM      6  N   UNL     1      33.990 -23.055 -17.194  0.00  0.00    -0.370 N 
ATOM      7  N   UNL     1      32.778 -22.099 -18.876  0.00  0.00    -0.370 N 
ATOM      8  C   UNL     1      34.013 -22.547 -18.474  0.00  0.00    +0.195 C 
ATOM      9  H   UNL     1      34.815 -23.408 -16.789  0.00  0.00    +0.159 HD
ATOM     10  H   UNL     1      33.148 -23.065 -16.683  0.00  0.00    +0.159 HD
ATOM     11  H   UNL     1      32.662 -21.711 -19.775  0.00  0.00    +0.159 HD
ATOM     12  H   UNL     1      32.007 -22.165 -18.267  0.00  0.00    +0.159 HD
ENDBRANCH   5   8
ENDBRANCH   3   5
ENDBRANCH   1   3
BRANCH   1  13
ATOM     13  C   UNL     1      34.760 -19.981 -20.998  0.00  0.00    +0.091 C 
BRANCH  13  14
ATOM     14  C   UNL     1      34.773 -18.770 -21.891  0.00  0.00    -0.011 C 
ATOM     15  C   UNL     1      34.549 -16.393 -22.176  0.00  0.00    +0.071 C 
ATOM     16  C   UNL     1      34.536 -17.515 -21.347  0.00  0.00    +0.000 C 
ATOM     17  C   UNL     1      35.023 -18.924 -23.248  0.00  0.00    -0.003 C 
ATOM     18  C   UNL     1      34.798 -16.537 -23.540  0.00  0.00    +0.004 C 
ATOM     19  C   UNL     1      35.035 -17.802 -24.077  0.00  0.00    -0.000 C 
BRANCH  15  23
ATOM     20  F   UNL     1      34.728 -14.017 -22.399  0.00  0.00    -0.166 F 
ATOM     21  F   UNL     1      32.973 -14.780 -21.378  0.00  0.00    -0.166 F 
ATOM     22  F   UNL     1      34.913 -14.854 -20.400  0.00  0.00    -0.166 F 
ATOM     23  C   UNL     1      34.295 -15.040 -21.603  0.00  0.00    +0.419 C 
ENDBRANCH  15  23
ENDBRANCH  13  14
ENDBRANCH   1  13
TORSDOF 6
ENDMDL
MODEL 6
REMARK VINA RESULT:      -7.9      2.938      4.403
REMARK  Name = 9543472
REMARK  6 active torsions:
REMARK  status: ('A' for Active; 'I' for Inactive)
REMARK    1  A    between atoms: S_1  and  C_3
REMARK    2  A    between atoms: S_1  and  C_13
REMARK    3  A    between atoms: C_3  and  N_5
REMARK    4  A    between atoms: N_5  and  C_8
REMARK    5  A    between atoms: C_13  and  C_14
REMARK    6  A    between atoms: C_15  and  C_23
REMARK                            x       y       z     vdW  Elec       q    Type
REMARK                         _______ _______ _______ _____ _____    ______ ____
ROOT
ATOM      1  S   UNL     1      33.248 -20.226 -20.519  0.00  0.00    -0.071 S 
ENDROOT
BRANCH   1   3
ATOM      2  N   UNL     1      32.700 -22.118 -18.779  0.00  0.00    -0.276 NA
ATOM      3  C   UNL     1      33.644 -21.590 -19.487  0.00  0.00    +0.185 C 
ATOM      4  H   UNL     1      31.793 -21.738 -18.808  0.00  0.00    +0.189 HD
BRANCH   3   5
ATOM      5  N   UNL     1      34.909 -22.114 -19.453  0.00  0.00    -0.190 NA
BRANCH   5   8
ATOM      6  N   UNL     1      35.411 -22.557 -17.141  0.00  0.00    -0.370 N 
ATOM      7  N   UNL     1      36.690 -21.097 -18.344  0.00  0.00    -0.370 N 
ATOM      8  C   UNL     1      35.614 -21.952 -18.362  0.00  0.00    +0.195 C 
ATOM      9  H   UNL     1      34.669 -23.195 -17.025  0.00  0.00    +0.159 HD
ATOM     10  H   UNL     1      36.007 -22.353 -16.385  0.00  0.00    +0.159 HD
ATOM     11  H   UNL     1      36.940 -20.603 -19.159  0.00  0.00    +0.159 HD
ATOM     12  H   UNL     1      37.211 -20.978 -17.518  0.00  0.00    +0.159 HD
ENDBRANCH   5   8
ENDBRANCH   3   5
ENDBRANCH   1   3
BRANCH   1  13
ATOM     13  C   UNL     1      34.841 -19.867 -21.289  0.00  0.00    +0.091 C 
BRANCH  13  14
ATOM     14  C   UNL     1      34.792 -18.632 -22.147  0.00  0.00    -0.011 C 
ATOM     15  C   UNL     1      34.510 -16.254 -22.354  0.00  0.00    +0.071 C 
ATOM     16  C   UNL     1      34.555 -17.398 -21.558  0.00  0.00    +0.000 C 
ATOM     17  C   UNL     1      34.985 -18.744 -23.517  0.00  0.00    -0.003 C 
ATOM     18  C   UNL     1      34.702 -16.355 -23.732  0.00  0.00    +0.004 C 
ATOM     19  C   UNL     1      34.939 -17.599 -24.313  0.00  0.00    -0.000 C 
BRANCH  15  23
ATOM     20  F   UNL     1      34.908 -14.738 -20.545  0.00  0.00    -0.166 F 
ATOM     21  F   UNL     1      34.638 -13.871 -22.515  0.00  0.00    -0.166 F 
ATOM     22  F   UNL     1      32.935 -14.713 -21.460  0.00  0.00    -0.166 F 
ATOM     23  C   UNL     1      34.256 -14.922 -21.732  0.00  0.00    +0.419 C 
ENDBRANCH  15  23
ENDBRANCH  13  14
ENDBRANCH   1  13
TORSDOF 6
ENDMDL
MODEL 7
REMARK VINA RESULT:      -7.9      5.651      6.790
REMARK  Name = 9543472
REMARK  6 active torsions:
REMARK  status: ('A' for Active; 'I' for Inactive)
REMARK    1  A    between atoms: S_1  and  C_3
REMARK    2  A    between atoms: S_1  and  C_13
REMARK    3  A    between atoms: C_3  and  N_5
REMARK    4  A    between atoms: N_5  and  C_8
REMARK    5  A    between atoms: C_13  and  C_14
REMARK    6  A    between atoms: C_15  and  C_23
REMARK                            x       y       z     vdW  Elec       q    Type
REMARK                         _______ _______ _______ _____ _____    ______ ____
ROOT
ATOM      1  S   UNL     1      35.913 -24.839 -14.004  0.00  0.00    -0.071 S 
ENDROOT
BRANCH   1   3
ATOM      2  N   UNL     1      36.572 -26.667 -15.774  0.00  0.00    -0.276 NA
ATOM      3  C   UNL     1      36.942 -26.094 -14.676  0.00  0.00    +0.185 C 
ATOM      4  H   UNL     1      35.721 -26.415 -16.198  0.00  0.00    +0.189 HD
BRANCH   3   5
ATOM      5  N   UNL     1      38.126 -26.439 -14.081  0.00  0.00    -0.190 NA
BRANCH   5   8
ATOM      6  N   UNL     1      39.331 -24.850 -15.427  0.00  0.00    -0.370 N 
ATOM      7  N   UNL     1      40.456 -26.354 -14.129  0.00  0.00    -0.370 N 
ATOM      8  C   UNL     1      39.226 -25.893 -14.533  0.00  0.00    +0.195 C 
ATOM      9  H   UNL     1      38.518 -24.430 -15.791  0.00  0.00    +0.159 HD
ATOM     10  H   UNL     1      40.219 -24.524 -15.701  0.00  0.00    +0.159 HD
ATOM     11  H   UNL     1      40.515 -27.101 -13.488  0.00  0.00    +0.159 HD
ATOM     12  H   UNL     1      41.277 -25.940 -14.479  0.00  0.00    +0.159 HD
ENDBRANCH   5   8
ENDBRANCH   3   5
ENDBRANCH   1   3
BRANCH   1  13
ATOM     13  C   UNL     1      35.836 -23.654 -15.365  0.00  0.00    +0.091 C 
BRANCH  13  14
ATOM     14  C   UNL     1      34.425 -23.419 -15.833  0.00  0.00    -0.011 C 
ATOM     15  C   UNL     1      32.075 -23.263 -15.355  0.00  0.00    +0.071 C 
ATOM     16  C   UNL     1      33.381 -23.482 -14.921  0.00  0.00    +0.000 C 
ATOM     17  C   UNL     1      34.187 -23.142 -17.172  0.00  0.00    -0.003 C 
ATOM     18  C   UNL     1      31.824 -22.984 -16.699  0.00  0.00    +0.004 C 
ATOM     19  C   UNL     1      32.880 -22.924 -17.607  0.00  0.00    -0.000 C 
BRANCH  15  23
ATOM     20  F   UNL     1      30.287 -24.527 -14.388  0.00  0.00    -0.166 F 
ATOM     21  F   UNL     1      31.326 -23.137 -13.087  0.00  0.00    -0.166 F 
ATOM     22  F   UNL     1      29.988 -22.387 -14.627  0.00  0.00    -0.166 F 
ATOM     23  C   UNL     1      30.944 -23.329 -14.384  0.00  0.00    +0.419 C 
ENDBRANCH  15  23
ENDBRANCH  13  14
ENDBRANCH   1  13
TORSDOF 6
ENDMDL
MODEL 8
REMARK VINA RESULT:      -7.8      6.598      8.268
REMARK  Name = 9543472
REMARK  6 active torsions:
REMARK  status: ('A' for Active; 'I' for Inactive)
REMARK    1  A    between atoms: S_1  and  C_3
REMARK    2  A    between atoms: S_1  and  C_13
REMARK    3  A    between atoms: C_3  and  N_5
REMARK    4  A    between atoms: N_5  and  C_8
REMARK    5  A    between atoms: C_13  and  C_14
REMARK    6  A    between atoms: C_15  and  C_23
REMARK                            x       y       z     vdW  Elec       q    Type
REMARK                         _______ _______ _______ _____ _____    ______ ____
ROOT
ATOM      1  S   UNL     1      34.441 -16.627 -21.527  0.00  0.00    -0.071 S 
ENDROOT
BRANCH   1   3
ATOM      2  N   UNL     1      35.330 -15.690 -23.816  0.00  0.00    -0.276 NA
ATOM      3  C   UNL     1      34.391 -15.578 -22.936  0.00  0.00    +0.185 C 
ATOM      4  H   UNL     1      36.063 -16.332 -23.676  0.00  0.00    +0.189 HD
BRANCH   3   5
ATOM      5  N   UNL     1      33.368 -14.688 -23.125  0.00  0.00    -0.190 NA
BRANCH   5   8
ATOM      6  N   UNL     1      34.064 -12.553 -23.993  0.00  0.00    -0.370 N 
ATOM      7  N   UNL     1      33.014 -14.065 -25.344  0.00  0.00    -0.370 N 
ATOM      8  C   UNL     1      33.490 -13.803 -24.082  0.00  0.00    +0.195 C 
ATOM      9  H   UNL     1      34.444 -12.246 -23.138  0.00  0.00    +0.159 HD
ATOM     10  H   UNL     1      34.094 -11.968 -24.784  0.00  0.00    +0.159 HD
ATOM     11  H   UNL     1      32.580 -14.929 -25.537  0.00  0.00    +0.159 HD
ATOM     12  H   UNL     1      33.106 -13.391 -26.055  0.00  0.00    +0.159 HD
ENDBRANCH   5   8
ENDBRANCH   3   5
ENDBRANCH   1   3
BRANCH   1  13
ATOM     13  C   UNL     1      34.558 -18.262 -22.286  0.00  0.00    +0.091 C 
BRANCH  13  14
ATOM     14  C   UNL     1      34.343 -19.367 -21.288  0.00  0.00    -0.011 C 
ATOM     15  C   UNL     1      35.228 -20.912 -19.674  0.00  0.00    +0.071 C 
ATOM     16  C   UNL     1      35.428 -19.889 -20.598  0.00  0.00    +0.000 C 
ATOM     17  C   UNL     1      33.059 -19.850 -21.069  0.00  0.00    -0.003 C 
ATOM     18  C   UNL     1      33.943 -21.405 -19.446  0.00  0.00    +0.004 C 
ATOM     19  C   UNL     1      32.859 -20.875 -20.144  0.00  0.00    -0.000 C 
BRANCH  15  23
ATOM     20  F   UNL     1      37.054 -20.562 -18.168  0.00  0.00    -0.166 F 
ATOM     21  F   UNL     1      36.043 -22.478 -18.059  0.00  0.00    -0.166 F 
ATOM     22  F   UNL     1      37.328 -22.025 -19.753  0.00  0.00    -0.166 F 
ATOM     23  C   UNL     1      36.387 -21.481 -18.927  0.00  0.00    +0.419 C 
ENDBRANCH  15  23
ENDBRANCH  13  14
ENDBRANCH   1  13
TORSDOF 6
ENDMDL
MODEL 9
REMARK VINA RESULT:      -7.7      3.804      5.103
REMARK  Name = 9543472
REMARK  6 active torsions:
REMARK  status: ('A' for Active; 'I' for Inactive)
REMARK    1  A    between atoms: S_1  and  C_3
REMARK    2  A    between atoms: S_1  and  C_13
REMARK    3  A    between atoms: C_3  and  N_5
REMARK    4  A    between atoms: N_5  and  C_8
REMARK    5  A    between atoms: C_13  and  C_14
REMARK    6  A    between atoms: C_15  and  C_23
REMARK                            x       y       z     vdW  Elec       q    Type
REMARK                         _______ _______ _______ _____ _____    ______ ____
ROOT
ATOM      1  S   UNL     1      34.904 -24.115 -12.576  0.00  0.00    -0.071 S 
ENDROOT
BRANCH   1   3
ATOM      2  N   UNL     1      36.954 -24.015 -10.934  0.00  0.00    -0.276 NA
ATOM      3  C   UNL     1      36.358 -24.745 -11.818  0.00  0.00    +0.185 C 
ATOM      4  H   UNL     1      36.606 -23.120 -10.719  0.00  0.00    +0.189 HD
BRANCH   3   5
ATOM      5  N   UNL     1      36.836 -25.992 -12.121  0.00  0.00    -0.190 NA
BRANCH   5   8
ATOM      6  N   UNL     1      37.694 -27.015 -14.124  0.00  0.00    -0.370 N 
ATOM      7  N   UNL     1      38.785 -25.252 -13.166  0.00  0.00    -0.370 N 
ATOM      8  C   UNL     1      37.706 -26.100 -13.093  0.00  0.00    +0.195 C 
ATOM      9  H   UNL     1      36.969 -27.678 -14.185  0.00  0.00    +0.159 HD
ATOM     10  H   UNL     1      38.409 -27.004 -14.800  0.00  0.00    +0.159 HD
ATOM     11  H   UNL     1      38.907 -24.551 -12.484  0.00  0.00    +0.159 HD
ATOM     12  H   UNL     1      39.436 -25.345 -13.897  0.00  0.00    +0.159 HD
ENDBRANCH   5   8
ENDBRANCH   3   5
ENDBRANCH   1   3
BRANCH   1  13
ATOM     13  C   UNL     1      35.538 -23.519 -14.158  0.00  0.00    +0.091 C 
BRANCH  13  14
ATOM     14  C   UNL     1      34.447 -23.354 -15.180  0.00  0.00    -0.011 C 
ATOM     15  C   UNL     1      33.766 -22.886 -17.438  0.00  0.00    +0.071 C 
ATOM     16  C   UNL     1      34.778 -23.037 -16.491  0.00  0.00    +0.000 C 
ATOM     17  C   UNL     1      33.123 -23.522 -14.800  0.00  0.00    -0.003 C 
ATOM     18  C   UNL     1      32.433 -23.051 -17.066  0.00  0.00    +0.004 C 
ATOM     19  C   UNL     1      32.110 -23.369 -15.748  0.00  0.00    -0.000 C 
BRANCH  15  23
ATOM     20  F   UNL     1      33.992 -23.598 -19.711  0.00  0.00    -0.166 F 
ATOM     21  F   UNL     1      33.328 -21.560 -19.380  0.00  0.00    -0.166 F 
ATOM     22  F   UNL     1      35.395 -22.104 -18.984  0.00  0.00    -0.166 F 
ATOM     23  C   UNL     1      34.111 -22.545 -18.849  0.00  0.00    +0.419 C 
ENDBRANCH  15  23
ENDBRANCH  13  14
ENDBRANCH   1  13
TORSDOF 6
ENDMDL
