MODEL 1
REMARK VINA RESULT:      -8.3      0.000      0.000
REMARK  Name = 4369475
REMARK  7 active torsions:
REMARK  status: ('A' for Active; 'I' for Inactive)
REMARK    1  A    between atoms: N_3  and  C_17
REMARK    2  A    between atoms: C_6  and  S_10
REMARK    3  A    between atoms: S_10  and  C_11
REMARK    4  A    between atoms: C_17  and  O_18
REMARK    5  A    between atoms: O_18  and  C_19
REMARK    6  A    between atoms: C_19  and  C_20
REMARK    7  A    between atoms: C_20  and  O_21
REMARK                            x       y       z     vdW  Elec       q    Type
REMARK                         _______ _______ _______ _____ _____    ______ ____
ROOT
ATOM      1  O   UNL     1      33.206 -15.912 -26.017  0.00  0.00    -0.252 OA
ATOM      2  O   UNL     1      35.241 -19.687 -24.367  0.00  0.00    -0.269 OA
ATOM      3  N   UNL     1      34.340 -15.756 -23.983  0.00  0.00    -0.215 N 
ATOM      4  N   UNL     1      34.227 -17.785 -25.174  0.00  0.00    -0.235 N 
ATOM      5  C   UNL     1      35.084 -16.394 -23.012  0.00  0.00    +0.082 C 
ATOM      6  C   UNL     1      35.417 -17.689 -23.075  0.00  0.00    +0.098 C 
ATOM      7  C   UNL     1      33.873 -16.432 -25.120  0.00  0.00    +0.316 C 
ATOM      8  C   UNL     1      34.972 -18.495 -24.242  0.00  0.00    +0.260 C 
ATOM      9  H   UNL     1      33.914 -18.288 -25.960  0.00  0.00    +0.159 HD
ENDROOT
BRANCH   6  10
ATOM     10  S   UNL     1      36.349 -18.483 -21.859  0.00  0.00    -0.081 S 
BRANCH  10  11
ATOM     11  C   UNL     1      35.048 -19.413 -21.069  0.00  0.00    +0.030 C 
ATOM     12  C   UNL     1      33.723 -18.990 -21.181  0.00  0.00    +0.006 C 
ATOM     13  C   UNL     1      35.356 -20.560 -20.341  0.00  0.00    +0.006 C 
ATOM     14  C   UNL     1      32.706 -19.717 -20.562  0.00  0.00    +0.001 C 
ATOM     15  C   UNL     1      34.338 -21.288 -19.723  0.00  0.00    +0.001 C 
ATOM     16  C   UNL     1      33.014 -20.867 -19.834  0.00  0.00    +0.000 C 
ENDBRANCH  10  11
ENDBRANCH   6  10
BRANCH   3  17
ATOM     17  C   UNL     1      34.047 -14.339 -23.793  0.00  0.00    +0.248 C 
BRANCH  17  18
ATOM     18  O   UNL     1      32.712 -14.210 -23.329  0.00  0.00    -0.331 OA
BRANCH  18  19
ATOM     19  C   UNL     1      32.645 -13.427 -22.144  0.00  0.00    +0.176 C 
BRANCH  19  20
ATOM     20  C   UNL     1      32.769 -14.341 -20.940  0.00  0.00    +0.169 C 
BRANCH  20  21
ATOM     21  O   UNL     1      32.060 -15.547 -21.198  0.00  0.00    -0.379 OA
ATOM     22  H   UNL     1      32.533 -16.063 -21.869  0.00  0.00    +0.211 HD
ENDBRANCH  20  21
ENDBRANCH  19  20
ENDBRANCH  18  19
ENDBRANCH  17  18
ENDBRANCH   3  17
TORSDOF 7
ENDMDL
MODEL 2
REMARK VINA RESULT:      -8.2      1.698      3.240
REMARK  Name = 4369475
REMARK  7 active torsions:
REMARK  status: ('A' for Active; 'I' for Inactive)
REMARK    1  A    between atoms: N_3  and  C_17
REMARK    2  A    between atoms: C_6  and  S_10
REMARK    3  A    between atoms: S_10  and  C_11
REMARK    4  A    between atoms: C_17  and  O_18
REMARK    5  A    between atoms: O_18  and  C_19
REMARK    6  A    between atoms: C_19  and  C_20
REMARK    7  A    between atoms: C_20  and  O_21
REMARK                            x       y       z     vdW  Elec       q    Type
REMARK                         _______ _______ _______ _____ _____    ______ ____
ROOT
ATOM      1  O   UNL     1      32.669 -14.159 -23.445  0.00  0.00    -0.252 OA
ATOM      2  O   UNL     1      35.186 -16.261 -20.226  0.00  0.00    -0.269 OA
ATOM      3  N   UNL     1      33.890 -16.050 -24.058  0.00  0.00    -0.215 N 
ATOM      4  N   UNL     1      33.933 -15.222 -21.854  0.00  0.00    -0.235 N 
ATOM      5  C   UNL     1      34.752 -17.057 -23.673  0.00  0.00    +0.082 C 
ATOM      6  C   UNL     1      35.219 -17.185 -22.426  0.00  0.00    +0.098 C 
ATOM      7  C   UNL     1      33.438 -15.078 -23.155  0.00  0.00    +0.316 C 
ATOM      8  C   UNL     1      34.799 -16.204 -21.391  0.00  0.00    +0.260 C 
ATOM      9  H   UNL     1      33.636 -14.555 -21.195  0.00  0.00    +0.159 HD
ENDROOT
BRANCH   6  10
ATOM     10  S   UNL     1      36.297 -18.445 -21.948  0.00  0.00    -0.081 S 
BRANCH  10  11
ATOM     11  C   UNL     1      35.139 -19.494 -21.087  0.00  0.00    +0.030 C 
ATOM     12  C   UNL     1      35.606 -20.512 -20.256  0.00  0.00    +0.006 C 
ATOM     13  C   UNL     1      33.768 -19.296 -21.247  0.00  0.00    +0.006 C 
ATOM     14  C   UNL     1      34.701 -21.333 -19.584  0.00  0.00    +0.001 C 
ATOM     15  C   UNL     1      32.862 -20.117 -20.574  0.00  0.00    +0.001 C 
ATOM     16  C   UNL     1      33.328 -21.134 -19.743  0.00  0.00    +0.000 C 
ENDBRANCH  10  11
ENDBRANCH   6  10
BRANCH   3  17
ATOM     17  C   UNL     1      33.455 -16.025 -25.451  0.00  0.00    +0.248 C 
BRANCH  17  18
ATOM     18  O   UNL     1      34.081 -14.931 -26.103  0.00  0.00    -0.331 OA
BRANCH  18  19
ATOM     19  C   UNL     1      33.153 -14.187 -26.881  0.00  0.00    +0.176 C 
BRANCH  19  20
ATOM     20  C   UNL     1      33.530 -12.720 -26.831  0.00  0.00    +0.169 C 
BRANCH  20  21
ATOM     21  O   UNL     1      33.657 -12.319 -25.472  0.00  0.00    -0.379 OA
ATOM     22  H   UNL     1      32.783 -12.316 -25.052  0.00  0.00    +0.211 HD
ENDBRANCH  20  21
ENDBRANCH  19  20
ENDBRANCH  18  19
ENDBRANCH  17  18
ENDBRANCH   3  17
TORSDOF 7
ENDMDL
MODEL 3
REMARK VINA RESULT:      -7.8      1.495      2.018
REMARK  Name = 4369475
REMARK  7 active torsions:
REMARK  status: ('A' for Active; 'I' for Inactive)
REMARK    1  A    between atoms: N_3  and  C_17
REMARK    2  A    between atoms: C_6  and  S_10
REMARK    3  A    between atoms: S_10  and  C_11
REMARK    4  A    between atoms: C_17  and  O_18
REMARK    5  A    between atoms: O_18  and  C_19
REMARK    6  A    between atoms: C_19  and  C_20
REMARK    7  A    between atoms: C_20  and  O_21
REMARK                            x       y       z     vdW  Elec       q    Type
REMARK                         _______ _______ _______ _____ _____    ______ ____
ROOT
ATOM      1  O   UNL     1      33.079 -15.095 -25.243  0.00  0.00    -0.252 OA
ATOM      2  O   UNL     1      35.312 -19.045 -24.515  0.00  0.00    -0.269 OA
ATOM      3  N   UNL     1      34.211 -15.368 -23.220  0.00  0.00    -0.215 N 
ATOM      4  N   UNL     1      34.199 -17.060 -24.858  0.00  0.00    -0.235 N 
ATOM      5  C   UNL     1      34.991 -16.179 -22.422  0.00  0.00    +0.082 C 
ATOM      6  C   UNL     1      35.389 -17.404 -22.785  0.00  0.00    +0.098 C 
ATOM      7  C   UNL     1      33.776 -15.778 -24.488  0.00  0.00    +0.316 C 
ATOM      8  C   UNL     1      34.982 -17.932 -24.114  0.00  0.00    +0.260 C 
ATOM      9  H   UNL     1      33.909 -17.379 -25.743  0.00  0.00    +0.159 HD
ENDROOT
BRANCH   6  10
ATOM     10  S   UNL     1      36.365 -18.414 -21.784  0.00  0.00    -0.081 S 
BRANCH  10  11
ATOM     11  C   UNL     1      35.078 -19.395 -21.035  0.00  0.00    +0.030 C 
ATOM     12  C   UNL     1      33.741 -19.030 -21.194  0.00  0.00    +0.006 C 
ATOM     13  C   UNL     1      35.409 -20.526 -20.290  0.00  0.00    +0.006 C 
ATOM     14  C   UNL     1      32.735 -19.797 -20.607  0.00  0.00    +0.001 C 
ATOM     15  C   UNL     1      34.402 -21.294 -19.703  0.00  0.00    +0.001 C 
ATOM     16  C   UNL     1      33.066 -20.930 -19.862  0.00  0.00    +0.000 C 
ENDBRANCH  10  11
ENDBRANCH   6  10
BRANCH   3  17
ATOM     17  C   UNL     1      33.846 -14.053 -22.703  0.00  0.00    +0.248 C 
BRANCH  17  18
ATOM     18  O   UNL     1      34.139 -13.078 -23.692  0.00  0.00    -0.331 OA
BRANCH  18  19
ATOM     19  C   UNL     1      33.231 -11.986 -23.632  0.00  0.00    +0.176 C 
BRANCH  19  20
ATOM     20  C   UNL     1      33.933 -10.733 -24.117  0.00  0.00    +0.169 C 
BRANCH  20  21
ATOM     21  O   UNL     1      35.002 -11.103 -24.980  0.00  0.00    -0.379 OA
ATOM     22  H   UNL     1      35.422 -10.305 -25.335  0.00  0.00    +0.211 HD
ENDBRANCH  20  21
ENDBRANCH  19  20
ENDBRANCH  18  19
ENDBRANCH  17  18
ENDBRANCH   3  17
TORSDOF 7
ENDMDL
MODEL 4
REMARK VINA RESULT:      -7.7      2.001      3.404
REMARK  Name = 4369475
REMARK  7 active torsions:
REMARK  status: ('A' for Active; 'I' for Inactive)
REMARK    1  A    between atoms: N_3  and  C_17
REMARK    2  A    between atoms: C_6  and  S_10
REMARK    3  A    between atoms: S_10  and  C_11
REMARK    4  A    between atoms: C_17  and  O_18
REMARK    5  A    between atoms: O_18  and  C_19
REMARK    6  A    between atoms: C_19  and  C_20
REMARK    7  A    between atoms: C_20  and  O_21
REMARK                            x       y       z     vdW  Elec       q    Type
REMARK                         _______ _______ _______ _____ _____    ______ ____
ROOT
ATOM      1  O   UNL     1      32.467 -13.307 -21.944  0.00  0.00    -0.252 OA
ATOM      2  O   UNL     1      35.255 -16.407 -20.012  0.00  0.00    -0.269 OA
ATOM      3  N   UNL     1      33.423 -14.938 -23.313  0.00  0.00    -0.215 N 
ATOM      4  N   UNL     1      33.863 -14.863 -21.000  0.00  0.00    -0.235 N 
ATOM      5  C   UNL     1      34.247 -16.040 -23.410  0.00  0.00    +0.082 C 
ATOM      6  C   UNL     1      34.884 -16.576 -22.363  0.00  0.00    +0.098 C 
ATOM      7  C   UNL     1      33.192 -14.294 -22.089  0.00  0.00    +0.316 C 
ATOM      8  C   UNL     1      34.705 -15.968 -21.019  0.00  0.00    +0.260 C 
ATOM      9  H   UNL     1      33.723 -14.434 -20.126  0.00  0.00    +0.159 HD
ENDROOT
BRANCH   6  10
ATOM     10  S   UNL     1      35.913 -17.955 -22.490  0.00  0.00    -0.081 S 
BRANCH  10  11
ATOM     11  C   UNL     1      34.975 -19.099 -21.493  0.00  0.00    +0.030 C 
ATOM     12  C   UNL     1      35.636 -19.993 -20.651  0.00  0.00    +0.006 C 
ATOM     13  C   UNL     1      33.583 -19.100 -21.558  0.00  0.00    +0.006 C 
ATOM     14  C   UNL     1      34.903 -20.889 -19.873  0.00  0.00    +0.001 C 
ATOM     15  C   UNL     1      32.849 -19.995 -20.779  0.00  0.00    +0.001 C 
ATOM     16  C   UNL     1      33.508 -20.888 -19.936  0.00  0.00    +0.000 C 
ENDBRANCH  10  11
ENDBRANCH   6  10
BRANCH   3  17
ATOM     17  C   UNL     1      32.788 -14.453 -24.534  0.00  0.00    +0.248 C 
BRANCH  17  18
ATOM     18  O   UNL     1      33.772 -13.818 -25.336  0.00  0.00    -0.331 OA
BRANCH  18  19
ATOM     19  C   UNL     1      33.420 -12.471 -25.624  0.00  0.00    +0.176 C 
BRANCH  19  20
ATOM     20  C   UNL     1      34.041 -11.563 -24.581  0.00  0.00    +0.169 C 
BRANCH  20  21
ATOM     21  O   UNL     1      35.088 -10.811 -25.184  0.00  0.00    -0.379 OA
ATOM     22  H   UNL     1      35.414 -10.150 -24.555  0.00  0.00    +0.211 HD
ENDBRANCH  20  21
ENDBRANCH  19  20
ENDBRANCH  18  19
ENDBRANCH  17  18
ENDBRANCH   3  17
TORSDOF 7
ENDMDL
MODEL 5
REMARK VINA RESULT:      -7.7      8.916     11.928
REMARK  Name = 4369475
REMARK  7 active torsions:
REMARK  status: ('A' for Active; 'I' for Inactive)
REMARK    1  A    between atoms: N_3  and  C_17
REMARK    2  A    between atoms: C_6  and  S_10
REMARK    3  A    between atoms: S_10  and  C_11
REMARK    4  A    between atoms: C_17  and  O_18
REMARK    5  A    between atoms: O_18  and  C_19
REMARK    6  A    between atoms: C_19  and  C_20
REMARK    7  A    between atoms: C_20  and  O_21
REMARK                            x       y       z     vdW  Elec       q    Type
REMARK                         _______ _______ _______ _____ _____    ______ ____
ROOT
ATOM      1  O   UNL     1      36.787 -25.746 -11.922  0.00  0.00    -0.252 OA
ATOM      2  O   UNL     1      32.890 -23.616 -13.103  0.00  0.00    -0.269 OA
ATOM      3  N   UNL     1      36.392 -25.340 -14.186  0.00  0.00    -0.215 N 
ATOM      4  N   UNL     1      34.847 -24.685 -12.534  0.00  0.00    -0.235 N 
ATOM      5  C   UNL     1      35.551 -24.818 -15.147  0.00  0.00    +0.082 C 
ATOM      6  C   UNL     1      34.380 -24.236 -14.861  0.00  0.00    +0.098 C 
ATOM      7  C   UNL     1      36.073 -25.296 -12.822  0.00  0.00    +0.316 C 
ATOM      8  C   UNL     1      33.950 -24.138 -13.441  0.00  0.00    +0.260 C 
ATOM      9  H   UNL     1      34.593 -24.639 -11.584  0.00  0.00    +0.159 HD
ENDROOT
BRANCH   6  10
ATOM     10  S   UNL     1      33.331 -23.584 -16.065  0.00  0.00    -0.081 S 
BRANCH  10  11
ATOM     11  C   UNL     1      34.549 -22.795 -17.102  0.00  0.00    +0.030 C 
ATOM     12  C   UNL     1      35.781 -22.420 -16.567  0.00  0.00    +0.006 C 
ATOM     13  C   UNL     1      34.268 -22.553 -18.446  0.00  0.00    +0.006 C 
ATOM     14  C   UNL     1      36.733 -21.801 -17.378  0.00  0.00    +0.001 C 
ATOM     15  C   UNL     1      35.220 -21.936 -19.257  0.00  0.00    +0.001 C 
ATOM     16  C   UNL     1      36.452 -21.560 -18.724  0.00  0.00    +0.000 C 
ENDBRANCH  10  11
ENDBRANCH   6  10
BRANCH   3  17
ATOM     17  C   UNL     1      37.641 -25.947 -14.635  0.00  0.00    +0.248 C 
BRANCH  17  18
ATOM     18  O   UNL     1      38.652 -24.950 -14.649  0.00  0.00    -0.331 OA
BRANCH  18  19
ATOM     19  C   UNL     1      39.756 -25.317 -13.833  0.00  0.00    +0.176 C 
BRANCH  19  20
ATOM     20  C   UNL     1      40.615 -26.315 -14.584  0.00  0.00    +0.169 C 
BRANCH  20  21
ATOM     21  O   UNL     1      40.575 -26.011 -15.973  0.00  0.00    -0.379 OA
ATOM     22  H   UNL     1      40.477 -25.054 -16.092  0.00  0.00    +0.211 HD
ENDBRANCH  20  21
ENDBRANCH  19  20
ENDBRANCH  18  19
ENDBRANCH  17  18
ENDBRANCH   3  17
TORSDOF 7
ENDMDL
MODEL 6
REMARK VINA RESULT:      -7.5      6.647      9.013
REMARK  Name = 4369475
REMARK  7 active torsions:
REMARK  status: ('A' for Active; 'I' for Inactive)
REMARK    1  A    between atoms: N_3  and  C_17
REMARK    2  A    between atoms: C_6  and  S_10
REMARK    3  A    between atoms: S_10  and  C_11
REMARK    4  A    between atoms: C_17  and  O_18
REMARK    5  A    between atoms: O_18  and  C_19
REMARK    6  A    between atoms: C_19  and  C_20
REMARK    7  A    between atoms: C_20  and  O_21
REMARK                            x       y       z     vdW  Elec       q    Type
REMARK                         _______ _______ _______ _____ _____    ______ ____
ROOT
ATOM      1  O   UNL     1      31.849 -22.511 -13.632  0.00  0.00    -0.252 OA
ATOM      2  O   UNL     1      35.434 -23.370 -16.375  0.00  0.00    -0.269 OA
ATOM      3  N   UNL     1      31.434 -22.959 -15.884  0.00  0.00    -0.215 N 
ATOM      4  N   UNL     1      33.624 -22.941 -15.019  0.00  0.00    -0.235 N 
ATOM      5  C   UNL     1      31.952 -23.263 -17.126  0.00  0.00    +0.082 C 
ATOM      6  C   UNL     1      33.261 -23.412 -17.360  0.00  0.00    +0.098 C 
ATOM      7  C   UNL     1      32.257 -22.783 -14.763  0.00  0.00    +0.316 C 
ATOM      8  C   UNL     1      34.219 -23.246 -16.236  0.00  0.00    +0.260 C 
ATOM      9  H   UNL     1      34.231 -22.823 -14.253  0.00  0.00    +0.159 HD
ENDROOT
BRANCH   6  10
ATOM     10  S   UNL     1      33.904 -23.793 -18.915  0.00  0.00    -0.081 S 
BRANCH  10  11
ATOM     11  C   UNL     1      34.079 -22.139 -19.560  0.00  0.00    +0.030 C 
ATOM     12  C   UNL     1      32.945 -21.378 -19.841  0.00  0.00    +0.006 C 
ATOM     13  C   UNL     1      35.349 -21.610 -19.783  0.00  0.00    +0.006 C 
ATOM     14  C   UNL     1      33.082 -20.085 -20.346  0.00  0.00    +0.001 C 
ATOM     15  C   UNL     1      35.486 -20.316 -20.288  0.00  0.00    +0.001 C 
ATOM     16  C   UNL     1      34.353 -19.554 -20.569  0.00  0.00    +0.000 C 
ENDBRANCH  10  11
ENDBRANCH   6  10
BRANCH   3  17
ATOM     17  C   UNL     1      29.986 -22.825 -15.766  0.00  0.00    +0.248 C 
BRANCH  17  18
ATOM     18  O   UNL     1      29.454 -22.507 -17.043  0.00  0.00    -0.331 OA
BRANCH  18  19
ATOM     19  C   UNL     1      28.128 -22.997 -17.192  0.00  0.00    +0.176 C 
BRANCH  19  20
ATOM     20  C   UNL     1      27.244 -22.361 -16.137  0.00  0.00    +0.169 C 
BRANCH  20  21
ATOM     21  O   UNL     1      26.033 -21.928 -16.744  0.00  0.00    -0.379 OA
ATOM     22  H   UNL     1      25.355 -21.805 -16.063  0.00  0.00    +0.211 HD
ENDBRANCH  20  21
ENDBRANCH  19  20
ENDBRANCH  18  19
ENDBRANCH  17  18
ENDBRANCH   3  17
TORSDOF 7
ENDMDL
MODEL 7
REMARK VINA RESULT:      -7.4      6.225      8.641
REMARK  Name = 4369475
REMARK  7 active torsions:
REMARK  status: ('A' for Active; 'I' for Inactive)
REMARK    1  A    between atoms: N_3  and  C_17
REMARK    2  A    between atoms: C_6  and  S_10
REMARK    3  A    between atoms: S_10  and  C_11
REMARK    4  A    between atoms: C_17  and  O_18
REMARK    5  A    between atoms: O_18  and  C_19
REMARK    6  A    between atoms: C_19  and  C_20
REMARK    7  A    between atoms: C_20  and  O_21
REMARK                            x       y       z     vdW  Elec       q    Type
REMARK                         _______ _______ _______ _____ _____    ______ ____
ROOT
ATOM      1  O   UNL     1      33.283  -6.949 -19.721  0.00  0.00    -0.252 OA
ATOM      2  O   UNL     1      31.037 -10.889 -18.977  0.00  0.00    -0.269 OA
ATOM      3  N   UNL     1      32.657  -8.230 -21.568  0.00  0.00    -0.215 N 
ATOM      4  N   UNL     1      32.163  -8.920 -19.372  0.00  0.00    -0.235 N 
ATOM      5  C   UNL     1      32.041  -9.371 -22.041  0.00  0.00    +0.082 C 
ATOM      6  C   UNL     1      31.487 -10.291 -21.243  0.00  0.00    +0.098 C 
ATOM      7  C   UNL     1      32.745  -7.952 -20.197  0.00  0.00    +0.316 C 
ATOM      8  C   UNL     1      31.527 -10.089 -19.771  0.00  0.00    +0.260 C 
ATOM      9  H   UNL     1      32.208  -8.755 -18.403  0.00  0.00    +0.159 HD
ENDROOT
BRANCH   6  10
ATOM     10  S   UNL     1      30.718 -11.716 -21.838  0.00  0.00    -0.081 S 
BRANCH  10  11
ATOM     11  C   UNL     1      32.138 -12.792 -21.913  0.00  0.00    +0.030 C 
ATOM     12  C   UNL     1      32.913 -12.842 -23.072  0.00  0.00    +0.006 C 
ATOM     13  C   UNL     1      32.472 -13.582 -20.815  0.00  0.00    +0.006 C 
ATOM     14  C   UNL     1      34.023 -13.684 -23.132  0.00  0.00    +0.001 C 
ATOM     15  C   UNL     1      33.583 -14.424 -20.874  0.00  0.00    +0.001 C 
ATOM     16  C   UNL     1      34.358 -14.475 -22.031  0.00  0.00    +0.000 C 
ENDBRANCH  10  11
ENDBRANCH   6  10
BRANCH   3  17
ATOM     17  C   UNL     1      33.221  -7.307 -22.548  0.00  0.00    +0.248 C 
BRANCH  17  18
ATOM     18  O   UNL     1      32.181  -6.861 -23.404  0.00  0.00    -0.331 OA
BRANCH  18  19
ATOM     19  C   UNL     1      31.828  -5.510 -23.135  0.00  0.00    +0.176 C 
BRANCH  19  20
ATOM     20  C   UNL     1      30.553  -5.485 -22.316  0.00  0.00    +0.169 C 
BRANCH  20  21
ATOM     21  O   UNL     1      30.880  -5.231 -20.955  0.00  0.00    -0.379 OA
ATOM     22  H   UNL     1      30.278  -5.728 -20.380  0.00  0.00    +0.211 HD
ENDBRANCH  20  21
ENDBRANCH  19  20
ENDBRANCH  18  19
ENDBRANCH  17  18
ENDBRANCH   3  17
TORSDOF 7
ENDMDL
MODEL 8
REMARK VINA RESULT:      -7.3      7.185      9.799
REMARK  Name = 4369475
REMARK  7 active torsions:
REMARK  status: ('A' for Active; 'I' for Inactive)
REMARK    1  A    between atoms: N_3  and  C_17
REMARK    2  A    between atoms: C_6  and  S_10
REMARK    3  A    between atoms: S_10  and  C_11
REMARK    4  A    between atoms: C_17  and  O_18
REMARK    5  A    between atoms: O_18  and  C_19
REMARK    6  A    between atoms: C_19  and  C_20
REMARK    7  A    between atoms: C_20  and  O_21
REMARK                            x       y       z     vdW  Elec       q    Type
REMARK                         _______ _______ _______ _____ _____    ______ ____
ROOT
ATOM      1  O   UNL     1      35.937 -22.779 -16.660  0.00  0.00    -0.252 OA
ATOM      2  O   UNL     1      33.865 -23.854 -12.702  0.00  0.00    -0.269 OA
ATOM      3  N   UNL     1      33.684 -23.385 -16.722  0.00  0.00    -0.215 N 
ATOM      4  N   UNL     1      34.883 -23.321 -14.696  0.00  0.00    -0.235 N 
ATOM      5  C   UNL     1      32.564 -23.781 -16.020  0.00  0.00    +0.082 C 
ATOM      6  C   UNL     1      32.553 -23.956 -14.693  0.00  0.00    +0.098 C 
ATOM      7  C   UNL     1      34.907 -23.135 -16.083  0.00  0.00    +0.316 C 
ATOM      8  C   UNL     1      33.800 -23.716 -13.922  0.00  0.00    +0.260 C 
ATOM      9  H   UNL     1      35.727 -23.155 -14.217  0.00  0.00    +0.159 HD
ENDROOT
BRANCH   6  10
ATOM     10  S   UNL     1      31.150 -24.451 -13.819  0.00  0.00    -0.081 S 
BRANCH  10  11
ATOM     11  C   UNL     1      29.898 -23.919 -14.972  0.00  0.00    +0.030 C 
ATOM     12  C   UNL     1      29.351 -24.829 -15.876  0.00  0.00    +0.006 C 
ATOM     13  C   UNL     1      29.467 -22.593 -14.968  0.00  0.00    +0.006 C 
ATOM     14  C   UNL     1      28.373 -24.412 -16.778  0.00  0.00    +0.001 C 
ATOM     15  C   UNL     1      28.487 -22.176 -15.870  0.00  0.00    +0.001 C 
ATOM     16  C   UNL     1      27.940 -23.085 -16.774  0.00  0.00    +0.000 C 
ENDBRANCH  10  11
ENDBRANCH   6  10
BRANCH   3  17
ATOM     17  C   UNL     1      33.560 -23.231 -18.168  0.00  0.00    +0.248 C 
BRANCH  17  18
ATOM     18  O   UNL     1      32.842 -22.037 -18.437  0.00  0.00    -0.331 OA
BRANCH  18  19
ATOM     19  C   UNL     1      33.469 -21.271 -19.458  0.00  0.00    +0.176 C 
BRANCH  19  20
ATOM     20  C   UNL     1      34.858 -21.824 -19.708  0.00  0.00    +0.169 C 
BRANCH  20  21
ATOM     21  O   UNL     1      35.818 -20.949 -19.128  0.00  0.00    -0.379 OA
ATOM     22  H   UNL     1      36.595 -21.458 -18.851  0.00  0.00    +0.211 HD
ENDBRANCH  20  21
ENDBRANCH  19  20
ENDBRANCH  18  19
ENDBRANCH  17  18
ENDBRANCH   3  17
TORSDOF 7
ENDMDL
MODEL 9
REMARK VINA RESULT:      -7.3      4.357      8.280
REMARK  Name = 4369475
REMARK  7 active torsions:
REMARK  status: ('A' for Active; 'I' for Inactive)
REMARK    1  A    between atoms: N_3  and  C_17
REMARK    2  A    between atoms: C_6  and  S_10
REMARK    3  A    between atoms: S_10  and  C_11
REMARK    4  A    between atoms: C_17  and  O_18
REMARK    5  A    between atoms: O_18  and  C_19
REMARK    6  A    between atoms: C_19  and  C_20
REMARK    7  A    between atoms: C_20  and  O_21
REMARK                            x       y       z     vdW  Elec       q    Type
REMARK                         _______ _______ _______ _____ _____    ______ ____
ROOT
ATOM      1  O   UNL     1      33.535 -15.380 -20.642  0.00  0.00    -0.252 OA
ATOM      2  O   UNL     1      31.401 -11.441 -19.617  0.00  0.00    -0.269 OA
ATOM      3  N   UNL     1      32.908 -13.974 -22.396  0.00  0.00    -0.215 N 
ATOM      4  N   UNL     1      32.467 -13.409 -20.153  0.00  0.00    -0.235 N 
ATOM      5  C   UNL     1      32.312 -12.792 -22.786  0.00  0.00    +0.082 C 
ATOM      6  C   UNL     1      31.793 -11.911 -21.923  0.00  0.00    +0.098 C 
ATOM      7  C   UNL     1      33.013 -14.338 -21.046  0.00  0.00    +0.316 C 
ATOM      8  C   UNL     1      31.855 -12.203 -20.467  0.00  0.00    +0.260 C 
ATOM      9  H   UNL     1      32.524 -13.636 -19.196  0.00  0.00    +0.159 HD
ENDROOT
BRANCH   6  10
ATOM     10  S   UNL     1      31.049 -10.435 -22.416  0.00  0.00    -0.081 S 
BRANCH  10  11
ATOM     11  C   UNL     1      32.512  -9.518 -22.863  0.00  0.00    +0.030 C 
ATOM     12  C   UNL     1      33.399 -10.038 -23.805  0.00  0.00    +0.006 C 
ATOM     13  C   UNL     1      32.767  -8.282 -22.270  0.00  0.00    +0.006 C 
ATOM     14  C   UNL     1      34.544  -9.321 -24.154  0.00  0.00    +0.001 C 
ATOM     15  C   UNL     1      33.911  -7.564 -22.620  0.00  0.00    +0.001 C 
ATOM     16  C   UNL     1      34.799  -8.083 -23.561  0.00  0.00    +0.000 C 
ENDBRANCH  10  11
ENDBRANCH   6  10
BRANCH   3  17
ATOM     17  C   UNL     1      33.435 -14.847 -23.441  0.00  0.00    +0.248 C 
BRANCH  17  18
ATOM     18  O   UNL     1      32.976 -14.377 -24.699  0.00  0.00    -0.331 OA
BRANCH  18  19
ATOM     19  C   UNL     1      33.388 -15.232 -25.757  0.00  0.00    +0.176 C 
BRANCH  19  20
ATOM     20  C   UNL     1      33.926 -16.522 -25.168  0.00  0.00    +0.169 C 
BRANCH  20  21
ATOM     21  O   UNL     1      35.066 -16.933 -25.914  0.00  0.00    -0.379 OA
ATOM     22  H   UNL     1      34.823 -17.032 -26.847  0.00  0.00    +0.211 HD
ENDBRANCH  20  21
ENDBRANCH  19  20
ENDBRANCH  18  19
ENDBRANCH  17  18
ENDBRANCH   3  17
TORSDOF 7
ENDMDL
