MODEL 1
REMARK VINA RESULT:      -7.3      0.000      0.000
REMARK  Name = 87901
REMARK  5 active torsions:
REMARK  status: ('A' for Active; 'I' for Inactive)
REMARK    1  A    between atoms: C_3  and  O_13
REMARK    2  A    between atoms: C_4  and  O_15
REMARK    3  A    between atoms: C_5  and  C_17
REMARK    4  A    between atoms: C_6  and  N_9
REMARK    5  A    between atoms: C_17  and  O_18
REMARK                            x       y       z     vdW  Elec       q    Type
REMARK                         _______ _______ _______ _____ _____    ______ ____
ROOT
ATOM      1  O   UNL     1      32.422 -23.436 -15.770  0.00  0.00    -0.446 OA
ATOM      2  O   UNL     1      31.373 -22.323 -17.413  0.00  0.00    -0.248 OA
ATOM      3  C   UNL     1      29.936 -24.233 -14.594  0.00  0.00    +0.170 C 
ATOM      4  C   UNL     1      31.239 -24.913 -14.200  0.00  0.00    +0.182 C 
ATOM      5  C   UNL     1      32.382 -23.934 -14.418  0.00  0.00    +0.227 C 
ATOM      6  C   UNL     1      30.007 -23.748 -16.034  0.00  0.00    +0.201 C 
ATOM      7  C   UNL     1      31.303 -23.071 -16.439  0.00  0.00    +0.338 C 
ENDROOT
BRANCH   6   9
ATOM      8  O   UNL     1      27.641 -24.167 -17.664  0.00  0.00    -0.275 OA
ATOM      9  N   UNL     1      28.944 -22.805 -16.298  0.00  0.00    -0.295 N 
ATOM     10  C   UNL     1      27.849 -23.099 -17.094  0.00  0.00    +0.223 C 
ATOM     11  C   UNL     1      26.881 -21.950 -17.182  0.00  0.00    +0.095 C 
ATOM     12  H   UNL     1      29.001 -21.910 -15.893  0.00  0.00    +0.150 HD
ENDBRANCH   6   9
BRANCH   3  13
ATOM     13  O   UNL     1      28.870 -25.180 -14.501  0.00  0.00    -0.380 OA
ATOM     14  H   UNL     1      28.779 -25.474 -13.581  0.00  0.00    +0.211 HD
ENDBRANCH   3  13
BRANCH   4  15
ATOM     15  O   UNL     1      31.196 -25.277 -12.824  0.00  0.00    -0.378 OA
ATOM     16  H   UNL     1      31.655 -26.122 -12.698  0.00  0.00    +0.211 HD
ENDBRANCH   4  15
BRANCH   5  17
ATOM     17  C   UNL     1      33.739 -24.572 -14.134  0.00  0.00    +0.184 C 
BRANCH  17  18
ATOM     18  O   UNL     1      33.941 -24.597 -12.733  0.00  0.00    -0.378 OA
ATOM     19  H   UNL     1      34.565 -23.898 -12.484  0.00  0.00    +0.211 HD
ENDBRANCH  17  18
ENDBRANCH   5  17
TORSDOF 5
ENDMDL
MODEL 2
REMARK VINA RESULT:      -7.1      4.578      6.513
REMARK  Name = 87901
REMARK  5 active torsions:
REMARK  status: ('A' for Active; 'I' for Inactive)
REMARK    1  A    between atoms: C_3  and  O_13
REMARK    2  A    between atoms: C_4  and  O_15
REMARK    3  A    between atoms: C_5  and  C_17
REMARK    4  A    between atoms: C_6  and  N_9
REMARK    5  A    between atoms: C_17  and  O_18
REMARK                            x       y       z     vdW  Elec       q    Type
REMARK                         _______ _______ _______ _____ _____    ______ ____
ROOT
ATOM      1  O   UNL     1      38.444 -23.633 -15.183  0.00  0.00    -0.446 OA
ATOM      2  O   UNL     1      36.855 -22.076 -15.476  0.00  0.00    -0.248 OA
ATOM      3  C   UNL     1      36.491 -25.691 -14.798  0.00  0.00    +0.170 C 
ATOM      4  C   UNL     1      37.945 -26.039 -15.080  0.00  0.00    +0.182 C 
ATOM      5  C   UNL     1      38.820 -24.895 -14.594  0.00  0.00    +0.227 C 
ATOM      6  C   UNL     1      36.125 -24.370 -15.458  0.00  0.00    +0.201 C 
ATOM      7  C   UNL     1      37.151 -23.261 -15.328  0.00  0.00    +0.338 C 
ENDROOT
BRANCH   6   9
ATOM      8  O   UNL     1      33.737 -23.593 -16.917  0.00  0.00    -0.275 OA
ATOM      9  N   UNL     1      34.889 -23.861 -14.911  0.00  0.00    -0.295 N 
ATOM     10  C   UNL     1      33.798 -23.516 -15.693  0.00  0.00    +0.223 C 
ATOM     11  C   UNL     1      32.633 -23.037 -14.869  0.00  0.00    +0.095 C 
ATOM     12  H   UNL     1      34.817 -23.754 -13.935  0.00  0.00    +0.150 HD
ENDBRANCH   6   9
BRANCH   3  13
ATOM     13  O   UNL     1      35.652 -26.706 -15.351  0.00  0.00    -0.380 OA
ATOM     14  H   UNL     1      35.571 -27.438 -14.719  0.00  0.00    +0.211 HD
ENDBRANCH   3  13
BRANCH   4  15
ATOM     15  O   UNL     1      38.301 -27.226 -14.378  0.00  0.00    -0.378 OA
ATOM     16  H   UNL     1      38.369 -27.963 -15.004  0.00  0.00    +0.211 HD
ENDBRANCH   4  15
BRANCH   5  17
ATOM     17  C   UNL     1      40.292 -25.124 -14.926  0.00  0.00    +0.184 C 
BRANCH  17  18
ATOM     18  O   UNL     1      40.372 -25.934 -16.084  0.00  0.00    -0.378 OA
ATOM     19  H   UNL     1      41.299 -26.160 -16.258  0.00  0.00    +0.211 HD
ENDBRANCH  17  18
ENDBRANCH   5  17
TORSDOF 5
ENDMDL
MODEL 3
REMARK VINA RESULT:      -7.0      3.532      5.708
REMARK  Name = 87901
REMARK  5 active torsions:
REMARK  status: ('A' for Active; 'I' for Inactive)
REMARK    1  A    between atoms: C_3  and  O_13
REMARK    2  A    between atoms: C_4  and  O_15
REMARK    3  A    between atoms: C_5  and  C_17
REMARK    4  A    between atoms: C_6  and  N_9
REMARK    5  A    between atoms: C_17  and  O_18
REMARK                            x       y       z     vdW  Elec       q    Type
REMARK                         _______ _______ _______ _____ _____    ______ ____
ROOT
ATOM      1  O   UNL     1      37.142 -24.801 -14.939  0.00  0.00    -0.446 OA
ATOM      2  O   UNL     1      35.351 -24.260 -16.178  0.00  0.00    -0.248 OA
ATOM      3  C   UNL     1      35.684 -24.436 -12.502  0.00  0.00    +0.170 C 
ATOM      4  C   UNL     1      37.014 -25.174 -12.512  0.00  0.00    +0.182 C 
ATOM      5  C   UNL     1      37.840 -24.669 -13.684  0.00  0.00    +0.227 C 
ATOM      6  C   UNL     1      34.965 -24.623 -13.830  0.00  0.00    +0.201 C 
ATOM      7  C   UNL     1      35.829 -24.498 -15.070  0.00  0.00    +0.338 C 
ENDROOT
BRANCH   6   9
ATOM      8  O   UNL     1      32.111 -25.145 -13.926  0.00  0.00    -0.275 OA
ATOM      9  N   UNL     1      33.900 -23.656 -13.964  0.00  0.00    -0.295 N 
ATOM     10  C   UNL     1      32.560 -24.004 -14.000  0.00  0.00    +0.223 C 
ATOM     11  C   UNL     1      31.660 -22.804 -14.121  0.00  0.00    +0.095 C 
ATOM     12  H   UNL     1      34.138 -22.704 -14.033  0.00  0.00    +0.150 HD
ENDBRANCH   6   9
BRANCH   3  13
ATOM     13  O   UNL     1      34.856 -24.982 -11.473  0.00  0.00    -0.380 OA
ATOM     14  H   UNL     1      34.670 -25.914 -11.669  0.00  0.00    +0.211 HD
ENDBRANCH   3  13
BRANCH   4  15
ATOM     15  O   UNL     1      37.719 -24.913 -11.302  0.00  0.00    -0.378 OA
ATOM     16  H   UNL     1      37.656 -25.685 -10.718  0.00  0.00    +0.211 HD
ENDBRANCH   4  15
BRANCH   5  17
ATOM     17  C   UNL     1      39.157 -25.428 -13.821  0.00  0.00    +0.184 C 
BRANCH  17  18
ATOM     18  O   UNL     1      38.922 -26.607 -14.570  0.00  0.00    -0.378 OA
ATOM     19  H   UNL     1      39.730 -26.852 -15.049  0.00  0.00    +0.211 HD
ENDBRANCH  17  18
ENDBRANCH   5  17
TORSDOF 5
ENDMDL
MODEL 4
REMARK VINA RESULT:      -7.0      9.223     11.689
REMARK  Name = 87901
REMARK  5 active torsions:
REMARK  status: ('A' for Active; 'I' for Inactive)
REMARK    1  A    between atoms: C_3  and  O_13
REMARK    2  A    between atoms: C_4  and  O_15
REMARK    3  A    between atoms: C_5  and  C_17
REMARK    4  A    between atoms: C_6  and  N_9
REMARK    5  A    between atoms: C_17  and  O_18
REMARK                            x       y       z     vdW  Elec       q    Type
REMARK                         _______ _______ _______ _____ _____    ______ ____
ROOT
ATOM      1  O   UNL     1      34.517 -15.463 -22.212  0.00  0.00    -0.446 OA
ATOM      2  O   UNL     1      34.991 -16.393 -20.225  0.00  0.00    -0.248 OA
ATOM      3  C   UNL     1      35.144 -17.886 -23.603  0.00  0.00    +0.170 C 
ATOM      4  C   UNL     1      34.372 -16.769 -24.290  0.00  0.00    +0.182 C 
ATOM      5  C   UNL     1      34.745 -15.448 -23.636  0.00  0.00    +0.227 C 
ATOM      6  C   UNL     1      34.856 -17.886 -22.109  0.00  0.00    +0.201 C 
ATOM      7  C   UNL     1      34.843 -16.525 -21.439  0.00  0.00    +0.338 C 
ENDROOT
BRANCH   6   9
ATOM      8  O   UNL     1      34.395 -20.337 -20.622  0.00  0.00    -0.275 OA
ATOM      9  N   UNL     1      35.835 -18.686 -21.410  0.00  0.00    -0.295 N 
ATOM     10  C   UNL     1      35.516 -19.847 -20.724  0.00  0.00    +0.223 C 
ATOM     11  C   UNL     1      36.726 -20.497 -20.108  0.00  0.00    +0.095 C 
ATOM     12  H   UNL     1      36.774 -18.392 -21.421  0.00  0.00    +0.150 HD
ENDBRANCH   6   9
BRANCH   3  13
ATOM     13  O   UNL     1      34.718 -19.142 -24.133  0.00  0.00    -0.380 OA
ATOM     14  H   UNL     1      34.234 -18.995 -24.961  0.00  0.00    +0.211 HD
ENDBRANCH   3  13
BRANCH   4  15
ATOM     15  O   UNL     1      34.724 -16.719 -25.670  0.00  0.00    -0.378 OA
ATOM     16  H   UNL     1      35.255 -15.925 -25.839  0.00  0.00    +0.211 HD
ENDBRANCH   4  15
BRANCH   5  17
ATOM     17  C   UNL     1      33.941 -14.284 -24.207  0.00  0.00    +0.184 C 
BRANCH  17  18
ATOM     18  O   UNL     1      34.291 -13.106 -23.504  0.00  0.00    -0.378 OA
ATOM     19  H   UNL     1      35.125 -13.249 -23.029  0.00  0.00    +0.211 HD
ENDBRANCH  17  18
ENDBRANCH   5  17
TORSDOF 5
ENDMDL
MODEL 5
REMARK VINA RESULT:      -6.9      1.194      1.444
REMARK  Name = 87901
REMARK  5 active torsions:
REMARK  status: ('A' for Active; 'I' for Inactive)
REMARK    1  A    between atoms: C_3  and  O_13
REMARK    2  A    between atoms: C_4  and  O_15
REMARK    3  A    between atoms: C_5  and  C_17
REMARK    4  A    between atoms: C_6  and  N_9
REMARK    5  A    between atoms: C_17  and  O_18
REMARK                            x       y       z     vdW  Elec       q    Type
REMARK                         _______ _______ _______ _____ _____    ______ ____
ROOT
ATOM      1  O   UNL     1      33.124 -23.288 -16.148  0.00  0.00    -0.446 OA
ATOM      2  O   UNL     1      31.439 -22.496 -17.401  0.00  0.00    -0.248 OA
ATOM      3  C   UNL     1      31.322 -24.139 -14.092  0.00  0.00    +0.170 C 
ATOM      4  C   UNL     1      32.756 -24.645 -14.130  0.00  0.00    +0.182 C 
ATOM      5  C   UNL     1      33.618 -23.607 -14.831  0.00  0.00    +0.227 C 
ATOM      6  C   UNL     1      30.828 -23.842 -15.500  0.00  0.00    +0.201 C 
ATOM      7  C   UNL     1      31.806 -23.114 -16.402  0.00  0.00    +0.338 C 
ENDROOT
BRANCH   6   9
ATOM      8  O   UNL     1      28.284 -24.391 -16.788  0.00  0.00    -0.275 OA
ATOM      9  N   UNL     1      29.628 -23.039 -15.452  0.00  0.00    -0.295 N 
ATOM     10  C   UNL     1      28.456 -23.386 -16.103  0.00  0.00    +0.223 C 
ATOM     11  C   UNL     1      27.353 -22.388 -15.867  0.00  0.00    +0.095 C 
ATOM     12  H   UNL     1      29.644 -22.204 -14.930  0.00  0.00    +0.150 HD
ENDBRANCH   6   9
BRANCH   3  13
ATOM     13  O   UNL     1      30.483 -25.155 -13.538  0.00  0.00    -0.380 OA
ATOM     14  H   UNL     1      29.569 -24.833 -13.500  0.00  0.00    +0.211 HD
ENDBRANCH   3  13
BRANCH   4  15
ATOM     15  O   UNL     1      33.237 -24.828 -12.802  0.00  0.00    -0.378 OA
ATOM     16  H   UNL     1      33.895 -25.541 -12.792  0.00  0.00    +0.211 HD
ENDBRANCH   4  15
BRANCH   5  17
ATOM     17  C   UNL     1      35.059 -24.081 -14.994  0.00  0.00    +0.184 C 
BRANCH  17  18
ATOM     18  O   UNL     1      35.100 -25.480 -14.783  0.00  0.00    -0.378 OA
ATOM     19  H   UNL     1      34.196 -25.831 -14.763  0.00  0.00    +0.211 HD
ENDBRANCH  17  18
ENDBRANCH   5  17
TORSDOF 5
ENDMDL
MODEL 6
REMARK VINA RESULT:      -6.8      3.607      6.072
REMARK  Name = 87901
REMARK  5 active torsions:
REMARK  status: ('A' for Active; 'I' for Inactive)
REMARK    1  A    between atoms: C_3  and  O_13
REMARK    2  A    between atoms: C_4  and  O_15
REMARK    3  A    between atoms: C_5  and  C_17
REMARK    4  A    between atoms: C_6  and  N_9
REMARK    5  A    between atoms: C_17  and  O_18
REMARK                            x       y       z     vdW  Elec       q    Type
REMARK                         _______ _______ _______ _____ _____    ______ ____
ROOT
ATOM      1  O   UNL     1      36.940 -25.032 -12.276  0.00  0.00    -0.446 OA
ATOM      2  O   UNL     1      35.071 -24.378 -11.221  0.00  0.00    -0.248 OA
ATOM      3  C   UNL     1      35.565 -25.256 -14.777  0.00  0.00    +0.170 C 
ATOM      4  C   UNL     1      37.085 -25.232 -14.723  0.00  0.00    +0.182 C 
ATOM      5  C   UNL     1      37.530 -25.764 -13.369  0.00  0.00    +0.227 C 
ATOM      6  C   UNL     1      34.981 -24.450 -13.627  0.00  0.00    +0.201 C 
ATOM      7  C   UNL     1      35.639 -24.658 -12.275  0.00  0.00    +0.338 C 
ENDROOT
BRANCH   6   9
ATOM      8  O   UNL     1      32.719 -23.063 -14.804  0.00  0.00    -0.275 OA
ATOM      9  N   UNL     1      33.580 -24.757 -13.459  0.00  0.00    -0.295 N 
ATOM     10  C   UNL     1      32.567 -24.033 -14.066  0.00  0.00    +0.223 C 
ATOM     11  C   UNL     1      31.201 -24.579 -13.744  0.00  0.00    +0.095 C 
ATOM     12  H   UNL     1      33.332 -25.518 -12.885  0.00  0.00    +0.150 HD
ENDBRANCH   6   9
BRANCH   3  13
ATOM     13  O   UNL     1      35.132 -24.654 -15.999  0.00  0.00    -0.380 OA
ATOM     14  H   UNL     1      35.907 -24.422 -16.535  0.00  0.00    +0.211 HD
ENDBRANCH   3  13
BRANCH   4  15
ATOM     15  O   UNL     1      37.617 -26.068 -15.747  0.00  0.00    -0.378 OA
ATOM     16  H   UNL     1      37.426 -26.995 -15.538  0.00  0.00    +0.211 HD
ENDBRANCH   4  15
BRANCH   5  17
ATOM     17  C   UNL     1      39.045 -25.686 -13.197  0.00  0.00    +0.184 C 
BRANCH  17  18
ATOM     18  O   UNL     1      39.539 -24.648 -14.024  0.00  0.00    -0.378 OA
ATOM     19  H   UNL     1      38.798 -24.115 -14.353  0.00  0.00    +0.211 HD
ENDBRANCH  17  18
ENDBRANCH   5  17
TORSDOF 5
ENDMDL
MODEL 7
REMARK VINA RESULT:      -6.7      9.356     11.748
REMARK  Name = 87901
REMARK  5 active torsions:
REMARK  status: ('A' for Active; 'I' for Inactive)
REMARK    1  A    between atoms: C_3  and  O_13
REMARK    2  A    between atoms: C_4  and  O_15
REMARK    3  A    between atoms: C_5  and  C_17
REMARK    4  A    between atoms: C_6  and  N_9
REMARK    5  A    between atoms: C_17  and  O_18
REMARK                            x       y       z     vdW  Elec       q    Type
REMARK                         _______ _______ _______ _____ _____    ______ ____
ROOT
ATOM      1  O   UNL     1      34.162 -16.087 -24.280  0.00  0.00    -0.446 OA
ATOM      2  O   UNL     1      34.806 -18.223 -24.522  0.00  0.00    -0.248 OA
ATOM      3  C   UNL     1      34.260 -16.281 -21.425  0.00  0.00    +0.170 C 
ATOM      4  C   UNL     1      34.198 -14.925 -22.113  0.00  0.00    +0.182 C 
ATOM      5  C   UNL     1      33.512 -15.095 -23.459  0.00  0.00    +0.227 C 
ATOM      6  C   UNL     1      34.978 -17.290 -22.309  0.00  0.00    +0.201 C 
ATOM      7  C   UNL     1      34.602 -17.264 -23.778  0.00  0.00    +0.338 C 
ENDROOT
BRANCH   6   9
ATOM      8  O   UNL     1      36.566 -18.820 -20.419  0.00  0.00    -0.275 OA
ATOM      9  N   UNL     1      34.730 -18.634 -21.839  0.00  0.00    -0.295 N 
ATOM     10  C   UNL     1      35.549 -19.283 -20.931  0.00  0.00    +0.223 C 
ATOM     11  C   UNL     1      35.049 -20.662 -20.593  0.00  0.00    +0.095 C 
ATOM     12  H   UNL     1      33.939 -19.111 -22.181  0.00  0.00    +0.150 HD
ENDBRANCH   6   9
BRANCH   3  13
ATOM     13  O   UNL     1      35.002 -16.154 -20.211  0.00  0.00    -0.380 OA
ATOM     14  H   UNL     1      34.388 -16.099 -19.462  0.00  0.00    +0.211 HD
ENDBRANCH   3  13
BRANCH   4  15
ATOM     15  O   UNL     1      33.442 -14.016 -21.318  0.00  0.00    -0.378 OA
ATOM     16  H   UNL     1      32.504 -14.087 -21.552  0.00  0.00    +0.211 HD
ENDBRANCH   4  15
BRANCH   5  17
ATOM     17  C   UNL     1      33.494 -13.794 -24.256  0.00  0.00    +0.184 C 
BRANCH  17  18
ATOM     18  O   UNL     1      34.324 -12.852 -23.602  0.00  0.00    -0.378 OA
ATOM     19  H   UNL     1      33.932 -11.968 -23.677  0.00  0.00    +0.211 HD
ENDBRANCH  17  18
ENDBRANCH   5  17
TORSDOF 5
ENDMDL
MODEL 8
REMARK VINA RESULT:      -6.6     10.969     13.387
REMARK  Name = 87901
REMARK  5 active torsions:
REMARK  status: ('A' for Active; 'I' for Inactive)
REMARK    1  A    between atoms: C_3  and  O_13
REMARK    2  A    between atoms: C_4  and  O_15
REMARK    3  A    between atoms: C_5  and  C_17
REMARK    4  A    between atoms: C_6  and  N_9
REMARK    5  A    between atoms: C_17  and  O_18
REMARK                            x       y       z     vdW  Elec       q    Type
REMARK                         _______ _______ _______ _____ _____    ______ ____
ROOT
ATOM      1  O   UNL     1      33.870 -15.619 -26.111  0.00  0.00    -0.446 OA
ATOM      2  O   UNL     1      34.546 -17.739 -25.818  0.00  0.00    -0.248 OA
ATOM      3  C   UNL     1      33.787 -15.155 -23.287  0.00  0.00    +0.170 C 
ATOM      4  C   UNL     1      33.758 -13.994 -24.269  0.00  0.00    +0.182 C 
ATOM      5  C   UNL     1      33.161 -14.482 -25.579  0.00  0.00    +0.227 C 
ATOM      6  C   UNL     1      34.568 -16.322 -23.871  0.00  0.00    +0.201 C 
ATOM      7  C   UNL     1      34.287 -16.641 -25.327  0.00  0.00    +0.338 C 
ENDROOT
BRANCH   6   9
ATOM      8  O   UNL     1      36.500 -18.037 -22.544  0.00  0.00    -0.275 OA
ATOM      9  N   UNL     1      34.303 -17.529 -23.122  0.00  0.00    -0.295 N 
ATOM     10  C   UNL     1      35.297 -18.283 -22.521  0.00  0.00    +0.223 C 
ATOM     11  C   UNL     1      34.745 -19.474 -21.784  0.00  0.00    +0.095 C 
ATOM     12  H   UNL     1      33.369 -17.829 -23.034  0.00  0.00    +0.150 HD
ENDBRANCH   6   9
BRANCH   3  13
ATOM     13  O   UNL     1      34.449 -14.738 -22.091  0.00  0.00    -0.380 OA
ATOM     14  H   UNL     1      33.859 -14.873 -21.332  0.00  0.00    +0.211 HD
ENDBRANCH   3  13
BRANCH   4  15
ATOM     15  O   UNL     1      32.944 -12.945 -23.751  0.00  0.00    -0.378 OA
ATOM     16  H   UNL     1      32.010 -13.194 -23.827  0.00  0.00    +0.211 HD
ENDBRANCH   4  15
BRANCH   5  17
ATOM     17  C   UNL     1      33.181 -13.397 -26.653  0.00  0.00    +0.184 C 
BRANCH  17  18
ATOM     18  O   UNL     1      33.909 -13.880 -27.767  0.00  0.00    -0.378 OA
ATOM     19  H   UNL     1      34.549 -13.209 -28.051  0.00  0.00    +0.211 HD
ENDBRANCH  17  18
ENDBRANCH   5  17
TORSDOF 5
ENDMDL
MODEL 9
REMARK VINA RESULT:      -6.6      5.011      7.146
REMARK  Name = 87901
REMARK  5 active torsions:
REMARK  status: ('A' for Active; 'I' for Inactive)
REMARK    1  A    between atoms: C_3  and  O_13
REMARK    2  A    between atoms: C_4  and  O_15
REMARK    3  A    between atoms: C_5  and  C_17
REMARK    4  A    between atoms: C_6  and  N_9
REMARK    5  A    between atoms: C_17  and  O_18
REMARK                            x       y       z     vdW  Elec       q    Type
REMARK                         _______ _______ _______ _____ _____    ______ ____
ROOT
ATOM      1  O   UNL     1      38.195 -26.302 -14.992  0.00  0.00    -0.446 OA
ATOM      2  O   UNL     1      36.271 -26.853 -16.007  0.00  0.00    -0.248 OA
ATOM      3  C   UNL     1      36.871 -24.407 -13.302  0.00  0.00    +0.170 C 
ATOM      4  C   UNL     1      38.279 -24.886 -12.983  0.00  0.00    +0.182 C 
ATOM      5  C   UNL     1      38.954 -25.305 -14.280  0.00  0.00    +0.227 C 
ATOM      6  C   UNL     1      36.093 -25.495 -14.026  0.00  0.00    +0.201 C 
ATOM      7  C   UNL     1      36.849 -26.232 -15.116  0.00  0.00    +0.338 C 
ENDROOT
BRANCH   6   9
ATOM      8  O   UNL     1      35.963 -23.395 -16.026  0.00  0.00    -0.275 OA
ATOM      9  N   UNL     1      34.909 -24.941 -14.641  0.00  0.00    -0.295 N 
ATOM     10  C   UNL     1      34.949 -23.934 -15.592  0.00  0.00    +0.223 C 
ATOM     11  C   UNL     1      33.577 -23.560 -16.085  0.00  0.00    +0.095 C 
ATOM     12  H   UNL     1      34.031 -25.296 -14.371  0.00  0.00    +0.150 HD
ENDBRANCH   6   9
BRANCH   3  13
ATOM     13  O   UNL     1      36.189 -24.118 -12.080  0.00  0.00    -0.380 OA
ATOM     14  H   UNL     1      35.850 -24.943 -11.698  0.00  0.00    +0.211 HD
ENDBRANCH   3  13
BRANCH   4  15
ATOM     15  O   UNL     1      39.026 -23.827 -12.392  0.00  0.00    -0.378 OA
ATOM     16  H   UNL     1      38.640 -23.599 -11.533  0.00  0.00    +0.211 HD
ENDBRANCH   4  15
BRANCH   5  17
ATOM     17  C   UNL     1      40.343 -25.888 -14.035  0.00  0.00    +0.184 C 
BRANCH  17  18
ATOM     18  O   UNL     1      40.919 -26.220 -15.285  0.00  0.00    -0.378 OA
ATOM     19  H   UNL     1      40.906 -27.183 -15.403  0.00  0.00    +0.211 HD
ENDBRANCH  17  18
ENDBRANCH   5  17
TORSDOF 5
ENDMDL
