MODEL 1
REMARK VINA RESULT:     -10.2      0.000      0.000
REMARK  Name = 11696113
REMARK  4 active torsions:
REMARK  status: ('A' for Active; 'I' for Inactive)
REMARK    1  A    between atoms: C_5  and  C_17
REMARK    2  A    between atoms: C_5  and  C_25
REMARK    3  A    between atoms: C_17  and  C_19
REMARK    4  A    between atoms: C_25  and  N_26
REMARK                            x       y       z     vdW  Elec       q    Type
REMARK                         _______ _______ _______ _____ _____    ______ ____
ROOT
ATOM      1  N   UNL     1      34.718 -20.619 -20.096  0.00  0.00    -0.296 N 
ATOM      2  N   UNL     1      33.291 -22.232 -19.030  0.00  0.00    -0.233 NA
ATOM      3  N   UNL     1      36.179 -22.914 -16.289  0.00  0.00    -0.300 N 
ATOM      4  N   UNL     1      33.961 -23.476 -17.048  0.00  0.00    -0.233 NA
ATOM      5  C   UNL     1      35.132 -18.703 -22.273  0.00  0.00    -0.013 C 
ATOM      6  C   UNL     1      33.993 -18.560 -21.244  0.00  0.00    +0.020 C 
ATOM      7  C   UNL     1      36.289 -19.485 -21.619  0.00  0.00    +0.020 C 
ATOM      8  C   UNL     1      33.559 -19.894 -20.633  0.00  0.00    +0.092 C 
ATOM      9  C   UNL     1      35.850 -20.816 -21.006  0.00  0.00    +0.092 C 
ATOM     10  C   UNL     1      34.477 -21.559 -19.086  0.00  0.00    +0.116 C 
ATOM     11  C   UNL     1      35.441 -21.843 -18.102  0.00  0.00    +0.131 C 
ATOM     12  C   UNL     1      35.113 -22.791 -17.140  0.00  0.00    +0.117 C 
ATOM     13  C   UNL     1      36.751 -21.389 -17.805  0.00  0.00    +0.004 C 
ATOM     14  C   UNL     1      33.111 -23.130 -18.035  0.00  0.00    +0.252 C 
ATOM     15  C   UNL     1      37.181 -22.065 -16.683  0.00  0.00    +0.059 C 
ATOM     16  H   UNL     1      36.219 -23.518 -15.512  0.00  0.00    +0.153 HD
ENDROOT
BRANCH   5  17
ATOM     17  C   UNL     1      35.631 -17.301 -22.671  0.00  0.00    +0.024 C 
BRANCH  17  19
ATOM     18 CL   UNL     1      31.961 -13.024 -20.608  0.00  0.00    -0.082 Cl
ATOM     19  C   UNL     1      34.714 -16.233 -22.155  0.00  0.00    -0.022 C 
ATOM     20  C   UNL     1      34.740 -15.894 -20.807  0.00  0.00    -0.003 C 
ATOM     21  C   UNL     1      33.845 -15.590 -23.030  0.00  0.00    -0.003 C 
ATOM     22  C   UNL     1      33.886 -14.901 -20.327  0.00  0.00    +0.011 C 
ATOM     23  C   UNL     1      32.992 -14.596 -22.551  0.00  0.00    +0.011 C 
ATOM     24  C   UNL     1      33.012 -14.251 -21.199  0.00  0.00    +0.058 C 
ENDBRANCH  17  19
ENDBRANCH   5  17
BRANCH   5  25
ATOM     25  C   UNL     1      34.639 -19.413 -23.548  0.00  0.00    -0.086 C 
BRANCH  25  26
ATOM     26  N   UNL     1      34.763 -18.535 -24.696  0.00  0.00    +0.380 N 
ATOM     27  H   UNL     1      35.426 -17.789 -24.482  0.00  0.00    -0.089 HD
ATOM     28  H   UNL     1      33.853 -18.129 -24.913  0.00  0.00    -0.089 HD
ATOM     29  H   UNL     1      35.098 -19.068 -25.498  0.00  0.00    -0.089 HD
ENDBRANCH  25  26
ENDBRANCH   5  25
TORSDOF 4
ENDMDL
MODEL 2
REMARK VINA RESULT:      -9.3      3.495      8.117
REMARK  Name = 11696113
REMARK  4 active torsions:
REMARK  status: ('A' for Active; 'I' for Inactive)
REMARK    1  A    between atoms: C_5  and  C_17
REMARK    2  A    between atoms: C_5  and  C_25
REMARK    3  A    between atoms: C_17  and  C_19
REMARK    4  A    between atoms: C_25  and  N_26
REMARK                            x       y       z     vdW  Elec       q    Type
REMARK                         _______ _______ _______ _____ _____    ______ ____
ROOT
ATOM      1  N   UNL     1      34.285 -16.620 -22.497  0.00  0.00    -0.296 N 
ATOM      2  N   UNL     1      33.698 -14.345 -21.995  0.00  0.00    -0.233 NA
ATOM      3  N   UNL     1      32.885 -13.734 -25.904  0.00  0.00    -0.300 N 
ATOM      4  N   UNL     1      32.960 -12.768 -23.697  0.00  0.00    -0.233 NA
ATOM      5  C   UNL     1      35.245 -19.220 -21.549  0.00  0.00    -0.013 C 
ATOM      6  C   UNL     1      33.943 -18.574 -21.032  0.00  0.00    +0.020 C 
ATOM      7  C   UNL     1      35.520 -18.699 -22.974  0.00  0.00    +0.020 C 
ATOM      8  C   UNL     1      33.944 -17.048 -21.135  0.00  0.00    +0.092 C 
ATOM      9  C   UNL     1      35.514 -17.172 -23.072  0.00  0.00    +0.092 C 
ATOM     10  C   UNL     1      33.846 -15.353 -22.903  0.00  0.00    +0.116 C 
ATOM     11  C   UNL     1      33.547 -15.075 -24.248  0.00  0.00    +0.131 C 
ATOM     12  C   UNL     1      33.119 -13.789 -24.556  0.00  0.00    +0.117 C 
ATOM     13  C   UNL     1      33.564 -15.807 -25.463  0.00  0.00    +0.004 C 
ATOM     14  C   UNL     1      33.272 -13.140 -22.439  0.00  0.00    +0.252 C 
ATOM     15  C   UNL     1      33.152 -14.956 -26.467  0.00  0.00    +0.059 C 
ATOM     16  H   UNL     1      32.572 -12.939 -26.395  0.00  0.00    +0.153 HD
ENDROOT
BRANCH   5  17
ATOM     17  C   UNL     1      35.066 -20.749 -21.596  0.00  0.00    +0.024 C 
BRANCH  17  19
ATOM     18 CL   UNL     1      34.588 -23.047 -16.072  0.00  0.00    -0.082 Cl
ATOM     19  C   UNL     1      34.946 -21.323 -20.216  0.00  0.00    -0.022 C 
ATOM     20  C   UNL     1      33.703 -21.730 -19.743  0.00  0.00    -0.003 C 
ATOM     21  C   UNL     1      36.080 -21.444 -19.419  0.00  0.00    -0.003 C 
ATOM     22  C   UNL     1      33.592 -22.262 -18.460  0.00  0.00    +0.011 C 
ATOM     23  C   UNL     1      35.969 -21.977 -18.135  0.00  0.00    +0.011 C 
ATOM     24  C   UNL     1      34.724 -22.387 -17.655  0.00  0.00    +0.058 C 
ENDBRANCH  17  19
ENDBRANCH   5  17
BRANCH   5  25
ATOM     25  C   UNL     1      36.426 -18.907 -20.612  0.00  0.00    -0.086 C 
BRANCH  25  26
ATOM     26  N   UNL     1      37.686 -19.084 -21.309  0.00  0.00    +0.380 N 
ATOM     27  H   UNL     1      38.039 -20.027 -21.139  0.00  0.00    -0.089 HD
ATOM     28  H   UNL     1      38.363 -18.401 -20.968  0.00  0.00    -0.089 HD
ATOM     29  H   UNL     1      37.542 -18.951 -22.310  0.00  0.00    -0.089 HD
ENDBRANCH  25  26
ENDBRANCH   5  25
TORSDOF 4
ENDMDL
MODEL 3
REMARK VINA RESULT:      -9.3      3.884      8.365
REMARK  Name = 11696113
REMARK  4 active torsions:
REMARK  status: ('A' for Active; 'I' for Inactive)
REMARK    1  A    between atoms: C_5  and  C_17
REMARK    2  A    between atoms: C_5  and  C_25
REMARK    3  A    between atoms: C_17  and  C_19
REMARK    4  A    between atoms: C_25  and  N_26
REMARK                            x       y       z     vdW  Elec       q    Type
REMARK                         _______ _______ _______ _____ _____    ______ ____
ROOT
ATOM      1  N   UNL     1      34.947 -22.372 -17.625  0.00  0.00    -0.296 N 
ATOM      2  N   UNL     1      36.731 -21.421 -18.922  0.00  0.00    -0.233 NA
ATOM      3  N   UNL     1      33.998 -19.737 -21.374  0.00  0.00    -0.300 N 
ATOM      4  N   UNL     1      36.340 -20.038 -20.888  0.00  0.00    -0.233 NA
ATOM      5  C   UNL     1      34.115 -24.038 -15.363  0.00  0.00    -0.013 C 
ATOM      6  C   UNL     1      34.956 -22.757 -15.189  0.00  0.00    +0.020 C 
ATOM      7  C   UNL     1      33.280 -23.905 -16.652  0.00  0.00    +0.020 C 
ATOM      8  C   UNL     1      35.790 -22.408 -16.423  0.00  0.00    +0.092 C 
ATOM      9  C   UNL     1      34.118 -23.552 -17.883  0.00  0.00    +0.092 C 
ATOM     10  C   UNL     1      35.396 -21.599 -18.704  0.00  0.00    +0.116 C 
ATOM     11  C   UNL     1      34.497 -20.987 -19.594  0.00  0.00    +0.131 C 
ATOM     12  C   UNL     1      35.035 -20.240 -20.635  0.00  0.00    +0.117 C 
ATOM     13  C   UNL     1      33.086 -20.920 -19.724  0.00  0.00    +0.004 C 
ATOM     14  C   UNL     1      37.112 -20.667 -19.979  0.00  0.00    +0.252 C 
ATOM     15  C   UNL     1      32.807 -20.143 -20.828  0.00  0.00    +0.059 C 
ATOM     16  H   UNL     1      34.092 -19.169 -22.173  0.00  0.00    +0.153 HD
ENDROOT
BRANCH   5  17
ATOM     17  C   UNL     1      33.166 -24.186 -14.159  0.00  0.00    +0.024 C 
BRANCH  17  19
ATOM     18 CL   UNL     1      27.489 -23.024 -15.722  0.00  0.00    -0.082 Cl
ATOM     19  C   UNL     1      31.748 -23.896 -14.549  0.00  0.00    -0.022 C 
ATOM     20  C   UNL     1      31.324 -22.577 -14.678  0.00  0.00    -0.003 C 
ATOM     21  C   UNL     1      30.867 -24.947 -14.779  0.00  0.00    -0.003 C 
ATOM     22  C   UNL     1      30.005 -22.308 -15.040  0.00  0.00    +0.011 C 
ATOM     23  C   UNL     1      29.548 -24.678 -15.141  0.00  0.00    +0.011 C 
ATOM     24  C   UNL     1      29.116 -23.357 -15.272  0.00  0.00    +0.058 C 
ENDBRANCH  17  19
ENDBRANCH   5  17
BRANCH   5  25
ATOM     25  C   UNL     1      35.016 -25.286 -15.417  0.00  0.00    -0.086 C 
BRANCH  25  26
ATOM     26  N   UNL     1      35.764 -25.423 -14.181  0.00  0.00    +0.380 N 
ATOM     27  H   UNL     1      36.673 -25.843 -14.380  0.00  0.00    -0.089 HD
ATOM     28  H   UNL     1      35.247 -26.020 -13.535  0.00  0.00    -0.089 HD
ATOM     29  H   UNL     1      35.899 -24.504 -13.761  0.00  0.00    -0.089 HD
ENDBRANCH  25  26
ENDBRANCH   5  25
TORSDOF 4
ENDMDL
MODEL 4
REMARK VINA RESULT:      -8.8      2.567      4.380
REMARK  Name = 11696113
REMARK  4 active torsions:
REMARK  status: ('A' for Active; 'I' for Inactive)
REMARK    1  A    between atoms: C_5  and  C_17
REMARK    2  A    between atoms: C_5  and  C_25
REMARK    3  A    between atoms: C_17  and  C_19
REMARK    4  A    between atoms: C_25  and  N_26
REMARK                            x       y       z     vdW  Elec       q    Type
REMARK                         _______ _______ _______ _____ _____    ______ ____
ROOT
ATOM      1  N   UNL     1      34.774 -17.820 -21.529  0.00  0.00    -0.296 N 
ATOM      2  N   UNL     1      36.584 -19.201 -20.762  0.00  0.00    -0.233 NA
ATOM      3  N   UNL     1      33.902 -21.951 -19.510  0.00  0.00    -0.300 N 
ATOM      4  N   UNL     1      36.233 -21.364 -19.700  0.00  0.00    -0.233 NA
ATOM      5  C   UNL     1      33.893 -15.315 -22.768  0.00  0.00    -0.013 C 
ATOM      6  C   UNL     1      34.805 -16.327 -23.492  0.00  0.00    +0.020 C 
ATOM      7  C   UNL     1      33.044 -16.075 -21.729  0.00  0.00    +0.020 C 
ATOM      8  C   UNL     1      35.634 -17.185 -22.535  0.00  0.00    +0.092 C 
ATOM      9  C   UNL     1      33.878 -16.936 -20.778  0.00  0.00    +0.092 C 
ATOM     10  C   UNL     1      35.245 -18.993 -20.925  0.00  0.00    +0.116 C 
ATOM     11  C   UNL     1      34.364 -19.989 -20.467  0.00  0.00    +0.131 C 
ATOM     12  C   UNL     1      34.924 -21.118 -19.881  0.00  0.00    +0.117 C 
ATOM     13  C   UNL     1      32.957 -20.164 -20.442  0.00  0.00    +0.004 C 
ATOM     14  C   UNL     1      36.986 -20.350 -20.172  0.00  0.00    +0.252 C 
ATOM     15  C   UNL     1      32.701 -21.381 -19.848  0.00  0.00    +0.059 C 
ATOM     16  H   UNL     1      34.013 -22.825 -19.071  0.00  0.00    +0.153 HD
ENDROOT
BRANCH   5  17
ATOM     17  C   UNL     1      32.959 -14.652 -23.797  0.00  0.00    +0.024 C 
BRANCH  17  19
ATOM     18 CL   UNL     1      32.890  -8.687 -23.134  0.00  0.00    -0.082 Cl
ATOM     19  C   UNL     1      32.942 -13.162 -23.631  0.00  0.00    -0.022 C 
ATOM     20  C   UNL     1      33.748 -12.369 -24.441  0.00  0.00    -0.003 C 
ATOM     21  C   UNL     1      32.121 -12.585 -22.669  0.00  0.00    -0.003 C 
ATOM     22  C   UNL     1      33.732 -10.983 -24.286  0.00  0.00    +0.011 C 
ATOM     23  C   UNL     1      32.104 -11.199 -22.514  0.00  0.00    +0.011 C 
ATOM     24  C   UNL     1      32.911 -10.397 -23.323  0.00  0.00    +0.058 C 
ENDBRANCH  17  19
ENDBRANCH   5  17
BRANCH   5  25
ATOM     25  C   UNL     1      34.725 -14.207 -22.095  0.00  0.00    -0.086 C 
BRANCH  25  26
ATOM     26  N   UNL     1      34.606 -14.293 -20.652  0.00  0.00    +0.380 N 
ATOM     27  H   UNL     1      35.203 -13.587 -20.220  0.00  0.00    -0.089 HD
ATOM     28  H   UNL     1      34.896 -15.220 -20.341  0.00  0.00    -0.089 HD
ATOM     29  H   UNL     1      33.637 -14.131 -20.380  0.00  0.00    -0.089 HD
ENDBRANCH  25  26
ENDBRANCH   5  25
TORSDOF 4
ENDMDL
MODEL 5
REMARK VINA RESULT:      -8.7      7.115      8.753
REMARK  Name = 11696113
REMARK  4 active torsions:
REMARK  status: ('A' for Active; 'I' for Inactive)
REMARK    1  A    between atoms: C_5  and  C_17
REMARK    2  A    between atoms: C_5  and  C_25
REMARK    3  A    between atoms: C_17  and  C_19
REMARK    4  A    between atoms: C_25  and  N_26
REMARK                            x       y       z     vdW  Elec       q    Type
REMARK                         _______ _______ _______ _____ _____    ______ ____
ROOT
ATOM      1  N   UNL     1      34.193 -23.890 -15.049  0.00  0.00    -0.296 N 
ATOM      2  N   UNL     1      36.133 -22.545 -15.492  0.00  0.00    -0.233 NA
ATOM      3  N   UNL     1      38.452 -25.826 -15.074  0.00  0.00    -0.300 N 
ATOM      4  N   UNL     1      38.390 -23.459 -15.526  0.00  0.00    -0.233 NA
ATOM      5  C   UNL     1      31.287 -24.047 -14.704  0.00  0.00    -0.013 C 
ATOM      6  C   UNL     1      31.946 -23.576 -16.017  0.00  0.00    +0.020 C 
ATOM      7  C   UNL     1      32.266 -24.990 -13.975  0.00  0.00    +0.020 C 
ATOM      8  C   UNL     1      33.337 -22.974 -15.813  0.00  0.00    +0.092 C 
ATOM      9  C   UNL     1      33.657 -24.384 -13.778  0.00  0.00    +0.092 C 
ATOM     10  C   UNL     1      35.578 -23.759 -15.206  0.00  0.00    +0.116 C 
ATOM     11  C   UNL     1      36.441 -24.861 -15.072  0.00  0.00    +0.131 C 
ATOM     12  C   UNL     1      37.801 -24.634 -15.244  0.00  0.00    +0.117 C 
ATOM     13  C   UNL     1      36.284 -26.242 -14.791  0.00  0.00    +0.004 C 
ATOM     14  C   UNL     1      37.477 -22.473 -15.632  0.00  0.00    +0.252 C 
ATOM     15  C   UNL     1      37.540 -26.813 -14.798  0.00  0.00    +0.059 C 
ATOM     16  H   UNL     1      39.426 -25.956 -15.140  0.00  0.00    +0.153 HD
ENDROOT
BRANCH   5  17
ATOM     17  C   UNL     1      29.995 -24.818 -15.036  0.00  0.00    +0.024 C 
BRANCH  17  19
ATOM     18 CL   UNL     1      26.014 -21.282 -17.805  0.00  0.00    -0.082 Cl
ATOM     19  C   UNL     1      29.001 -23.935 -15.727  0.00  0.00    -0.022 C 
ATOM     20  C   UNL     1      28.424 -22.874 -15.038  0.00  0.00    -0.003 C 
ATOM     21  C   UNL     1      28.662 -24.184 -17.053  0.00  0.00    -0.003 C 
ATOM     22  C   UNL     1      27.498 -22.053 -15.681  0.00  0.00    +0.011 C 
ATOM     23  C   UNL     1      27.737 -23.363 -17.696  0.00  0.00    +0.011 C 
ATOM     24  C   UNL     1      27.154 -22.296 -17.010  0.00  0.00    +0.058 C 
ENDBRANCH  17  19
ENDBRANCH   5  17
BRANCH   5  25
ATOM     25  C   UNL     1      30.912 -22.848 -13.814  0.00  0.00    -0.086 C 
BRANCH  25  26
ATOM     26  N   UNL     1      30.663 -23.287 -12.454  0.00  0.00    +0.380 N 
ATOM     27  H   UNL     1      30.761 -22.494 -11.818  0.00  0.00    -0.089 HD
ATOM     28  H   UNL     1      31.336 -24.011 -12.201  0.00  0.00    -0.089 HD
ATOM     29  H   UNL     1      29.717 -23.663 -12.385  0.00  0.00    -0.089 HD
ENDBRANCH  25  26
ENDBRANCH   5  25
TORSDOF 4
ENDMDL
MODEL 6
REMARK VINA RESULT:      -8.6      1.569      2.072
REMARK  Name = 11696113
REMARK  4 active torsions:
REMARK  status: ('A' for Active; 'I' for Inactive)
REMARK    1  A    between atoms: C_5  and  C_17
REMARK    2  A    between atoms: C_5  and  C_25
REMARK    3  A    between atoms: C_17  and  C_19
REMARK    4  A    between atoms: C_25  and  N_26
REMARK                            x       y       z     vdW  Elec       q    Type
REMARK                         _______ _______ _______ _____ _____    ______ ____
ROOT
ATOM      1  N   UNL     1      34.636 -20.574 -19.931  0.00  0.00    -0.296 N 
ATOM      2  N   UNL     1      33.127 -22.131 -18.896  0.00  0.00    -0.233 NA
ATOM      3  N   UNL     1      36.035 -23.150 -16.284  0.00  0.00    -0.300 N 
ATOM      4  N   UNL     1      33.761 -23.515 -16.996  0.00  0.00    -0.233 NA
ATOM      5  C   UNL     1      35.125 -18.588 -22.029  0.00  0.00    -0.013 C 
ATOM      6  C   UNL     1      34.029 -18.415 -20.959  0.00  0.00    +0.020 C 
ATOM      7  C   UNL     1      36.241 -19.482 -21.450  0.00  0.00    +0.020 C 
ATOM      8  C   UNL     1      33.518 -19.743 -20.397  0.00  0.00    +0.092 C 
ATOM      9  C   UNL     1      35.724 -20.807 -20.885  0.00  0.00    +0.092 C 
ATOM     10  C   UNL     1      34.357 -21.543 -18.959  0.00  0.00    +0.116 C 
ATOM     11  C   UNL     1      35.325 -21.942 -18.021  0.00  0.00    +0.131 C 
ATOM     12  C   UNL     1      34.957 -22.910 -17.094  0.00  0.00    +0.117 C 
ATOM     13  C   UNL     1      36.672 -21.597 -17.745  0.00  0.00    +0.004 C 
ATOM     14  C   UNL     1      32.910 -23.061 -17.939  0.00  0.00    +0.252 C 
ATOM     15  C   UNL     1      37.084 -22.356 -16.670  0.00  0.00    +0.059 C 
ATOM     16  H   UNL     1      36.053 -23.792 -15.538  0.00  0.00    +0.153 HD
ENDROOT
BRANCH   5  17
ATOM     17  C   UNL     1      35.713 -17.208 -22.378  0.00  0.00    +0.024 C 
BRANCH  17  19
ATOM     18 CL   UNL     1      32.309 -14.362 -26.419  0.00  0.00    -0.082 Cl
ATOM     19  C   UNL     1      34.864 -16.497 -23.387  0.00  0.00    -0.022 C 
ATOM     20  C   UNL     1      34.909 -16.884 -24.723  0.00  0.00    -0.003 C 
ATOM     21  C   UNL     1      34.036 -15.456 -22.981  0.00  0.00    -0.003 C 
ATOM     22  C   UNL     1      34.119 -16.222 -25.661  0.00  0.00    +0.011 C 
ATOM     23  C   UNL     1      33.245 -14.794 -23.919  0.00  0.00    +0.011 C 
ATOM     24  C   UNL     1      33.286 -15.177 -25.261  0.00  0.00    +0.058 C 
ENDBRANCH  17  19
ENDBRANCH   5  17
BRANCH   5  25
ATOM     25  C   UNL     1      34.546 -19.199 -23.319  0.00  0.00    -0.086 C 
BRANCH  25  26
ATOM     26  N   UNL     1      35.577 -19.913 -24.048  0.00  0.00    +0.380 N 
ATOM     27  H   UNL     1      35.164 -20.366 -24.864  0.00  0.00    -0.089 HD
ATOM     28  H   UNL     1      35.994 -20.620 -23.442  0.00  0.00    -0.089 HD
ATOM     29  H   UNL     1      36.296 -19.257 -24.351  0.00  0.00    -0.089 HD
ENDBRANCH  25  26
ENDBRANCH   5  25
TORSDOF 4
ENDMDL
MODEL 7
REMARK VINA RESULT:      -8.2      3.873      6.657
REMARK  Name = 11696113
REMARK  4 active torsions:
REMARK  status: ('A' for Active; 'I' for Inactive)
REMARK    1  A    between atoms: C_5  and  C_17
REMARK    2  A    between atoms: C_5  and  C_25
REMARK    3  A    between atoms: C_17  and  C_19
REMARK    4  A    between atoms: C_25  and  N_26
REMARK                            x       y       z     vdW  Elec       q    Type
REMARK                         _______ _______ _______ _____ _____    ______ ____
ROOT
ATOM      1  N   UNL     1      35.828 -23.564 -14.998  0.00  0.00    -0.296 N 
ATOM      2  N   UNL     1      36.859 -22.784 -12.973  0.00  0.00    -0.233 NA
ATOM      3  N   UNL     1      39.383 -25.937 -13.093  0.00  0.00    -0.300 N 
ATOM      4  N   UNL     1      38.713 -23.949 -11.906  0.00  0.00    -0.233 NA
ATOM      5  C   UNL     1      33.766 -23.207 -17.049  0.00  0.00    -0.013 C 
ATOM      6  C   UNL     1      34.865 -22.158 -16.781  0.00  0.00    +0.020 C 
ATOM      7  C   UNL     1      34.300 -24.593 -16.636  0.00  0.00    +0.020 C 
ATOM      8  C   UNL     1      35.407 -22.202 -15.351  0.00  0.00    +0.092 C 
ATOM      9  C   UNL     1      34.846 -24.631 -15.206  0.00  0.00    +0.092 C 
ATOM     10  C   UNL     1      36.784 -23.699 -13.983  0.00  0.00    +0.116 C 
ATOM     11  C   UNL     1      37.691 -24.773 -13.967  0.00  0.00    +0.131 C 
ATOM     12  C   UNL     1      38.603 -24.825 -12.919  0.00  0.00    +0.117 C 
ATOM     13  C   UNL     1      37.944 -25.899 -14.791  0.00  0.00    +0.004 C 
ATOM     14  C   UNL     1      37.800 -22.963 -12.017  0.00  0.00    +0.252 C 
ATOM     15  C   UNL     1      38.992 -26.598 -14.230  0.00  0.00    +0.059 C 
ATOM     16  H   UNL     1      40.113 -26.218 -12.496  0.00  0.00    +0.153 HD
ENDROOT
BRANCH   5  17
ATOM     17  C   UNL     1      33.437 -23.220 -18.554  0.00  0.00    +0.024 C 
BRANCH  17  19
ATOM     18 CL   UNL     1      36.090 -18.648 -21.396  0.00  0.00    -0.082 Cl
ATOM     19  C   UNL     1      34.100 -22.078 -19.263  0.00  0.00    -0.022 C 
ATOM     20  C   UNL     1      35.485 -22.052 -19.385  0.00  0.00    -0.003 C 
ATOM     21  C   UNL     1      33.324 -21.054 -19.794  0.00  0.00    -0.003 C 
ATOM     22  C   UNL     1      36.102 -20.989 -20.044  0.00  0.00    +0.011 C 
ATOM     23  C   UNL     1      33.941 -19.991 -20.455  0.00  0.00    +0.011 C 
ATOM     24  C   UNL     1      35.330 -19.958 -20.580  0.00  0.00    +0.058 C 
ENDBRANCH  17  19
ENDBRANCH   5  17
BRANCH   5  25
ATOM     25  C   UNL     1      32.476 -22.863 -16.282  0.00  0.00    -0.086 C 
BRANCH  25  26
ATOM     26  N   UNL     1      31.355 -22.766 -17.197  0.00  0.00    +0.380 N 
ATOM     27  H   UNL     1      31.002 -23.701 -17.402  0.00  0.00    -0.089 HD
ATOM     28  H   UNL     1      31.660 -22.320 -18.063  0.00  0.00    -0.089 HD
ATOM     29  H   UNL     1      30.614 -22.210 -16.770  0.00  0.00    -0.089 HD
ENDBRANCH  25  26
ENDBRANCH   5  25
TORSDOF 4
ENDMDL
MODEL 8
REMARK VINA RESULT:      -8.2      3.744      7.894
REMARK  Name = 11696113
REMARK  4 active torsions:
REMARK  status: ('A' for Active; 'I' for Inactive)
REMARK    1  A    between atoms: C_5  and  C_17
REMARK    2  A    between atoms: C_5  and  C_25
REMARK    3  A    between atoms: C_17  and  C_19
REMARK    4  A    between atoms: C_25  and  N_26
REMARK                            x       y       z     vdW  Elec       q    Type
REMARK                         _______ _______ _______ _____ _____    ______ ____
ROOT
ATOM      1  N   UNL     1      33.892 -15.808 -22.437  0.00  0.00    -0.296 N 
ATOM      2  N   UNL     1      33.180 -14.150 -24.023  0.00  0.00    -0.233 NA
ATOM      3  N   UNL     1      31.782 -11.895 -20.976  0.00  0.00    -0.300 N 
ATOM      4  N   UNL     1      32.074 -12.084 -23.362  0.00  0.00    -0.233 NA
ATOM      5  C   UNL     1      35.132 -18.415 -21.934  0.00  0.00    -0.013 C 
ATOM      6  C   UNL     1      35.876 -17.260 -22.634  0.00  0.00    +0.020 C 
ATOM      7  C   UNL     1      34.049 -17.815 -21.015  0.00  0.00    +0.020 C 
ATOM      8  C   UNL     1      34.942 -16.283 -23.348  0.00  0.00    +0.092 C 
ATOM      9  C   UNL     1      33.119 -16.834 -21.733  0.00  0.00    +0.092 C 
ATOM     10  C   UNL     1      33.291 -14.577 -22.732  0.00  0.00    +0.116 C 
ATOM     11  C   UNL     1      32.785 -13.746 -21.717  0.00  0.00    +0.131 C 
ATOM     12  C   UNL     1      32.205 -12.544 -22.106  0.00  0.00    +0.117 C 
ATOM     13  C   UNL     1      32.701 -13.808 -20.303  0.00  0.00    +0.004 C 
ATOM     14  C   UNL     1      32.590 -12.955 -24.253  0.00  0.00    +0.252 C 
ATOM     15  C   UNL     1      32.079 -12.654 -19.873  0.00  0.00    +0.059 C 
ATOM     16  H   UNL     1      31.335 -11.018 -20.958  0.00  0.00    +0.153 HD
ENDROOT
BRANCH   5  17
ATOM     17  C   UNL     1      36.131 -19.217 -21.081  0.00  0.00    +0.024 C 
BRANCH  17  19
ATOM     18 CL   UNL     1      33.330 -23.417 -17.835  0.00  0.00    -0.082 Cl
ATOM     19  C   UNL     1      35.432 -20.266 -20.270  0.00  0.00    -0.022 C 
ATOM     20  C   UNL     1      34.050 -20.399 -20.359  0.00  0.00    -0.003 C 
ATOM     21  C   UNL     1      36.170 -21.098 -19.435  0.00  0.00    -0.003 C 
ATOM     22  C   UNL     1      33.399 -21.374 -19.604  0.00  0.00    +0.011 C 
ATOM     23  C   UNL     1      35.519 -22.074 -18.680  0.00  0.00    +0.011 C 
ATOM     24  C   UNL     1      34.133 -22.212 -18.764  0.00  0.00    +0.058 C 
ENDBRANCH  17  19
ENDBRANCH   5  17
BRANCH   5  25
ATOM     25  C   UNL     1      34.508 -19.374 -22.965  0.00  0.00    -0.086 C 
BRANCH  25  26
ATOM     26  N   UNL     1      35.297 -19.391 -24.182  0.00  0.00    +0.380 N 
ATOM     27  H   UNL     1      35.175 -20.288 -24.654  0.00  0.00    -0.089 HD
ATOM     28  H   UNL     1      36.282 -19.261 -23.950  0.00  0.00    -0.089 HD
ATOM     29  H   UNL     1      34.990 -18.639 -24.798  0.00  0.00    -0.089 HD
ENDBRANCH  25  26
ENDBRANCH   5  25
TORSDOF 4
ENDMDL
MODEL 9
REMARK VINA RESULT:      -8.1      8.584     12.452
REMARK  Name = 11696113
REMARK  4 active torsions:
REMARK  status: ('A' for Active; 'I' for Inactive)
REMARK    1  A    between atoms: C_5  and  C_17
REMARK    2  A    between atoms: C_5  and  C_25
REMARK    3  A    between atoms: C_17  and  C_19
REMARK    4  A    between atoms: C_25  and  N_26
REMARK                            x       y       z     vdW  Elec       q    Type
REMARK                         _______ _______ _______ _____ _____    ______ ____
ROOT
ATOM      1  N   UNL     1      31.980  -9.068 -22.452  0.00  0.00    -0.296 N 
ATOM      2  N   UNL     1      31.583 -11.069 -21.185  0.00  0.00    -0.233 NA
ATOM      3  N   UNL     1      33.461 -13.208 -24.051  0.00  0.00    -0.300 N 
ATOM      4  N   UNL     1      32.313 -13.268 -21.932  0.00  0.00    -0.233 NA
ATOM      5  C   UNL     1      31.649  -6.168 -22.712  0.00  0.00    -0.013 C 
ATOM      6  C   UNL     1      32.404  -6.817 -21.535  0.00  0.00    +0.020 C 
ATOM      7  C   UNL     1      31.735  -7.110 -23.930  0.00  0.00    +0.020 C 
ATOM      8  C   UNL     1      31.944  -8.245 -21.236  0.00  0.00    +0.092 C 
ATOM      9  C   UNL     1      31.278  -8.538 -23.625  0.00  0.00    +0.092 C 
ATOM     10  C   UNL     1      32.096 -10.454 -22.290  0.00  0.00    +0.116 C 
ATOM     11  C   UNL     1      32.737 -11.255 -23.250  0.00  0.00    +0.131 C 
ATOM     12  C   UNL     1      32.803 -12.621 -23.003  0.00  0.00    +0.117 C 
ATOM     13  C   UNL     1      33.383 -11.028 -24.493  0.00  0.00    +0.004 C 
ATOM     14  C   UNL     1      31.720 -12.410 -21.077  0.00  0.00    +0.252 C 
ATOM     15  C   UNL     1      33.819 -12.248 -24.963  0.00  0.00    +0.059 C 
ATOM     16  H   UNL     1      33.649 -14.171 -24.136  0.00  0.00    +0.153 HD
ENDROOT
BRANCH   5  17
ATOM     17  C   UNL     1      32.319  -4.826 -23.063  0.00  0.00    +0.024 C 
BRANCH  17  19
ATOM     18 CL   UNL     1      32.319  -3.890 -28.991  0.00  0.00    -0.082 Cl
ATOM     19  C   UNL     1      32.320  -4.592 -24.544  0.00  0.00    -0.022 C 
ATOM     20  C   UNL     1      33.161  -5.340 -25.360  0.00  0.00    -0.003 C 
ATOM     21  C   UNL     1      31.478  -3.629 -25.090  0.00  0.00    -0.003 C 
ATOM     22  C   UNL     1      33.162  -5.122 -26.737  0.00  0.00    +0.011 C 
ATOM     23  C   UNL     1      31.478  -3.411 -26.467  0.00  0.00    +0.011 C 
ATOM     24  C   UNL     1      32.320  -4.158 -27.292  0.00  0.00    +0.058 C 
ENDBRANCH  17  19
ENDBRANCH   5  17
BRANCH   5  25
ATOM     25  C   UNL     1      30.182  -5.885 -22.339  0.00  0.00    -0.086 C 
BRANCH  25  26
ATOM     26  N   UNL     1      30.056  -4.565 -21.750  0.00  0.00    +0.380 N 
ATOM     27  H   UNL     1      30.804  -4.423 -21.071  0.00  0.00    -0.089 HD
ATOM     28  H   UNL     1      29.152  -4.486 -21.283  0.00  0.00    -0.089 HD
ATOM     29  H   UNL     1      30.124  -3.858 -22.482  0.00  0.00    -0.089 HD
ENDBRANCH  25  26
ENDBRANCH   5  25
TORSDOF 4
ENDMDL
