MODEL 1
REMARK VINA RESULT:      -8.0      0.000      0.000
REMARK  Name = 3331
REMARK  7 active torsions:
REMARK  status: ('A' for Active; 'I' for Inactive)
REMARK    1  A    between atoms: C_1  and  C_2
REMARK    2  A    between atoms: C_1  and  C_8
REMARK    3  A    between atoms: C_1  and  C_15
REMARK    4  A    between atoms: C_8  and  O_9
REMARK    5  A    between atoms: O_9  and  C_12
REMARK    6  A    between atoms: C_15  and  O_16
REMARK    7  A    between atoms: O_16  and  C_19
REMARK                            x       y       z     vdW  Elec       q    Type
REMARK                         _______ _______ _______ _____ _____    ______ ____
ROOT
ATOM      1  C   UNL     1      35.395 -19.038 -21.657  0.00  0.00    +0.110 C 
ENDROOT
BRANCH   1   2
ATOM      2  C   UNL     1      34.942 -20.124 -20.689  0.00  0.00    -0.015 C 
ATOM      3  C   UNL     1      33.592 -20.286 -20.457  0.00  0.00    -0.004 C 
ATOM      4  C   UNL     1      35.895 -20.909 -20.075  0.00  0.00    -0.004 C 
ATOM      5  C   UNL     1      33.177 -21.280 -19.569  0.00  0.00    -0.000 C 
ATOM      6  C   UNL     1      35.480 -21.902 -19.188  0.00  0.00    -0.000 C 
ATOM      7  C   UNL     1      34.120 -22.088 -18.936  0.00  0.00    -0.000 C 
ENDBRANCH   1   2
BRANCH   1   8
ATOM      8  C   UNL     1      34.571 -19.050 -22.954  0.00  0.00    +0.218 C 
BRANCH   8   9
ATOM      9  O   UNL     1      35.342 -18.553 -24.043  0.00  0.00    -0.434 OA
BRANCH   9  12
ATOM     10  O   UNL     1      33.975 -17.609 -25.638  0.00  0.00    -0.227 OA
ATOM     11  N   UNL     1      35.298 -16.310 -24.278  0.00  0.00    -0.295 N 
ATOM     12  C   UNL     1      34.797 -17.505 -24.734  0.00  0.00    +0.398 C 
ATOM     13  H   UNL     1      35.957 -16.300 -23.547  0.00  0.00    +0.148 HD
ATOM     14  H   UNL     1      34.997 -15.464 -24.681  0.00  0.00    +0.148 HD
ENDBRANCH   9  12
ENDBRANCH   8   9
ENDBRANCH   1   8
BRANCH   1  15
ATOM     15  C   UNL     1      35.345 -17.650 -21.001  0.00  0.00    +0.218 C 
BRANCH  15  16
ATOM     16  O   UNL     1      34.142 -16.988 -21.373  0.00  0.00    -0.434 OA
BRANCH  16  19
ATOM     17  O   UNL     1      34.841 -15.089 -20.276  0.00  0.00    -0.227 OA
ATOM     18  N   UNL     1      32.817 -15.163 -21.364  0.00  0.00    -0.295 N 
ATOM     19  C   UNL     1      34.011 -15.696 -20.944  0.00  0.00    +0.398 C 
ATOM     20  H   UNL     1      32.196 -15.708 -21.899  0.00  0.00    +0.148 HD
ATOM     21  H   UNL     1      32.582 -14.236 -21.131  0.00  0.00    +0.148 HD
ENDBRANCH  16  19
ENDBRANCH  15  16
ENDBRANCH   1  15
TORSDOF 7
ENDMDL
MODEL 2
REMARK VINA RESULT:      -7.9      0.994      3.123
REMARK  Name = 3331
REMARK  7 active torsions:
REMARK  status: ('A' for Active; 'I' for Inactive)
REMARK    1  A    between atoms: C_1  and  C_2
REMARK    2  A    between atoms: C_1  and  C_8
REMARK    3  A    between atoms: C_1  and  C_15
REMARK    4  A    between atoms: C_8  and  O_9
REMARK    5  A    between atoms: O_9  and  C_12
REMARK    6  A    between atoms: C_15  and  O_16
REMARK    7  A    between atoms: O_16  and  C_19
REMARK                            x       y       z     vdW  Elec       q    Type
REMARK                         _______ _______ _______ _____ _____    ______ ____
ROOT
ATOM      1  C   UNL     1      34.590 -18.274 -21.785  0.00  0.00    +0.110 C 
ENDROOT
BRANCH   1   2
ATOM      2  C   UNL     1      34.519 -19.537 -20.935  0.00  0.00    -0.015 C 
ATOM      3  C   UNL     1      33.283 -20.002 -20.537  0.00  0.00    -0.004 C 
ATOM      4  C   UNL     1      35.692 -20.173 -20.589  0.00  0.00    -0.004 C 
ATOM      5  C   UNL     1      33.219 -21.158 -19.758  0.00  0.00    -0.000 C 
ATOM      6  C   UNL     1      35.628 -21.328 -19.811  0.00  0.00    -0.000 C 
ATOM      7  C   UNL     1      34.390 -21.821 -19.395  0.00  0.00    -0.000 C 
ENDBRANCH   1   2
BRANCH   1   8
ATOM      8  C   UNL     1      34.968 -17.043 -20.948  0.00  0.00    +0.218 C 
BRANCH   8   9
ATOM      9  O   UNL     1      34.858 -15.854 -21.725  0.00  0.00    -0.434 OA
BRANCH   9  12
ATOM     10  O   UNL     1      33.069 -15.052 -22.932  0.00  0.00    -0.227 OA
ATOM     11  N   UNL     1      32.995 -15.196 -20.638  0.00  0.00    -0.295 N 
ATOM     12  C   UNL     1      33.597 -15.343 -21.864  0.00  0.00    +0.398 C 
ATOM     13  H   UNL     1      33.478 -15.451 -19.819  0.00  0.00    +0.148 HD
ATOM     14  H   UNL     1      32.080 -14.838 -20.579  0.00  0.00    +0.148 HD
ENDBRANCH   9  12
ENDBRANCH   8   9
ENDBRANCH   1   8
BRANCH   1  15
ATOM     15  C   UNL     1      35.565 -18.447 -22.959  0.00  0.00    +0.218 C 
BRANCH  15  16
ATOM     16  O   UNL     1      34.834 -18.690 -24.156  0.00  0.00    -0.434 OA
BRANCH  16  19
ATOM     17  O   UNL     1      33.672 -17.536 -25.774  0.00  0.00    -0.227 OA
ATOM     18  N   UNL     1      35.383 -16.548 -24.598  0.00  0.00    -0.295 N 
ATOM     19  C   UNL     1      34.549 -17.591 -24.919  0.00  0.00    +0.398 C 
ATOM     20  H   UNL     1      36.068 -16.662 -23.900  0.00  0.00    +0.148 HD
ATOM     21  H   UNL     1      35.296 -15.686 -25.067  0.00  0.00    +0.148 HD
ENDBRANCH  16  19
ENDBRANCH  15  16
ENDBRANCH   1  15
TORSDOF 7
ENDMDL
MODEL 3
REMARK VINA RESULT:      -7.7      9.020     10.985
REMARK  Name = 3331
REMARK  7 active torsions:
REMARK  status: ('A' for Active; 'I' for Inactive)
REMARK    1  A    between atoms: C_1  and  C_2
REMARK    2  A    between atoms: C_1  and  C_8
REMARK    3  A    between atoms: C_1  and  C_15
REMARK    4  A    between atoms: C_8  and  O_9
REMARK    5  A    between atoms: O_9  and  C_12
REMARK    6  A    between atoms: C_15  and  O_16
REMARK    7  A    between atoms: O_16  and  C_19
REMARK                            x       y       z     vdW  Elec       q    Type
REMARK                         _______ _______ _______ _____ _____    ______ ____
ROOT
ATOM      1  C   UNL     1      35.153 -23.618 -14.239  0.00  0.00    +0.110 C 
ENDROOT
BRANCH   1   2
ATOM      2  C   UNL     1      33.947 -23.412 -15.148  0.00  0.00    -0.015 C 
ATOM      3  C   UNL     1      32.693 -23.327 -14.579  0.00  0.00    -0.004 C 
ATOM      4  C   UNL     1      34.147 -23.319 -16.509  0.00  0.00    -0.004 C 
ATOM      5  C   UNL     1      31.589 -23.139 -15.411  0.00  0.00    -0.000 C 
ATOM      6  C   UNL     1      33.043 -23.131 -17.340  0.00  0.00    -0.000 C 
ATOM      7  C   UNL     1      31.764 -23.041 -16.791  0.00  0.00    -0.000 C 
ENDBRANCH   1   2
BRANCH   1   8
ATOM      8  C   UNL     1      34.792 -24.432 -12.987  0.00  0.00    +0.218 C 
BRANCH   8   9
ATOM      9  O   UNL     1      34.935 -23.638 -11.814  0.00  0.00    -0.434 OA
BRANCH   9  12
ATOM     10  O   UNL     1      35.427 -24.629  -9.794  0.00  0.00    -0.227 OA
ATOM     11  N   UNL     1      37.090 -23.987 -11.247  0.00  0.00    -0.295 N 
ATOM     12  C   UNL     1      35.780 -24.129 -10.857  0.00  0.00    +0.398 C 
ATOM     13  H   UNL     1      37.302 -23.575 -12.116  0.00  0.00    +0.148 HD
ATOM     14  H   UNL     1      37.815 -24.297 -10.659  0.00  0.00    +0.148 HD
ENDBRANCH   9  12
ENDBRANCH   8   9
ENDBRANCH   1   8
BRANCH   1  15
ATOM     15  C   UNL     1      36.314 -24.282 -14.996  0.00  0.00    +0.218 C 
BRANCH  15  16
ATOM     16  O   UNL     1      36.968 -25.214 -14.143  0.00  0.00    -0.434 OA
BRANCH  16  19
ATOM     17  O   UNL     1      38.372 -26.967 -14.653  0.00  0.00    -0.227 OA
ATOM     18  N   UNL     1      36.172 -26.962 -15.325  0.00  0.00    -0.295 N 
ATOM     19  C   UNL     1      37.272 -26.426 -14.701  0.00  0.00    +0.398 C 
ATOM     20  H   UNL     1      35.319 -26.472 -15.325  0.00  0.00    +0.148 HD
ATOM     21  H   UNL     1      36.239 -27.836 -15.774  0.00  0.00    +0.148 HD
ENDBRANCH  16  19
ENDBRANCH  15  16
ENDBRANCH   1  15
TORSDOF 7
ENDMDL
MODEL 4
REMARK VINA RESULT:      -7.6      9.100     10.604
REMARK  Name = 3331
REMARK  7 active torsions:
REMARK  status: ('A' for Active; 'I' for Inactive)
REMARK    1  A    between atoms: C_1  and  C_2
REMARK    2  A    between atoms: C_1  and  C_8
REMARK    3  A    between atoms: C_1  and  C_15
REMARK    4  A    between atoms: C_8  and  O_9
REMARK    5  A    between atoms: O_9  and  C_12
REMARK    6  A    between atoms: C_15  and  O_16
REMARK    7  A    between atoms: O_16  and  C_19
REMARK                            x       y       z     vdW  Elec       q    Type
REMARK                         _______ _______ _______ _____ _____    ______ ____
ROOT
ATOM      1  C   UNL     1      34.886 -24.423 -14.426  0.00  0.00    +0.110 C 
ENDROOT
BRANCH   1   2
ATOM      2  C   UNL     1      33.670 -23.876 -15.163  0.00  0.00    -0.015 C 
ATOM      3  C   UNL     1      32.491 -23.709 -14.467  0.00  0.00    -0.004 C 
ATOM      4  C   UNL     1      33.786 -23.566 -16.501  0.00  0.00    -0.004 C 
ATOM      5  C   UNL     1      31.377 -23.209 -15.143  0.00  0.00    -0.000 C 
ATOM      6  C   UNL     1      32.673 -23.066 -17.176  0.00  0.00    -0.000 C 
ATOM      7  C   UNL     1      31.468 -22.887 -16.496  0.00  0.00    -0.000 C 
ENDBRANCH   1   2
BRANCH   1   8
ATOM      8  C   UNL     1      36.173 -24.263 -15.249  0.00  0.00    +0.218 C 
BRANCH   8   9
ATOM      9  O   UNL     1      37.198 -25.115 -14.750  0.00  0.00    -0.434 OA
BRANCH   9  12
ATOM     10  O   UNL     1      36.733 -27.065 -15.884  0.00  0.00    -0.227 OA
ATOM     11  N   UNL     1      37.002 -27.045 -13.600  0.00  0.00    -0.295 N 
ATOM     12  C   UNL     1      36.958 -26.459 -14.841  0.00  0.00    +0.398 C 
ATOM     13  H   UNL     1      37.188 -26.497 -12.804  0.00  0.00    +0.148 HD
ATOM     14  H   UNL     1      36.848 -28.013 -13.507  0.00  0.00    +0.148 HD
ENDBRANCH   9  12
ENDBRANCH   8   9
ENDBRANCH   1   8
BRANCH   1  15
ATOM     15  C   UNL     1      35.044 -23.765 -13.047  0.00  0.00    +0.218 C 
BRANCH  15  16
ATOM     16  O   UNL     1      35.084 -24.770 -12.040  0.00  0.00    -0.434 OA
BRANCH  16  19
ATOM     17  O   UNL     1      35.330 -24.678  -9.752  0.00  0.00    -0.227 OA
ATOM     18  N   UNL     1      36.916 -23.791 -11.162  0.00  0.00    -0.295 N 
ATOM     19  C   UNL     1      35.736 -24.436 -10.884  0.00  0.00    +0.398 C 
ATOM     20  H   UNL     1      37.181 -23.629 -12.096  0.00  0.00    +0.148 HD
ATOM     21  H   UNL     1      37.497 -23.489 -10.426  0.00  0.00    +0.148 HD
ENDBRANCH  16  19
ENDBRANCH  15  16
ENDBRANCH   1  15
TORSDOF 7
ENDMDL
MODEL 5
REMARK VINA RESULT:      -7.5      8.593     10.708
REMARK  Name = 3331
REMARK  7 active torsions:
REMARK  status: ('A' for Active; 'I' for Inactive)
REMARK    1  A    between atoms: C_1  and  C_2
REMARK    2  A    between atoms: C_1  and  C_8
REMARK    3  A    between atoms: C_1  and  C_15
REMARK    4  A    between atoms: C_8  and  O_9
REMARK    5  A    between atoms: O_9  and  C_12
REMARK    6  A    between atoms: C_15  and  O_16
REMARK    7  A    between atoms: O_16  and  C_19
REMARK                            x       y       z     vdW  Elec       q    Type
REMARK                         _______ _______ _______ _____ _____    ______ ____
ROOT
ATOM      1  C   UNL     1      36.916 -23.247 -14.812  0.00  0.00    +0.110 C 
ENDROOT
BRANCH   1   2
ATOM      2  C   UNL     1      36.179 -22.861 -16.089  0.00  0.00    -0.015 C 
ATOM      3  C   UNL     1      36.849 -22.128 -17.046  0.00  0.00    -0.004 C 
ATOM      4  C   UNL     1      34.868 -23.256 -16.247  0.00  0.00    -0.004 C 
ATOM      5  C   UNL     1      36.174 -21.773 -18.215  0.00  0.00    -0.000 C 
ATOM      6  C   UNL     1      34.194 -22.901 -17.415  0.00  0.00    -0.000 C 
ATOM      7  C   UNL     1      34.848 -22.160 -18.400  0.00  0.00    -0.000 C 
ENDBRANCH   1   2
BRANCH   1   8
ATOM      8  C   UNL     1      35.960 -23.367 -13.616  0.00  0.00    +0.218 C 
BRANCH   8   9
ATOM      9  O   UNL     1      36.208 -24.568 -12.892  0.00  0.00    -0.434 OA
BRANCH   9  12
ATOM     10  O   UNL     1      35.359 -25.124 -10.825  0.00  0.00    -0.227 OA
ATOM     11  N   UNL     1      37.020 -23.550 -11.051  0.00  0.00    -0.295 N 
ATOM     12  C   UNL     1      36.125 -24.475 -11.529  0.00  0.00    +0.398 C 
ATOM     13  H   UNL     1      37.606 -23.064 -11.674  0.00  0.00    +0.148 HD
ATOM     14  H   UNL     1      37.076 -23.374 -10.084  0.00  0.00    +0.148 HD
ENDBRANCH   9  12
ENDBRANCH   8   9
ENDBRANCH   1   8
BRANCH   1  15
ATOM     15  C   UNL     1      37.710 -24.549 -14.999  0.00  0.00    +0.218 C 
BRANCH  15  16
ATOM     16  O   UNL     1      39.093 -24.302 -14.771  0.00  0.00    -0.434 OA
BRANCH  16  19
ATOM     17  O   UNL     1      40.946 -25.657 -14.602  0.00  0.00    -0.227 OA
ATOM     18  N   UNL     1      39.089 -26.002 -13.289  0.00  0.00    -0.295 N 
ATOM     19  C   UNL     1      39.812 -25.346 -14.255  0.00  0.00    +0.398 C 
ATOM     20  H   UNL     1      38.182 -25.697 -13.060  0.00  0.00    +0.148 HD
ATOM     21  H   UNL     1      39.480 -26.779 -12.826  0.00  0.00    +0.148 HD
ENDBRANCH  16  19
ENDBRANCH  15  16
ENDBRANCH   1  15
TORSDOF 7
ENDMDL
MODEL 6
REMARK VINA RESULT:      -7.4      6.743      8.474
REMARK  Name = 3331
REMARK  7 active torsions:
REMARK  status: ('A' for Active; 'I' for Inactive)
REMARK    1  A    between atoms: C_1  and  C_2
REMARK    2  A    between atoms: C_1  and  C_8
REMARK    3  A    between atoms: C_1  and  C_15
REMARK    4  A    between atoms: C_8  and  O_9
REMARK    5  A    between atoms: O_9  and  C_12
REMARK    6  A    between atoms: C_15  and  O_16
REMARK    7  A    between atoms: O_16  and  C_19
REMARK                            x       y       z     vdW  Elec       q    Type
REMARK                         _______ _______ _______ _____ _____    ______ ____
ROOT
ATOM      1  C   UNL     1      33.935 -23.201 -17.429  0.00  0.00    +0.110 C 
ENDROOT
BRANCH   1   2
ATOM      2  C   UNL     1      34.261 -22.191 -18.522  0.00  0.00    -0.015 C 
ATOM      3  C   UNL     1      35.584 -21.916 -18.800  0.00  0.00    -0.004 C 
ATOM      4  C   UNL     1      33.225 -21.584 -19.199  0.00  0.00    -0.004 C 
ATOM      5  C   UNL     1      35.883 -20.991 -19.801  0.00  0.00    -0.000 C 
ATOM      6  C   UNL     1      33.523 -20.660 -20.199  0.00  0.00    -0.000 C 
ATOM      7  C   UNL     1      34.853 -20.364 -20.501  0.00  0.00    -0.000 C 
ENDBRANCH   1   2
BRANCH   1   8
ATOM      8  C   UNL     1      34.875 -23.059 -16.222  0.00  0.00    +0.218 C 
BRANCH   8   9
ATOM      9  O   UNL     1      35.669 -24.230 -16.062  0.00  0.00    -0.434 OA
BRANCH   9  12
ATOM     10  O   UNL     1      34.935 -24.540 -13.902  0.00  0.00    -0.227 OA
ATOM     11  N   UNL     1      35.793 -26.282 -15.135  0.00  0.00    -0.295 N 
ATOM     12  C   UNL     1      35.421 -24.974 -14.941  0.00  0.00    +0.398 C 
ATOM     13  H   UNL     1      36.178 -26.562 -15.996  0.00  0.00    +0.148 HD
ATOM     14  H   UNL     1      35.674 -26.940 -14.412  0.00  0.00    +0.148 HD
ENDBRANCH   9  12
ENDBRANCH   8   9
ENDBRANCH   1   8
BRANCH   1  15
ATOM     15  C   UNL     1      32.469 -23.087 -16.985  0.00  0.00    +0.218 C 
BRANCH  15  16
ATOM     16  O   UNL     1      32.297 -23.741 -15.732  0.00  0.00    -0.434 OA
BRANCH  16  19
ATOM     17  O   UNL     1      30.481 -22.574 -14.933  0.00  0.00    -0.227 OA
ATOM     18  N   UNL     1      32.336 -22.939 -13.625  0.00  0.00    -0.295 N 
ATOM     19  C   UNL     1      31.603 -23.043 -14.782  0.00  0.00    +0.398 C 
ATOM     20  H   UNL     1      33.233 -23.341 -13.572  0.00  0.00    +0.148 HD
ATOM     21  H   UNL     1      31.964 -22.461 -12.848  0.00  0.00    +0.148 HD
ENDBRANCH  16  19
ENDBRANCH  15  16
ENDBRANCH   1  15
TORSDOF 7
ENDMDL
MODEL 7
REMARK VINA RESULT:      -7.4      1.371      1.539
REMARK  Name = 3331
REMARK  7 active torsions:
REMARK  status: ('A' for Active; 'I' for Inactive)
REMARK    1  A    between atoms: C_1  and  C_2
REMARK    2  A    between atoms: C_1  and  C_8
REMARK    3  A    between atoms: C_1  and  C_15
REMARK    4  A    between atoms: C_8  and  O_9
REMARK    5  A    between atoms: O_9  and  C_12
REMARK    6  A    between atoms: C_15  and  O_16
REMARK    7  A    between atoms: O_16  and  C_19
REMARK                            x       y       z     vdW  Elec       q    Type
REMARK                         _______ _______ _______ _____ _____    ______ ____
ROOT
ATOM      1  C   UNL     1      35.137 -17.666 -21.682  0.00  0.00    +0.110 C 
ENDROOT
BRANCH   1   2
ATOM      2  C   UNL     1      34.850 -19.004 -21.012  0.00  0.00    -0.015 C 
ATOM      3  C   UNL     1      33.538 -19.389 -20.831  0.00  0.00    -0.004 C 
ATOM      4  C   UNL     1      35.910 -19.788 -20.607  0.00  0.00    -0.004 C 
ATOM      5  C   UNL     1      33.274 -20.614 -20.216  0.00  0.00    -0.000 C 
ATOM      6  C   UNL     1      35.647 -21.012 -19.994  0.00  0.00    -0.000 C 
ATOM      7  C   UNL     1      34.328 -21.425 -19.799  0.00  0.00    -0.000 C 
ENDBRANCH   1   2
BRANCH   1   8
ATOM      8  C   UNL     1      35.254 -17.805 -23.207  0.00  0.00    +0.218 C 
BRANCH   8   9
ATOM      9  O   UNL     1      34.104 -17.265 -23.850  0.00  0.00    -0.434 OA
BRANCH   9  12
ATOM     10  O   UNL     1      34.972 -17.306 -25.983  0.00  0.00    -0.227 OA
ATOM     11  N   UNL     1      33.638 -15.575 -25.269  0.00  0.00    -0.295 N 
ATOM     12  C   UNL     1      34.300 -16.768 -25.110  0.00  0.00    +0.398 C 
ATOM     13  H   UNL     1      33.115 -15.199 -24.524  0.00  0.00    +0.148 HD
ATOM     14  H   UNL     1      33.685 -15.096 -26.127  0.00  0.00    +0.148 HD
ENDBRANCH   9  12
ENDBRANCH   8   9
ENDBRANCH   1   8
BRANCH   1  15
ATOM     15  C   UNL     1      34.074 -16.620 -21.316  0.00  0.00    +0.218 C 
BRANCH  15  16
ATOM     16  O   UNL     1      34.671 -15.329 -21.266  0.00  0.00    -0.434 OA
BRANCH  16  19
ATOM     17  O   UNL     1      34.261 -13.806 -22.943  0.00  0.00    -0.227 OA
ATOM     18  N   UNL     1      32.887 -13.959 -21.105  0.00  0.00    -0.295 N 
ATOM     19  C   UNL     1      33.970 -14.320 -21.868  0.00  0.00    +0.398 C 
ATOM     20  H   UNL     1      32.712 -14.415 -20.251  0.00  0.00    +0.148 HD
ATOM     21  H   UNL     1      32.285 -13.242 -21.413  0.00  0.00    +0.148 HD
ENDBRANCH  16  19
ENDBRANCH  15  16
ENDBRANCH   1  15
TORSDOF 7
ENDMDL
MODEL 8
REMARK VINA RESULT:      -7.4      2.742      3.983
REMARK  Name = 3331
REMARK  7 active torsions:
REMARK  status: ('A' for Active; 'I' for Inactive)
REMARK    1  A    between atoms: C_1  and  C_2
REMARK    2  A    between atoms: C_1  and  C_8
REMARK    3  A    between atoms: C_1  and  C_15
REMARK    4  A    between atoms: C_8  and  O_9
REMARK    5  A    between atoms: O_9  and  C_12
REMARK    6  A    between atoms: C_15  and  O_16
REMARK    7  A    between atoms: O_16  and  C_19
REMARK                            x       y       z     vdW  Elec       q    Type
REMARK                         _______ _______ _______ _____ _____    ______ ____
ROOT
ATOM      1  C   UNL     1      34.653 -15.735 -24.106  0.00  0.00    +0.110 C 
ENDROOT
BRANCH   1   2
ATOM      2  C   UNL     1      34.819 -16.998 -23.269  0.00  0.00    -0.015 C 
ATOM      3  C   UNL     1      34.837 -18.220 -23.908  0.00  0.00    -0.004 C 
ATOM      4  C   UNL     1      34.946 -16.878 -21.902  0.00  0.00    -0.004 C 
ATOM      5  C   UNL     1      34.988 -19.377 -23.141  0.00  0.00    -0.000 C 
ATOM      6  C   UNL     1      35.097 -18.034 -21.136  0.00  0.00    -0.000 C 
ATOM      7  C   UNL     1      35.119 -19.284 -21.756  0.00  0.00    -0.000 C 
ENDBRANCH   1   2
BRANCH   1   8
ATOM      8  C   UNL     1      33.551 -15.892 -25.164  0.00  0.00    +0.218 C 
BRANCH   8   9
ATOM      9  O   UNL     1      34.001 -15.424 -26.432  0.00  0.00    -0.434 OA
BRANCH   9  12
ATOM     10  O   UNL     1      33.848 -13.546 -27.755  0.00  0.00    -0.227 OA
ATOM     11  N   UNL     1      32.155 -14.133 -26.314  0.00  0.00    -0.295 N 
ATOM     12  C   UNL     1      33.381 -14.302 -26.911  0.00  0.00    +0.398 C 
ATOM     13  H   UNL     1      31.842 -14.780 -25.642  0.00  0.00    +0.148 HD
ATOM     14  H   UNL     1      31.590 -13.365 -26.559  0.00  0.00    +0.148 HD
ENDBRANCH   9  12
ENDBRANCH   8   9
ENDBRANCH   1   8
BRANCH   1  15
ATOM     15  C   UNL     1      34.377 -14.511 -23.219  0.00  0.00    +0.218 C 
BRANCH  15  16
ATOM     16  O   UNL     1      33.004 -14.150 -23.318  0.00  0.00    -0.434 OA
BRANCH  16  19
ATOM     17  O   UNL     1      32.518 -14.309 -21.073  0.00  0.00    -0.227 OA
ATOM     18  N   UNL     1      31.656 -12.613 -22.365  0.00  0.00    -0.295 N 
ATOM     19  C   UNL     1      32.405 -13.745 -22.156  0.00  0.00    +0.398 C 
ATOM     20  H   UNL     1      31.610 -12.212 -23.262  0.00  0.00    +0.148 HD
ATOM     21  H   UNL     1      31.165 -12.203 -21.616  0.00  0.00    +0.148 HD
ENDBRANCH  16  19
ENDBRANCH  15  16
ENDBRANCH   1  15
TORSDOF 7
ENDMDL
MODEL 9
REMARK VINA RESULT:      -7.2      3.465      6.692
REMARK  Name = 3331
REMARK  7 active torsions:
REMARK  status: ('A' for Active; 'I' for Inactive)
REMARK    1  A    between atoms: C_1  and  C_2
REMARK    2  A    between atoms: C_1  and  C_8
REMARK    3  A    between atoms: C_1  and  C_15
REMARK    4  A    between atoms: C_8  and  O_9
REMARK    5  A    between atoms: O_9  and  C_12
REMARK    6  A    between atoms: C_15  and  O_16
REMARK    7  A    between atoms: O_16  and  C_19
REMARK                            x       y       z     vdW  Elec       q    Type
REMARK                         _______ _______ _______ _____ _____    ______ ____
ROOT
ATOM      1  C   UNL     1      32.634 -14.036 -22.450  0.00  0.00    +0.110 C 
ENDROOT
BRANCH   1   2
ATOM      2  C   UNL     1      32.168 -12.772 -21.740  0.00  0.00    -0.015 C 
ATOM      3  C   UNL     1      32.055 -12.785 -20.366  0.00  0.00    -0.004 C 
ATOM      4  C   UNL     1      31.872 -11.655 -22.494  0.00  0.00    -0.004 C 
ATOM      5  C   UNL     1      31.626 -11.627 -19.715  0.00  0.00    -0.000 C 
ATOM      6  C   UNL     1      31.444 -10.498 -21.844  0.00  0.00    -0.000 C 
ATOM      7  C   UNL     1      31.321 -10.484 -20.454  0.00  0.00    -0.000 C 
ENDBRANCH   1   2
BRANCH   1   8
ATOM      8  C   UNL     1      32.831 -13.806 -23.956  0.00  0.00    +0.218 C 
BRANCH   8   9
ATOM      9  O   UNL     1      33.841 -14.669 -24.469  0.00  0.00    -0.434 OA
BRANCH   9  12
ATOM     10  O   UNL     1      34.081 -16.371 -26.001  0.00  0.00    -0.227 OA
ATOM     11  N   UNL     1      32.489 -14.734 -26.273  0.00  0.00    -0.295 N 
ATOM     12  C   UNL     1      33.524 -15.350 -25.612  0.00  0.00    +0.398 C 
ATOM     13  H   UNL     1      32.087 -13.915 -25.903  0.00  0.00    +0.148 HD
ATOM     14  H   UNL     1      32.148 -15.112 -27.116  0.00  0.00    +0.148 HD
ENDBRANCH   9  12
ENDBRANCH   8   9
ENDBRANCH   1   8
BRANCH   1  15
ATOM     15  C   UNL     1      33.921 -14.588 -21.818  0.00  0.00    +0.218 C 
BRANCH  15  16
ATOM     16  O   UNL     1      33.765 -15.977 -21.552  0.00  0.00    -0.434 OA
BRANCH  16  19
ATOM     17  O   UNL     1      35.380 -17.418 -20.767  0.00  0.00    -0.227 OA
ATOM     18  N   UNL     1      35.417 -16.648 -22.934  0.00  0.00    -0.295 N 
ATOM     19  C   UNL     1      34.895 -16.740 -21.667  0.00  0.00    +0.398 C 
ATOM     20  H   UNL     1      34.975 -16.084 -23.608  0.00  0.00    +0.148 HD
ATOM     21  H   UNL     1      36.234 -17.145 -23.167  0.00  0.00    +0.148 HD
ENDBRANCH  16  19
ENDBRANCH  15  16
ENDBRANCH   1  15
TORSDOF 7
ENDMDL
