MODEL 1
REMARK VINA RESULT:      -7.6      0.000      0.000
REMARK  Name = 17036
REMARK  9 active torsions:
REMARK  status: ('A' for Active; 'I' for Inactive)
REMARK    1  A    between atoms: C_1  and  C_2
REMARK    2  A    between atoms: C_1  and  C_8
REMARK    3  A    between atoms: C_1  and  C_15
REMARK    4  A    between atoms: C_1  and  O_23
REMARK    5  A    between atoms: C_15  and  O_16
REMARK    6  A    between atoms: O_16  and  C_17
REMARK    7  A    between atoms: C_17  and  C_18
REMARK    8  A    between atoms: C_18  and  N_19
REMARK    9  A    between atoms: O_23  and  C_24
REMARK                            x       y       z     vdW  Elec       q    Type
REMARK                         _______ _______ _______ _____ _____    ______ ____
ROOT
ATOM      1  C   UNL     1      34.805 -23.990 -14.760  0.00  0.00    +0.219 C 
ENDROOT
BRANCH   1   2
ATOM      2  C   UNL     1      35.543 -23.829 -13.429  0.00  0.00    +0.016 C 
ATOM      3  C   UNL     1      36.717 -23.111 -13.410  0.00  0.00    -0.001 C 
ATOM      4  C   UNL     1      35.006 -24.409 -12.303  0.00  0.00    -0.001 C 
ATOM      5  C   UNL     1      37.390 -22.964 -12.198  0.00  0.00    -0.000 C 
ATOM      6  C   UNL     1      35.679 -24.261 -11.090  0.00  0.00    -0.000 C 
ATOM      7  C   UNL     1      36.871 -23.540 -11.037  0.00  0.00    -0.000 C 
ENDBRANCH   1   2
BRANCH   1   8
ATOM      8  C   UNL     1      33.289 -23.964 -14.550  0.00  0.00    +0.016 C 
ATOM      9  C   UNL     1      32.603 -22.807 -14.840  0.00  0.00    -0.001 C 
ATOM     10  C   UNL     1      32.670 -25.099 -14.079  0.00  0.00    -0.001 C 
ATOM     11  C   UNL     1      31.222 -22.784 -14.648  0.00  0.00    -0.000 C 
ATOM     12  C   UNL     1      31.289 -25.076 -13.888  0.00  0.00    -0.000 C 
ATOM     13  C   UNL     1      30.564 -23.919 -14.172  0.00  0.00    -0.000 C 
ENDBRANCH   1   8
BRANCH   1  15
ATOM     14  O   UNL     1      36.054 -22.074 -15.630  0.00  0.00    -0.247 OA
ATOM     15  C   UNL     1      35.302 -23.019 -15.834  0.00  0.00    +0.350 C 
BRANCH  15  16
ATOM     16  O   UNL     1      34.820 -23.373 -17.071  0.00  0.00    -0.449 OA
BRANCH  16  17
ATOM     17  C   UNL     1      35.020 -22.426 -18.113  0.00  0.00    +0.186 C 
BRANCH  17  18
ATOM     18  C   UNL     1      33.694 -22.188 -18.817  0.00  0.00    -0.029 C 
BRANCH  18  19
ATOM     19  N   UNL     1      33.888 -21.397 -20.031  0.00  0.00    +0.387 N 
ATOM     20  C   UNL     1      35.232 -20.821 -20.056  0.00  0.00    -0.101 C 
ATOM     21  C   UNL     1      32.879 -20.343 -20.122  0.00  0.00    -0.101 C 
ATOM     22  H   UNL     1      33.787 -22.013 -20.838  0.00  0.00    -0.080 HD
ENDBRANCH  18  19
ENDBRANCH  17  18
ENDBRANCH  16  17
ENDBRANCH  15  16
ENDBRANCH   1  15
BRANCH   1  23
ATOM     23  O   UNL     1      35.200 -25.228 -15.386  0.00  0.00    -0.340 OA
BRANCH  23  24
ATOM     24  C   UNL     1      36.557 -25.516 -15.113  0.00  0.00    +0.144 C 
ATOM     25  C   UNL     1      36.810 -26.986 -15.375  0.00  0.00    +0.035 C 
ENDBRANCH  23  24
ENDBRANCH   1  23
TORSDOF 9
ENDMDL
MODEL 2
REMARK VINA RESULT:      -7.6      2.480      5.247
REMARK  Name = 17036
REMARK  9 active torsions:
REMARK  status: ('A' for Active; 'I' for Inactive)
REMARK    1  A    between atoms: C_1  and  C_2
REMARK    2  A    between atoms: C_1  and  C_8
REMARK    3  A    between atoms: C_1  and  C_15
REMARK    4  A    between atoms: C_1  and  O_23
REMARK    5  A    between atoms: C_15  and  O_16
REMARK    6  A    between atoms: O_16  and  C_17
REMARK    7  A    between atoms: C_17  and  C_18
REMARK    8  A    between atoms: C_18  and  N_19
REMARK    9  A    between atoms: O_23  and  C_24
REMARK                            x       y       z     vdW  Elec       q    Type
REMARK                         _______ _______ _______ _____ _____    ______ ____
ROOT
ATOM      1  C   UNL     1      35.119 -23.986 -14.916  0.00  0.00    +0.219 C 
ENDROOT
BRANCH   1   2
ATOM      2  C   UNL     1      35.376 -23.175 -16.187  0.00  0.00    +0.016 C 
ATOM      3  C   UNL     1      36.570 -22.501 -16.309  0.00  0.00    -0.001 C 
ATOM      4  C   UNL     1      34.403 -23.148 -17.159  0.00  0.00    -0.001 C 
ATOM      5  C   UNL     1      36.803 -21.760 -17.467  0.00  0.00    -0.000 C 
ATOM      6  C   UNL     1      34.637 -22.407 -18.318  0.00  0.00    -0.000 C 
ATOM      7  C   UNL     1      35.836 -21.713 -18.472  0.00  0.00    -0.000 C 
ENDBRANCH   1   2
BRANCH   1   8
ATOM      8  C   UNL     1      33.635 -23.959 -14.541  0.00  0.00    +0.016 C 
ATOM      9  C   UNL     1      32.939 -22.781 -14.691  0.00  0.00    -0.001 C 
ATOM     10  C   UNL     1      33.055 -25.114 -14.069  0.00  0.00    -0.001 C 
ATOM     11  C   UNL     1      31.588 -22.757 -14.348  0.00  0.00    -0.000 C 
ATOM     12  C   UNL     1      31.702 -25.090 -13.728  0.00  0.00    -0.000 C 
ATOM     13  C   UNL     1      30.969 -23.911 -13.868  0.00  0.00    -0.000 C 
ENDBRANCH   1   8
BRANCH   1  15
ATOM     14  O   UNL     1      35.626 -26.151 -15.938  0.00  0.00    -0.247 OA
ATOM     15  C   UNL     1      35.719 -25.393 -14.981  0.00  0.00    +0.350 C 
BRANCH  15  16
ATOM     16  O   UNL     1      36.414 -25.680 -13.831  0.00  0.00    -0.449 OA
BRANCH  16  17
ATOM     17  C   UNL     1      37.656 -26.350 -14.003  0.00  0.00    +0.186 C 
BRANCH  17  18
ATOM     18  C   UNL     1      38.712 -25.646 -13.166  0.00  0.00    -0.029 C 
BRANCH  18  19
ATOM     19  N   UNL     1      39.856 -25.263 -13.991  0.00  0.00    +0.387 N 
ATOM     20  C   UNL     1      39.403 -24.667 -15.248  0.00  0.00    -0.101 C 
ATOM     21  C   UNL     1      40.707 -26.423 -14.254  0.00  0.00    -0.101 C 
ATOM     22  H   UNL     1      40.404 -24.569 -13.484  0.00  0.00    -0.080 HD
ENDBRANCH  18  19
ENDBRANCH  17  18
ENDBRANCH  16  17
ENDBRANCH  15  16
ENDBRANCH   1  15
BRANCH   1  23
ATOM     23  O   UNL     1      35.916 -23.459 -13.836  0.00  0.00    -0.340 OA
BRANCH  23  24
ATOM     24  C   UNL     1      35.245 -23.609 -12.600  0.00  0.00    +0.144 C 
ATOM     25  C   UNL     1      36.243 -23.435 -11.474  0.00  0.00    +0.035 C 
ENDBRANCH  23  24
ENDBRANCH   1  23
TORSDOF 9
ENDMDL
MODEL 3
REMARK VINA RESULT:      -7.3      6.488      9.710
REMARK  Name = 17036
REMARK  9 active torsions:
REMARK  status: ('A' for Active; 'I' for Inactive)
REMARK    1  A    between atoms: C_1  and  C_2
REMARK    2  A    between atoms: C_1  and  C_8
REMARK    3  A    between atoms: C_1  and  C_15
REMARK    4  A    between atoms: C_1  and  O_23
REMARK    5  A    between atoms: C_15  and  O_16
REMARK    6  A    between atoms: O_16  and  C_17
REMARK    7  A    between atoms: C_17  and  C_18
REMARK    8  A    between atoms: C_18  and  N_19
REMARK    9  A    between atoms: O_23  and  C_24
REMARK                            x       y       z     vdW  Elec       q    Type
REMARK                         _______ _______ _______ _____ _____    ______ ____
ROOT
ATOM      1  C   UNL     1      34.925 -18.043 -21.322  0.00  0.00    +0.219 C 
ENDROOT
BRANCH   1   2
ATOM      2  C   UNL     1      34.369 -19.334 -20.718  0.00  0.00    +0.016 C 
ATOM      3  C   UNL     1      35.254 -20.273 -20.239  0.00  0.00    -0.001 C 
ATOM      4  C   UNL     1      33.005 -19.508 -20.679  0.00  0.00    -0.001 C 
ATOM      5  C   UNL     1      34.747 -21.449 -19.690  0.00  0.00    -0.000 C 
ATOM      6  C   UNL     1      32.498 -20.686 -20.129  0.00  0.00    -0.000 C 
ATOM      7  C   UNL     1      33.368 -21.657 -19.635  0.00  0.00    -0.000 C 
ENDBRANCH   1   2
BRANCH   1   8
ATOM      8  C   UNL     1      34.793 -18.053 -22.847  0.00  0.00    +0.016 C 
ATOM      9  C   UNL     1      34.513 -19.243 -23.477  0.00  0.00    -0.001 C 
ATOM     10  C   UNL     1      34.959 -16.869 -23.529  0.00  0.00    -0.001 C 
ATOM     11  C   UNL     1      34.393 -19.251 -24.866  0.00  0.00    -0.000 C 
ATOM     12  C   UNL     1      34.837 -16.877 -24.919  0.00  0.00    -0.000 C 
ATOM     13  C   UNL     1      34.554 -18.068 -25.588  0.00  0.00    -0.000 C 
ENDBRANCH   1   8
BRANCH   1  15
ATOM     14  O   UNL     1      34.994 -16.036 -19.924  0.00  0.00    -0.247 OA
ATOM     15  C   UNL     1      34.360 -16.786 -20.656  0.00  0.00    +0.350 C 
BRANCH  15  16
ATOM     16  O   UNL     1      33.051 -16.587 -21.022  0.00  0.00    -0.449 OA
BRANCH  16  17
ATOM     17  C   UNL     1      32.543 -15.273 -20.834  0.00  0.00    +0.186 C 
BRANCH  17  18
ATOM     18  C   UNL     1      32.664 -14.510 -22.143  0.00  0.00    -0.029 C 
BRANCH  18  19
ATOM     19  N   UNL     1      31.972 -13.226 -22.059  0.00  0.00    +0.387 N 
ATOM     20  C   UNL     1      32.566 -12.263 -22.987  0.00  0.00    -0.101 C 
ATOM     21  C   UNL     1      32.015 -12.710 -20.691  0.00  0.00    -0.101 C 
ATOM     22  H   UNL     1      30.996 -13.366 -22.321  0.00  0.00    -0.080 HD
ENDBRANCH  18  19
ENDBRANCH  17  18
ENDBRANCH  16  17
ENDBRANCH  15  16
ENDBRANCH   1  15
BRANCH   1  23
ATOM     23  O   UNL     1      36.308 -17.888 -20.943  0.00  0.00    -0.340 OA
BRANCH  23  24
ATOM     24  C   UNL     1      37.051 -19.044 -21.276  0.00  0.00    +0.144 C 
ATOM     25  C   UNL     1      38.168 -18.656 -22.221  0.00  0.00    +0.035 C 
ENDBRANCH  23  24
ENDBRANCH   1  23
TORSDOF 9
ENDMDL
MODEL 4
REMARK VINA RESULT:      -7.2      1.473      4.341
REMARK  Name = 17036
REMARK  9 active torsions:
REMARK  status: ('A' for Active; 'I' for Inactive)
REMARK    1  A    between atoms: C_1  and  C_2
REMARK    2  A    between atoms: C_1  and  C_8
REMARK    3  A    between atoms: C_1  and  C_15
REMARK    4  A    between atoms: C_1  and  O_23
REMARK    5  A    between atoms: C_15  and  O_16
REMARK    6  A    between atoms: O_16  and  C_17
REMARK    7  A    between atoms: C_17  and  C_18
REMARK    8  A    between atoms: C_18  and  N_19
REMARK    9  A    between atoms: O_23  and  C_24
REMARK                            x       y       z     vdW  Elec       q    Type
REMARK                         _______ _______ _______ _____ _____    ______ ____
ROOT
ATOM      1  C   UNL     1      36.052 -23.206 -15.189  0.00  0.00    +0.219 C 
ENDROOT
BRANCH   1   2
ATOM      2  C   UNL     1      34.539 -23.335 -15.375  0.00  0.00    +0.016 C 
ATOM      3  C   UNL     1      34.018 -23.213 -16.643  0.00  0.00    -0.001 C 
ATOM      4  C   UNL     1      33.756 -23.564 -14.267  0.00  0.00    -0.001 C 
ATOM      5  C   UNL     1      32.639 -23.329 -16.812  0.00  0.00    -0.000 C 
ATOM      6  C   UNL     1      32.376 -23.680 -14.437  0.00  0.00    -0.000 C 
ATOM      7  C   UNL     1      31.817 -23.562 -15.709  0.00  0.00    -0.000 C 
ENDBRANCH   1   2
BRANCH   1   8
ATOM      8  C   UNL     1      36.711 -24.586 -15.108  0.00  0.00    +0.016 C 
ATOM      9  C   UNL     1      35.925 -25.702 -15.283  0.00  0.00    -0.001 C 
ATOM     10  C   UNL     1      38.063 -24.656 -14.865  0.00  0.00    -0.001 C 
ATOM     11  C   UNL     1      36.526 -26.959 -15.209  0.00  0.00    -0.000 C 
ATOM     12  C   UNL     1      38.664 -25.913 -14.792  0.00  0.00    -0.000 C 
ATOM     13  C   UNL     1      37.895 -27.065 -14.964  0.00  0.00    -0.000 C 
ENDBRANCH   1   8
BRANCH   1  15
ATOM     14  O   UNL     1      37.513 -21.395 -15.945  0.00  0.00    -0.247 OA
ATOM     15  C   UNL     1      36.697 -22.268 -16.212  0.00  0.00    +0.350 C 
BRANCH  15  16
ATOM     16  O   UNL     1      36.266 -22.562 -17.483  0.00  0.00    -0.449 OA
BRANCH  16  17
ATOM     17  C   UNL     1      36.597 -21.614 -18.490  0.00  0.00    +0.186 C 
BRANCH  17  18
ATOM     18  C   UNL     1      35.620 -21.766 -19.644  0.00  0.00    -0.029 C 
BRANCH  18  19
ATOM     19  N   UNL     1      34.837 -20.545 -19.823  0.00  0.00    +0.387 N 
ATOM     20  C   UNL     1      33.418 -20.864 -19.972  0.00  0.00    -0.101 C 
ATOM     21  C   UNL     1      35.317 -19.795 -20.983  0.00  0.00    -0.101 C 
ATOM     22  H   UNL     1      34.950 -19.963 -18.993  0.00  0.00    -0.080 HD
ENDBRANCH  18  19
ENDBRANCH  17  18
ENDBRANCH  16  17
ENDBRANCH  15  16
ENDBRANCH   1  15
BRANCH   1  23
ATOM     23  O   UNL     1      36.332 -22.451 -13.993  0.00  0.00    -0.340 OA
BRANCH  23  24
ATOM     24  C   UNL     1      36.269 -23.280 -12.850  0.00  0.00    +0.144 C 
ATOM     25  C   UNL     1      37.307 -22.820 -11.849  0.00  0.00    +0.035 C 
ENDBRANCH  23  24
ENDBRANCH   1  23
TORSDOF 9
ENDMDL
MODEL 5
REMARK VINA RESULT:      -7.2      6.574      9.670
REMARK  Name = 17036
REMARK  9 active torsions:
REMARK  status: ('A' for Active; 'I' for Inactive)
REMARK    1  A    between atoms: C_1  and  C_2
REMARK    2  A    between atoms: C_1  and  C_8
REMARK    3  A    between atoms: C_1  and  C_15
REMARK    4  A    between atoms: C_1  and  O_23
REMARK    5  A    between atoms: C_15  and  O_16
REMARK    6  A    between atoms: O_16  and  C_17
REMARK    7  A    between atoms: C_17  and  C_18
REMARK    8  A    between atoms: C_18  and  N_19
REMARK    9  A    between atoms: O_23  and  C_24
REMARK                            x       y       z     vdW  Elec       q    Type
REMARK                         _______ _______ _______ _____ _____    ______ ____
ROOT
ATOM      1  C   UNL     1      34.808 -18.053 -21.746  0.00  0.00    +0.219 C 
ENDROOT
BRANCH   1   2
ATOM      2  C   UNL     1      34.054 -16.826 -21.228  0.00  0.00    +0.016 C 
ATOM      3  C   UNL     1      32.683 -16.891 -21.123  0.00  0.00    -0.001 C 
ATOM      4  C   UNL     1      34.775 -15.704 -20.891  0.00  0.00    -0.001 C 
ATOM      5  C   UNL     1      31.996 -15.773 -20.653  0.00  0.00    -0.000 C 
ATOM      6  C   UNL     1      34.086 -14.585 -20.420  0.00  0.00    -0.000 C 
ATOM      7  C   UNL     1      32.698 -14.619 -20.301  0.00  0.00    -0.000 C 
ENDBRANCH   1   2
BRANCH   1   8
ATOM      8  C   UNL     1      34.412 -19.307 -20.962  0.00  0.00    +0.016 C 
ATOM      9  C   UNL     1      35.407 -20.080 -20.409  0.00  0.00    -0.001 C 
ATOM     10  C   UNL     1      33.076 -19.612 -20.840  0.00  0.00    -0.001 C 
ATOM     11  C   UNL     1      35.045 -21.222 -19.696  0.00  0.00    -0.000 C 
ATOM     12  C   UNL     1      32.714 -20.754 -20.125  0.00  0.00    -0.000 C 
ATOM     13  C   UNL     1      33.699 -21.559 -19.553  0.00  0.00    -0.000 C 
ENDBRANCH   1   8
BRANCH   1  15
ATOM     14  O   UNL     1      34.381 -19.241 -23.842  0.00  0.00    -0.247 OA
ATOM     15  C   UNL     1      34.709 -18.211 -23.265  0.00  0.00    +0.350 C 
BRANCH  15  16
ATOM     16  O   UNL     1      35.001 -17.028 -23.899  0.00  0.00    -0.449 OA
BRANCH  16  17
ATOM     17  C   UNL     1      34.700 -16.972 -25.287  0.00  0.00    +0.186 C 
BRANCH  17  18
ATOM     18  C   UNL     1      33.412 -16.186 -25.475  0.00  0.00    -0.029 C 
BRANCH  18  19
ATOM     19  N   UNL     1      33.661 -14.750 -25.361  0.00  0.00    +0.387 N 
ATOM     20  C   UNL     1      33.111 -14.234 -24.108  0.00  0.00    -0.101 C 
ATOM     21  C   UNL     1      33.086 -14.039 -26.502  0.00  0.00    -0.101 C 
ATOM     22  H   UNL     1      34.669 -14.596 -25.358  0.00  0.00    -0.080 HD
ENDBRANCH  18  19
ENDBRANCH  17  18
ENDBRANCH  16  17
ENDBRANCH  15  16
ENDBRANCH   1  15
BRANCH   1  23
ATOM     23  O   UNL     1      36.228 -17.828 -21.641  0.00  0.00    -0.340 OA
BRANCH  23  24
ATOM     24  C   UNL     1      36.939 -18.720 -22.477  0.00  0.00    +0.144 C 
ATOM     25  C   UNL     1      38.387 -18.761 -22.035  0.00  0.00    +0.035 C 
ENDBRANCH  23  24
ENDBRANCH   1  23
TORSDOF 9
ENDMDL
MODEL 6
REMARK VINA RESULT:      -7.2      1.933      4.924
REMARK  Name = 17036
REMARK  9 active torsions:
REMARK  status: ('A' for Active; 'I' for Inactive)
REMARK    1  A    between atoms: C_1  and  C_2
REMARK    2  A    between atoms: C_1  and  C_8
REMARK    3  A    between atoms: C_1  and  C_15
REMARK    4  A    between atoms: C_1  and  O_23
REMARK    5  A    between atoms: C_15  and  O_16
REMARK    6  A    between atoms: O_16  and  C_17
REMARK    7  A    between atoms: C_17  and  C_18
REMARK    8  A    between atoms: C_18  and  N_19
REMARK    9  A    between atoms: O_23  and  C_24
REMARK                            x       y       z     vdW  Elec       q    Type
REMARK                         _______ _______ _______ _____ _____    ______ ____
ROOT
ATOM      1  C   UNL     1      35.604 -23.597 -14.994  0.00  0.00    +0.219 C 
ENDROOT
BRANCH   1   2
ATOM      2  C   UNL     1      36.552 -24.798 -14.967  0.00  0.00    +0.016 C 
ATOM      3  C   UNL     1      36.037 -26.049 -15.219  0.00  0.00    -0.001 C 
ATOM      4  C   UNL     1      37.882 -24.581 -14.689  0.00  0.00    -0.001 C 
ATOM      5  C   UNL     1      36.901 -27.143 -15.194  0.00  0.00    -0.000 C 
ATOM      6  C   UNL     1      38.745 -25.677 -14.664  0.00  0.00    -0.000 C 
ATOM      7  C   UNL     1      38.256 -26.958 -14.916  0.00  0.00    -0.000 C 
ENDBRANCH   1   2
BRANCH   1   8
ATOM      8  C   UNL     1      35.686 -22.868 -16.338  0.00  0.00    +0.016 C 
ATOM      9  C   UNL     1      36.787 -22.085 -16.597  0.00  0.00    -0.001 C 
ATOM     10  C   UNL     1      34.654 -23.024 -17.235  0.00  0.00    -0.001 C 
ATOM     11  C   UNL     1      36.861 -21.421 -17.821  0.00  0.00    -0.000 C 
ATOM     12  C   UNL     1      34.728 -22.360 -18.459  0.00  0.00    -0.000 C 
ATOM     13  C   UNL     1      35.832 -21.558 -18.753  0.00  0.00    -0.000 C 
ENDBRANCH   1   8
BRANCH   1  15
ATOM     14  O   UNL     1      33.841 -25.036 -14.094  0.00  0.00    -0.247 OA
ATOM     15  C   UNL     1      34.179 -23.958 -14.567  0.00  0.00    +0.350 C 
BRANCH  15  16
ATOM     16  O   UNL     1      33.331 -22.892 -14.750  0.00  0.00    -0.449 OA
BRANCH  16  17
ATOM     17  C   UNL     1      31.955 -23.138 -14.491  0.00  0.00    +0.186 C 
BRANCH  17  18
ATOM     18  C   UNL     1      31.226 -23.280 -15.817  0.00  0.00    -0.029 C 
BRANCH  18  19
ATOM     19  N   UNL     1      30.299 -24.410 -15.779  0.00  0.00    +0.387 N 
ATOM     20  C   UNL     1      28.924 -23.950 -15.969  0.00  0.00    -0.101 C 
ATOM     21  C   UNL     1      30.425 -25.133 -14.514  0.00  0.00    -0.101 C 
ATOM     22  H   UNL     1      30.534 -25.047 -16.540  0.00  0.00    -0.080 HD
ENDBRANCH  18  19
ENDBRANCH  17  18
ENDBRANCH  16  17
ENDBRANCH  15  16
ENDBRANCH   1  15
BRANCH   1  23
ATOM     23  O   UNL     1      35.933 -22.696 -13.918  0.00  0.00    -0.340 OA
BRANCH  23  24
ATOM     24  C   UNL     1      35.911 -23.371 -12.675  0.00  0.00    +0.144 C 
ATOM     25  C   UNL     1      37.058 -22.870 -11.823  0.00  0.00    +0.035 C 
ENDBRANCH  23  24
ENDBRANCH   1  23
TORSDOF 9
ENDMDL
MODEL 7
REMARK VINA RESULT:      -7.0      2.391      5.752
REMARK  Name = 17036
REMARK  9 active torsions:
REMARK  status: ('A' for Active; 'I' for Inactive)
REMARK    1  A    between atoms: C_1  and  C_2
REMARK    2  A    between atoms: C_1  and  C_8
REMARK    3  A    between atoms: C_1  and  C_15
REMARK    4  A    between atoms: C_1  and  O_23
REMARK    5  A    between atoms: C_15  and  O_16
REMARK    6  A    between atoms: O_16  and  C_17
REMARK    7  A    between atoms: C_17  and  C_18
REMARK    8  A    between atoms: C_18  and  N_19
REMARK    9  A    between atoms: O_23  and  C_24
REMARK                            x       y       z     vdW  Elec       q    Type
REMARK                         _______ _______ _______ _____ _____    ______ ____
ROOT
ATOM      1  C   UNL     1      34.448 -24.013 -14.409  0.00  0.00    +0.219 C 
ENDROOT
BRANCH   1   2
ATOM      2  C   UNL     1      32.919 -23.985 -14.455  0.00  0.00    +0.016 C 
ATOM      3  C   UNL     1      32.232 -25.163 -14.267  0.00  0.00    -0.001 C 
ATOM      4  C   UNL     1      32.290 -22.783 -14.684  0.00  0.00    -0.001 C 
ATOM      5  C   UNL     1      30.839 -25.137 -14.310  0.00  0.00    -0.000 C 
ATOM      6  C   UNL     1      30.895 -22.758 -14.726  0.00  0.00    -0.000 C 
ATOM      7  C   UNL     1      30.170 -23.934 -14.539  0.00  0.00    -0.000 C 
ENDBRANCH   1   2
BRANCH   1   8
ATOM      8  C   UNL     1      35.044 -23.253 -15.597  0.00  0.00    +0.016 C 
ATOM      9  C   UNL     1      36.292 -22.689 -15.460  0.00  0.00    -0.001 C 
ATOM     10  C   UNL     1      34.309 -23.164 -16.757  0.00  0.00    -0.001 C 
ATOM     11  C   UNL     1      36.833 -21.997 -16.543  0.00  0.00    -0.000 C 
ATOM     12  C   UNL     1      34.851 -22.472 -17.840  0.00  0.00    -0.000 C 
ATOM     13  C   UNL     1      36.114 -21.888 -17.733  0.00  0.00    -0.000 C 
ENDBRANCH   1   8
BRANCH   1  15
ATOM     14  O   UNL     1      34.405 -23.663 -11.988  0.00  0.00    -0.247 OA
ATOM     15  C   UNL     1      35.009 -23.584 -13.051  0.00  0.00    +0.350 C 
BRANCH  15  16
ATOM     16  O   UNL     1      36.300 -23.131 -13.177  0.00  0.00    -0.449 OA
BRANCH  16  17
ATOM     17  C   UNL     1      37.053 -23.049 -11.974  0.00  0.00    +0.186 C 
BRANCH  17  18
ATOM     18  C   UNL     1      38.392 -23.736 -12.188  0.00  0.00    -0.029 C 
BRANCH  18  19
ATOM     19  N   UNL     1      38.224 -24.969 -12.955  0.00  0.00    +0.387 N 
ATOM     20  C   UNL     1      37.741 -26.046 -12.092  0.00  0.00    -0.101 C 
ATOM     21  C   UNL     1      39.484 -25.351 -13.591  0.00  0.00    -0.101 C 
ATOM     22  H   UNL     1      37.531 -24.805 -13.684  0.00  0.00    -0.080 HD
ENDBRANCH  18  19
ENDBRANCH  17  18
ENDBRANCH  16  17
ENDBRANCH  15  16
ENDBRANCH   1  15
BRANCH   1  23
ATOM     23  O   UNL     1      34.908 -25.380 -14.412  0.00  0.00    -0.340 OA
BRANCH  23  24
ATOM     24  C   UNL     1      35.737 -25.628 -15.530  0.00  0.00    +0.144 C 
ATOM     25  C   UNL     1      36.458 -26.944 -15.327  0.00  0.00    +0.035 C 
ENDBRANCH  23  24
ENDBRANCH   1  23
TORSDOF 9
ENDMDL
MODEL 8
REMARK VINA RESULT:      -6.8      9.340     12.939
REMARK  Name = 17036
REMARK  9 active torsions:
REMARK  status: ('A' for Active; 'I' for Inactive)
REMARK    1  A    between atoms: C_1  and  C_2
REMARK    2  A    between atoms: C_1  and  C_8
REMARK    3  A    between atoms: C_1  and  C_15
REMARK    4  A    between atoms: C_1  and  O_23
REMARK    5  A    between atoms: C_15  and  O_16
REMARK    6  A    between atoms: O_16  and  C_17
REMARK    7  A    between atoms: C_17  and  C_18
REMARK    8  A    between atoms: C_18  and  N_19
REMARK    9  A    between atoms: O_23  and  C_24
REMARK                            x       y       z     vdW  Elec       q    Type
REMARK                         _______ _______ _______ _____ _____    ______ ____
ROOT
ATOM      1  C   UNL     1      33.049 -13.884 -22.536  0.00  0.00    +0.219 C 
ENDROOT
BRANCH   1   2
ATOM      2  C   UNL     1      32.387 -12.733 -21.775  0.00  0.00    +0.016 C 
ATOM      3  C   UNL     1      31.876 -11.677 -22.493  0.00  0.00    -0.001 C 
ATOM      4  C   UNL     1      32.331 -12.798 -20.402  0.00  0.00    -0.001 C 
ATOM      5  C   UNL     1      31.274 -10.627 -21.800  0.00  0.00    -0.000 C 
ATOM      6  C   UNL     1      31.728 -11.748 -19.709  0.00  0.00    -0.000 C 
ATOM      7  C   UNL     1      31.200 -10.663 -20.407  0.00  0.00    -0.000 C 
ENDBRANCH   1   2
BRANCH   1   8
ATOM      8  C   UNL     1      33.167 -13.556 -24.026  0.00  0.00    +0.016 C 
ATOM      9  C   UNL     1      32.681 -14.461 -24.941  0.00  0.00    -0.001 C 
ATOM     10  C   UNL     1      33.756 -12.368 -24.394  0.00  0.00    -0.001 C 
ATOM     11  C   UNL     1      32.789 -14.162 -26.299  0.00  0.00    -0.000 C 
ATOM     12  C   UNL     1      33.863 -12.068 -25.752  0.00  0.00    -0.000 C 
ATOM     13  C   UNL     1      33.380 -12.965 -26.704  0.00  0.00    -0.000 C 
ENDBRANCH   1   8
BRANCH   1  15
ATOM     14  O   UNL     1      34.680 -14.134 -20.729  0.00  0.00    -0.247 OA
ATOM     15  C   UNL     1      34.361 -14.343 -21.893  0.00  0.00    +0.350 C 
BRANCH  15  16
ATOM     16  O   UNL     1      35.119 -15.057 -22.789  0.00  0.00    -0.449 OA
BRANCH  16  17
ATOM     17  C   UNL     1      35.251 -16.448 -22.525  0.00  0.00    +0.186 C 
BRANCH  17  18
ATOM     18  C   UNL     1      34.916 -17.220 -23.791  0.00  0.00    -0.029 C 
BRANCH  18  19
ATOM     19  N   UNL     1      35.211 -18.641 -23.623  0.00  0.00    +0.387 N 
ATOM     20  C   UNL     1      34.615 -19.419 -24.709  0.00  0.00    -0.101 C 
ATOM     21  C   UNL     1      34.723 -19.115 -22.328  0.00  0.00    -0.101 C 
ATOM     22  H   UNL     1      36.222 -18.768 -23.653  0.00  0.00    -0.080 HD
ENDBRANCH  18  19
ENDBRANCH  17  18
ENDBRANCH  16  17
ENDBRANCH  15  16
ENDBRANCH   1  15
BRANCH   1  23
ATOM     23  O   UNL     1      32.282 -15.091 -22.351  0.00  0.00    -0.340 OA
BRANCH  23  24
ATOM     24  C   UNL     1      32.208 -15.433 -20.981  0.00  0.00    +0.144 C 
ATOM     25  C   UNL     1      31.934 -16.917 -20.858  0.00  0.00    +0.035 C 
ENDBRANCH  23  24
ENDBRANCH   1  23
TORSDOF 9
ENDMDL
MODEL 9
REMARK VINA RESULT:      -6.6     12.268     17.143
REMARK  Name = 17036
REMARK  9 active torsions:
REMARK  status: ('A' for Active; 'I' for Inactive)
REMARK    1  A    between atoms: C_1  and  C_2
REMARK    2  A    between atoms: C_1  and  C_8
REMARK    3  A    between atoms: C_1  and  C_15
REMARK    4  A    between atoms: C_1  and  O_23
REMARK    5  A    between atoms: C_15  and  O_16
REMARK    6  A    between atoms: O_16  and  C_17
REMARK    7  A    between atoms: C_17  and  C_18
REMARK    8  A    between atoms: C_18  and  N_19
REMARK    9  A    between atoms: O_23  and  C_24
REMARK                            x       y       z     vdW  Elec       q    Type
REMARK                         _______ _______ _______ _____ _____    ______ ____
ROOT
ATOM      1  C   UNL     1      32.736  -8.788 -23.087  0.00  0.00    +0.219 C 
ENDROOT
BRANCH   1   2
ATOM      2  C   UNL     1      33.606  -9.586 -24.060  0.00  0.00    +0.016 C 
ATOM      3  C   UNL     1      34.874  -9.128 -24.338  0.00  0.00    -0.001 C 
ATOM      4  C   UNL     1      33.088 -10.731 -24.620  0.00  0.00    -0.001 C 
ATOM      5  C   UNL     1      35.666  -9.855 -25.225  0.00  0.00    -0.000 C 
ATOM      6  C   UNL     1      33.882 -11.458 -25.507  0.00  0.00    -0.000 C 
ATOM      7  C   UNL     1      35.171 -11.021 -25.810  0.00  0.00    -0.000 C 
ENDBRANCH   1   2
BRANCH   1   8
ATOM      8  C   UNL     1      32.316  -7.451 -23.703  0.00  0.00    +0.016 C 
ATOM      9  C   UNL     1      31.045  -6.984 -23.460  0.00  0.00    -0.001 C 
ATOM     10  C   UNL     1      33.227  -6.767 -24.475  0.00  0.00    -0.001 C 
ATOM     11  C   UNL     1      30.663  -5.766 -24.022  0.00  0.00    -0.000 C 
ATOM     12  C   UNL     1      32.845  -5.548 -25.036  0.00  0.00    -0.000 C 
ATOM     13  C   UNL     1      31.563  -5.047 -24.809  0.00  0.00    -0.000 C 
ENDBRANCH   1   8
BRANCH   1  15
ATOM     14  O   UNL     1      30.410  -9.524 -22.902  0.00  0.00    -0.247 OA
ATOM     15  C   UNL     1      31.572  -9.607 -22.524  0.00  0.00    +0.350 C 
BRANCH  15  16
ATOM     16  O   UNL     1      32.013 -10.482 -21.560  0.00  0.00    -0.449 OA
BRANCH  16  17
ATOM     17  C   UNL     1      31.347 -11.737 -21.506  0.00  0.00    +0.186 C 
BRANCH  17  18
ATOM     18  C   UNL     1      32.281 -12.758 -20.876  0.00  0.00    -0.029 C 
BRANCH  18  19
ATOM     19  N   UNL     1      32.249 -14.015 -21.620  0.00  0.00    +0.387 N 
ATOM     20  C   UNL     1      32.650 -15.129 -20.760  0.00  0.00    -0.101 C 
ATOM     21  C   UNL     1      33.117 -13.938 -22.794  0.00  0.00    -0.101 C 
ATOM     22  H   UNL     1      31.293 -14.181 -21.936  0.00  0.00    -0.080 HD
ENDBRANCH  18  19
ENDBRANCH  17  18
ENDBRANCH  16  17
ENDBRANCH  15  16
ENDBRANCH   1  15
BRANCH   1  23
ATOM     23  O   UNL     1      33.460  -8.565 -21.860  0.00  0.00    -0.340 OA
BRANCH  23  24
ATOM     24  C   UNL     1      33.198  -7.272 -21.351  0.00  0.00    +0.144 C 
ATOM     25  C   UNL     1      32.573  -7.401 -19.978  0.00  0.00    +0.035 C 
ENDBRANCH  23  24
ENDBRANCH   1  23
TORSDOF 9
ENDMDL
