MODEL 1
REMARK VINA RESULT:      -5.3      0.000      0.000
REMARK  Name = 445856
REMARK  3 active torsions:
REMARK  status: ('A' for Active; 'I' for Inactive)
REMARK    1  A    between atoms: C_1  and  C_4
REMARK    2  A    between atoms: C_1  and  N_7
REMARK    3  A    between atoms: C_1  and  C_11
REMARK                            x       y       z     vdW  Elec       q    Type
REMARK                         _______ _______ _______ _____ _____    ______ ____
ROOT
ATOM      1  C   UNL     1      34.520 -17.065 -22.530  0.00  0.00    +0.013 C 
ENDROOT
BRANCH   1   4
ATOM      2  O   UNL     1      35.088 -15.989 -20.428  0.00  0.00    -0.277 OA
ATOM      3  N   UNL     1      32.971 -15.643 -21.306  0.00  0.00    -0.304 N 
ATOM      4  C   UNL     1      34.249 -16.183 -21.306  0.00  0.00    +0.202 C 
ATOM      5  C   UNL     1      32.503 -14.782 -20.245  0.00  0.00    +0.111 C 
ATOM      6  H   UNL     1      32.364 -15.853 -22.053  0.00  0.00    +0.149 HD
ENDBRANCH   1   4
BRANCH   1   7
ATOM      7  N   UNL     1      35.546 -16.381 -23.324  0.00  0.00    +0.387 N 
ATOM      8  H   UNL     1      35.220 -16.277 -24.285  0.00  0.00    -0.089 HD
ATOM      9  H   UNL     1      36.405 -16.931 -23.314  0.00  0.00    -0.089 HD
ATOM     10  H   UNL     1      35.727 -15.460 -22.925  0.00  0.00    -0.089 HD
ENDBRANCH   1   7
BRANCH   1  11
ATOM     11  C   UNL     1      34.901 -18.535 -22.165  0.00  0.00    -0.010 C 
ATOM     12  C   UNL     1      33.871 -19.126 -21.179  0.00  0.00    -0.002 C 
ATOM     13  C   UNL     1      34.878 -19.406 -23.441  0.00  0.00    -0.002 C 
ATOM     14  C   UNL     1      36.301 -18.650 -21.529  0.00  0.00    -0.002 C 
ENDBRANCH   1  11
TORSDOF 3
ENDMDL
MODEL 2
REMARK VINA RESULT:      -5.0     10.288     11.484
REMARK  Name = 445856
REMARK  3 active torsions:
REMARK  status: ('A' for Active; 'I' for Inactive)
REMARK    1  A    between atoms: C_1  and  C_4
REMARK    2  A    between atoms: C_1  and  N_7
REMARK    3  A    between atoms: C_1  and  C_11
REMARK                            x       y       z     vdW  Elec       q    Type
REMARK                         _______ _______ _______ _____ _____    ______ ____
ROOT
ATOM      1  C   UNL     1      36.710 -25.318 -15.211  0.00  0.00    +0.013 C 
ENDROOT
BRANCH   1   4
ATOM      2  O   UNL     1      37.910 -26.484 -13.451  0.00  0.00    -0.277 OA
ATOM      3  N   UNL     1      39.137 -25.439 -15.115  0.00  0.00    -0.304 N 
ATOM      4  C   UNL     1      37.962 -25.819 -14.484  0.00  0.00    +0.202 C 
ATOM      5  C   UNL     1      40.436 -25.802 -14.600  0.00  0.00    +0.111 C 
ATOM      6  H   UNL     1      39.084 -24.906 -15.941  0.00  0.00    +0.149 HD
ENDBRANCH   1   4
BRANCH   1   7
ATOM      7  N   UNL     1      35.642 -26.281 -14.925  0.00  0.00    +0.387 N 
ATOM      8  H   UNL     1      35.876 -26.809 -14.084  0.00  0.00    -0.089 HD
ATOM      9  H   UNL     1      35.543 -26.923 -15.712  0.00  0.00    -0.089 HD
ATOM     10  H   UNL     1      34.764 -25.783 -14.780  0.00  0.00    -0.089 HD
ENDBRANCH   1   7
BRANCH   1  11
ATOM     11  C   UNL     1      36.326 -23.848 -14.848  0.00  0.00    -0.010 C 
ATOM     12  C   UNL     1      37.023 -22.860 -15.808  0.00  0.00    -0.002 C 
ATOM     13  C   UNL     1      34.801 -23.657 -15.009  0.00  0.00    -0.002 C 
ATOM     14  C   UNL     1      36.707 -23.468 -13.403  0.00  0.00    -0.002 C 
ENDBRANCH   1  11
TORSDOF 3
ENDMDL
MODEL 3
REMARK VINA RESULT:      -5.0      2.850      3.609
REMARK  Name = 445856
REMARK  3 active torsions:
REMARK  status: ('A' for Active; 'I' for Inactive)
REMARK    1  A    between atoms: C_1  and  C_4
REMARK    2  A    between atoms: C_1  and  N_7
REMARK    3  A    between atoms: C_1  and  C_11
REMARK                            x       y       z     vdW  Elec       q    Type
REMARK                         _______ _______ _______ _____ _____    ______ ____
ROOT
ATOM      1  C   UNL     1      33.479 -15.278 -22.914  0.00  0.00    +0.013 C 
ENDROOT
BRANCH   1   4
ATOM      2  O   UNL     1      32.066 -13.326 -22.610  0.00  0.00    -0.277 OA
ATOM      3  N   UNL     1      34.036 -13.085 -23.806  0.00  0.00    -0.304 N 
ATOM      4  C   UNL     1      33.098 -13.803 -23.079  0.00  0.00    +0.202 C 
ATOM      5  C   UNL     1      33.877 -11.676 -24.083  0.00  0.00    +0.111 C 
ATOM      6  H   UNL     1      34.835 -13.549 -24.144  0.00  0.00    +0.149 HD
ENDBRANCH   1   4
BRANCH   1   7
ATOM      7  N   UNL     1      34.657 -15.506 -23.756  0.00  0.00    +0.387 N 
ATOM      8  H   UNL     1      34.435 -15.267 -24.723  0.00  0.00    -0.089 HD
ATOM      9  H   UNL     1      34.928 -16.488 -23.702  0.00  0.00    -0.089 HD
ATOM     10  H   UNL     1      35.427 -14.922 -23.430  0.00  0.00    -0.089 HD
ENDBRANCH   1   7
BRANCH   1  11
ATOM     11  C   UNL     1      33.694 -15.701 -21.425  0.00  0.00    -0.010 C 
ATOM     12  C   UNL     1      32.335 -15.845 -20.708  0.00  0.00    -0.002 C 
ATOM     13  C   UNL     1      34.396 -17.077 -21.377  0.00  0.00    -0.002 C 
ATOM     14  C   UNL     1      34.555 -14.695 -20.635  0.00  0.00    -0.002 C 
ENDBRANCH   1  11
TORSDOF 3
ENDMDL
MODEL 4
REMARK VINA RESULT:      -4.9      1.698      2.523
REMARK  Name = 445856
REMARK  3 active torsions:
REMARK  status: ('A' for Active; 'I' for Inactive)
REMARK    1  A    between atoms: C_1  and  C_4
REMARK    2  A    between atoms: C_1  and  N_7
REMARK    3  A    between atoms: C_1  and  C_11
REMARK                            x       y       z     vdW  Elec       q    Type
REMARK                         _______ _______ _______ _____ _____    ______ ____
ROOT
ATOM      1  C   UNL     1      34.542 -16.867 -21.544  0.00  0.00    +0.013 C 
ENDROOT
BRANCH   1   4
ATOM      2  O   UNL     1      35.667 -15.966 -23.498  0.00  0.00    -0.277 OA
ATOM      3  N   UNL     1      33.460 -15.370 -23.126  0.00  0.00    -0.304 N 
ATOM      4  C   UNL     1      34.641 -16.032 -22.824  0.00  0.00    +0.202 C 
ATOM      5  C   UNL     1      33.329 -14.524 -24.289  0.00  0.00    +0.111 C 
ATOM      6  H   UNL     1      32.685 -15.481 -22.528  0.00  0.00    +0.149 HD
ENDBRANCH   1   4
BRANCH   1   7
ATOM      7  N   UNL     1      33.228 -16.587 -20.957  0.00  0.00    +0.387 N 
ATOM      8  H   UNL     1      33.322 -16.480 -19.947  0.00  0.00    -0.089 HD
ATOM      9  H   UNL     1      32.594 -17.359 -21.160  0.00  0.00    -0.089 HD
ATOM     10  H   UNL     1      32.854 -15.726 -21.357  0.00  0.00    -0.089 HD
ENDBRANCH   1   7
BRANCH   1  11
ATOM     11  C   UNL     1      34.801 -18.391 -21.775  0.00  0.00    -0.010 C 
ATOM     12  C   UNL     1      36.203 -18.779 -21.258  0.00  0.00    -0.002 C 
ATOM     13  C   UNL     1      33.765 -19.217 -20.979  0.00  0.00    -0.002 C 
ATOM     14  C   UNL     1      34.703 -18.797 -23.258  0.00  0.00    -0.002 C 
ENDBRANCH   1  11
TORSDOF 3
ENDMDL
MODEL 5
REMARK VINA RESULT:      -4.9      8.613     10.213
REMARK  Name = 445856
REMARK  3 active torsions:
REMARK  status: ('A' for Active; 'I' for Inactive)
REMARK    1  A    between atoms: C_1  and  C_4
REMARK    2  A    between atoms: C_1  and  N_7
REMARK    3  A    between atoms: C_1  and  C_11
REMARK                            x       y       z     vdW  Elec       q    Type
REMARK                         _______ _______ _______ _____ _____    ______ ____
ROOT
ATOM      1  C   UNL     1      31.811  -6.905 -21.679  0.00  0.00    +0.013 C 
ENDROOT
BRANCH   1   4
ATOM      2  O   UNL     1      33.008  -7.173 -19.583  0.00  0.00    -0.277 OA
ATOM      3  N   UNL     1      31.824  -8.982 -20.414  0.00  0.00    -0.304 N 
ATOM      4  C   UNL     1      32.289  -7.676 -20.444  0.00  0.00    +0.202 C 
ATOM      5  C   UNL     1      32.153  -9.889 -19.340  0.00  0.00    +0.111 C 
ATOM      6  H   UNL     1      31.250  -9.301 -21.149  0.00  0.00    +0.149 HD
ENDBRANCH   1   4
BRANCH   1   7
ATOM      7  N   UNL     1      31.922  -5.479 -21.355  0.00  0.00    +0.387 N 
ATOM      8  H   UNL     1      32.770  -5.319 -20.810  0.00  0.00    -0.089 HD
ATOM      9  H   UNL     1      31.109  -5.190 -20.812  0.00  0.00    -0.089 HD
ATOM     10  H   UNL     1      31.965  -4.937 -22.218  0.00  0.00    -0.089 HD
ENDBRANCH   1   7
BRANCH   1  11
ATOM     11  C   UNL     1      32.567  -7.300 -22.989  0.00  0.00    -0.010 C 
ATOM     12  C   UNL     1      31.904  -8.534 -23.637  0.00  0.00    -0.002 C 
ATOM     13  C   UNL     1      32.481  -6.137 -24.004  0.00  0.00    -0.002 C 
ATOM     14  C   UNL     1      34.055  -7.619 -22.748  0.00  0.00    -0.002 C 
ENDBRANCH   1  11
TORSDOF 3
ENDMDL
MODEL 6
REMARK VINA RESULT:      -4.9      2.522      3.767
REMARK  Name = 445856
REMARK  3 active torsions:
REMARK  status: ('A' for Active; 'I' for Inactive)
REMARK    1  A    between atoms: C_1  and  C_4
REMARK    2  A    between atoms: C_1  and  N_7
REMARK    3  A    between atoms: C_1  and  C_11
REMARK                            x       y       z     vdW  Elec       q    Type
REMARK                         _______ _______ _______ _____ _____    ______ ____
ROOT
ATOM      1  C   UNL     1      34.374 -18.046 -21.612  0.00  0.00    +0.013 C 
ENDROOT
BRANCH   1   4
ATOM      2  O   UNL     1      32.966 -19.943 -21.049  0.00  0.00    -0.277 OA
ATOM      3  N   UNL     1      35.171 -19.957 -20.336  0.00  0.00    -0.304 N 
ATOM      4  C   UNL     1      34.072 -19.409 -20.981  0.00  0.00    +0.202 C 
ATOM      5  C   UNL     1      35.110 -21.237 -19.671  0.00  0.00    +0.111 C 
ATOM      6  H   UNL     1      36.020 -19.458 -20.333  0.00  0.00    +0.149 HD
ENDBRANCH   1   4
BRANCH   1   7
ATOM      7  N   UNL     1      35.082 -17.259 -20.598  0.00  0.00    +0.387 N 
ATOM      8  H   UNL     1      36.088 -17.344 -20.742  0.00  0.00    -0.089 HD
ATOM      9  H   UNL     1      34.841 -17.606 -19.669  0.00  0.00    -0.089 HD
ATOM     10  H   UNL     1      34.809 -16.279 -20.675  0.00  0.00    -0.089 HD
ENDBRANCH   1   7
BRANCH   1  11
ATOM     11  C   UNL     1      35.148 -18.145 -22.966  0.00  0.00    -0.010 C 
ATOM     12  C   UNL     1      34.987 -16.839 -23.772  0.00  0.00    -0.002 C 
ATOM     13  C   UNL     1      36.656 -18.337 -22.684  0.00  0.00    -0.002 C 
ATOM     14  C   UNL     1      34.671 -19.319 -23.844  0.00  0.00    -0.002 C 
ENDBRANCH   1  11
TORSDOF 3
ENDMDL
MODEL 7
REMARK VINA RESULT:      -4.8      2.633      3.447
REMARK  Name = 445856
REMARK  3 active torsions:
REMARK  status: ('A' for Active; 'I' for Inactive)
REMARK    1  A    between atoms: C_1  and  C_4
REMARK    2  A    between atoms: C_1  and  N_7
REMARK    3  A    between atoms: C_1  and  C_11
REMARK                            x       y       z     vdW  Elec       q    Type
REMARK                         _______ _______ _______ _____ _____    ______ ____
ROOT
ATOM      1  C   UNL     1      35.025 -16.496 -23.331  0.00  0.00    +0.013 C 
ENDROOT
BRANCH   1   4
ATOM      2  O   UNL     1      35.107 -16.892 -25.725  0.00  0.00    -0.277 OA
ATOM      3  N   UNL     1      33.502 -15.436 -24.904  0.00  0.00    -0.304 N 
ATOM      4  C   UNL     1      34.570 -16.314 -24.783  0.00  0.00    +0.202 C 
ATOM      5  C   UNL     1      32.914 -15.117 -26.183  0.00  0.00    +0.111 C 
ATOM      6  H   UNL     1      33.134 -15.018 -24.092  0.00  0.00    +0.149 HD
ENDBRANCH   1   4
BRANCH   1   7
ATOM      7  N   UNL     1      34.159 -15.647 -22.507  0.00  0.00    +0.387 N 
ATOM      8  H   UNL     1      33.888 -14.820 -23.039  0.00  0.00    -0.089 HD
ATOM      9  H   UNL     1      34.663 -15.361 -21.668  0.00  0.00    -0.089 HD
ATOM     10  H   UNL     1      33.324 -16.169 -22.242  0.00  0.00    -0.089 HD
ENDBRANCH   1   7
BRANCH   1  11
ATOM     11  C   UNL     1      35.044 -17.989 -22.869  0.00  0.00    -0.010 C 
ATOM     12  C   UNL     1      36.484 -18.422 -22.521  0.00  0.00    -0.002 C 
ATOM     13  C   UNL     1      34.189 -18.144 -21.591  0.00  0.00    -0.002 C 
ATOM     14  C   UNL     1      34.492 -18.954 -23.936  0.00  0.00    -0.002 C 
ENDBRANCH   1  11
TORSDOF 3
ENDMDL
MODEL 8
REMARK VINA RESULT:      -4.8      8.612     10.298
REMARK  Name = 445856
REMARK  3 active torsions:
REMARK  status: ('A' for Active; 'I' for Inactive)
REMARK    1  A    between atoms: C_1  and  C_4
REMARK    2  A    between atoms: C_1  and  N_7
REMARK    3  A    between atoms: C_1  and  C_11
REMARK                            x       y       z     vdW  Elec       q    Type
REMARK                         _______ _______ _______ _____ _____    ______ ____
ROOT
ATOM      1  C   UNL     1      33.019  -7.467 -22.192  0.00  0.00    +0.013 C 
ENDROOT
BRANCH   1   4
ATOM      2  O   UNL     1      32.860  -7.219 -19.781  0.00  0.00    -0.277 OA
ATOM      3  N   UNL     1      32.122  -9.197 -20.736  0.00  0.00    -0.304 N 
ATOM      4  C   UNL     1      32.668  -7.922 -20.771  0.00  0.00    +0.202 C 
ATOM      5  C   UNL     1      31.720  -9.825 -19.500  0.00  0.00    +0.111 C 
ATOM      6  H   UNL     1      32.004  -9.689 -21.581  0.00  0.00    +0.149 HD
ENDBRANCH   1   4
BRANCH   1   7
ATOM      7  N   UNL     1      33.480  -8.656 -22.914  0.00  0.00    +0.387 N 
ATOM      8  H   UNL     1      34.038  -9.239 -22.290  0.00  0.00    -0.089 HD
ATOM      9  H   UNL     1      34.049  -8.370 -23.711  0.00  0.00    -0.089 HD
ATOM     10  H   UNL     1      32.674  -9.187 -23.245  0.00  0.00    -0.089 HD
ENDBRANCH   1   7
BRANCH   1  11
ATOM     11  C   UNL     1      31.849  -6.723 -22.912  0.00  0.00    -0.010 C 
ATOM     12  C   UNL     1      32.399  -5.831 -24.045  0.00  0.00    -0.002 C 
ATOM     13  C   UNL     1      30.897  -7.758 -23.554  0.00  0.00    -0.002 C 
ATOM     14  C   UNL     1      31.023  -5.838 -21.957  0.00  0.00    -0.002 C 
ENDBRANCH   1  11
TORSDOF 3
ENDMDL
MODEL 9
REMARK VINA RESULT:      -4.8      2.041      3.721
REMARK  Name = 445856
REMARK  3 active torsions:
REMARK  status: ('A' for Active; 'I' for Inactive)
REMARK    1  A    between atoms: C_1  and  C_4
REMARK    2  A    between atoms: C_1  and  N_7
REMARK    3  A    between atoms: C_1  and  C_11
REMARK                            x       y       z     vdW  Elec       q    Type
REMARK                         _______ _______ _______ _____ _____    ______ ____
ROOT
ATOM      1  C   UNL     1      35.233 -16.814 -22.163  0.00  0.00    +0.013 C 
ENDROOT
BRANCH   1   4
ATOM      2  O   UNL     1      34.346 -18.968 -22.851  0.00  0.00    -0.277 OA
ATOM      3  N   UNL     1      35.455 -18.830 -20.821  0.00  0.00    -0.304 N 
ATOM      4  C   UNL     1      34.953 -18.312 -22.006  0.00  0.00    +0.202 C 
ATOM      5  C   UNL     1      35.304 -20.222 -20.468  0.00  0.00    +0.111 C 
ATOM      6  H   UNL     1      35.930 -18.230 -20.202  0.00  0.00    +0.149 HD
ENDBRANCH   1   4
BRANCH   1   7
ATOM      7  N   UNL     1      35.577 -16.595 -23.571  0.00  0.00    +0.387 N 
ATOM      8  H   UNL     1      36.563 -16.813 -23.719  0.00  0.00    -0.089 HD
ATOM      9  H   UNL     1      35.405 -15.620 -23.815  0.00  0.00    -0.089 HD
ATOM     10  H   UNL     1      35.003 -17.199 -24.160  0.00  0.00    -0.089 HD
ENDBRANCH   1   7
BRANCH   1  11
ATOM     11  C   UNL     1      34.060 -15.908 -21.667  0.00  0.00    -0.010 C 
ATOM     12  C   UNL     1      34.580 -14.871 -20.649  0.00  0.00    -0.002 C 
ATOM     13  C   UNL     1      33.468 -15.130 -22.864  0.00  0.00    -0.002 C 
ATOM     14  C   UNL     1      32.922 -16.709 -21.005  0.00  0.00    -0.002 C 
ENDBRANCH   1  11
TORSDOF 3
ENDMDL
