MODEL 1
REMARK VINA RESULT:      -6.9      0.000      0.000
REMARK  Name = 1983
REMARK  2 active torsions:
REMARK  status: ('A' for Active; 'I' for Inactive)
REMARK    1  A    between atoms: C_1  and  N_8
REMARK    2  A    between atoms: C_6  and  O_12
REMARK                            x       y       z     vdW  Elec       q    Type
REMARK                         _______ _______ _______ _____ _____    ______ ____
ROOT
ATOM      1  C   UNL     1      34.566 -19.420 -21.034  0.00  0.00    +0.050 C 
ATOM      2  C   UNL     1      33.357 -19.965 -20.601  0.00  0.00    +0.018 C 
ATOM      3  C   UNL     1      35.772 -20.020 -20.668  0.00  0.00    +0.018 C 
ATOM      4  C   UNL     1      33.353 -21.110 -19.804  0.00  0.00    +0.038 C 
ATOM      5  C   UNL     1      35.768 -21.164 -19.871  0.00  0.00    +0.038 C 
ATOM      6  C   UNL     1      34.559 -21.709 -19.440  0.00  0.00    +0.134 C 
ENDROOT
BRANCH   1   8
ATOM      7  O   UNL     1      35.174 -16.555 -20.337  0.00  0.00    -0.275 OA
ATOM      8  N   UNL     1      34.570 -18.275 -21.831  0.00  0.00    -0.284 N 
ATOM      9  C   UNL     1      34.860 -16.959 -21.452  0.00  0.00    +0.227 C 
ATOM     10  C   UNL     1      34.752 -16.004 -22.616  0.00  0.00    +0.095 C 
ATOM     11  H   UNL     1      34.338 -18.410 -22.779  0.00  0.00    +0.155 HD
ENDBRANCH   1   8
BRANCH   6  12
ATOM     12  O   UNL     1      34.555 -22.827 -18.662  0.00  0.00    -0.506 OA
ATOM     13  H   UNL     1      33.744 -23.177 -18.349  0.00  0.00    +0.292 HD
ENDBRANCH   6  12
TORSDOF 2
ENDMDL
MODEL 2
REMARK VINA RESULT:      -6.7      1.682      2.225
REMARK  Name = 1983
REMARK  2 active torsions:
REMARK  status: ('A' for Active; 'I' for Inactive)
REMARK    1  A    between atoms: C_1  and  N_8
REMARK    2  A    between atoms: C_6  and  O_12
REMARK                            x       y       z     vdW  Elec       q    Type
REMARK                         _______ _______ _______ _____ _____    ______ ____
ROOT
ATOM      1  C   UNL     1      34.686 -19.617 -21.000  0.00  0.00    +0.050 C 
ATOM      2  C   UNL     1      35.873 -20.196 -20.551  0.00  0.00    +0.018 C 
ATOM      3  C   UNL     1      33.458 -20.131 -20.583  0.00  0.00    +0.018 C 
ATOM      4  C   UNL     1      35.833 -21.288 -19.685  0.00  0.00    +0.038 C 
ATOM      5  C   UNL     1      33.418 -21.223 -19.716  0.00  0.00    +0.038 C 
ATOM      6  C   UNL     1      34.605 -21.801 -19.267  0.00  0.00    +0.134 C 
ENDROOT
BRANCH   1   8
ATOM      7  O   UNL     1      34.952 -19.509 -23.997  0.00  0.00    -0.275 OA
ATOM      8  N   UNL     1      34.727 -18.524 -21.867  0.00  0.00    -0.284 N 
ATOM      9  C   UNL     1      34.854 -18.532 -23.262  0.00  0.00    +0.227 C 
ATOM     10  C   UNL     1      34.858 -17.135 -23.831  0.00  0.00    +0.095 C 
ATOM     11  H   UNL     1      34.658 -17.638 -21.446  0.00  0.00    +0.155 HD
ENDBRANCH   1   8
BRANCH   6  12
ATOM     12  O   UNL     1      34.566 -22.866 -18.420  0.00  0.00    -0.506 OA
ATOM     13  H   UNL     1      33.936 -22.891 -17.726  0.00  0.00    +0.292 HD
ENDBRANCH   6  12
TORSDOF 2
ENDMDL
MODEL 3
REMARK VINA RESULT:      -6.6      2.791      5.450
REMARK  Name = 1983
REMARK  2 active torsions:
REMARK  status: ('A' for Active; 'I' for Inactive)
REMARK    1  A    between atoms: C_1  and  N_8
REMARK    2  A    between atoms: C_6  and  O_12
REMARK                            x       y       z     vdW  Elec       q    Type
REMARK                         _______ _______ _______ _____ _____    ______ ____
ROOT
ATOM      1  C   UNL     1      35.136 -18.541 -22.853  0.00  0.00    +0.050 C 
ATOM      2  C   UNL     1      35.260 -17.159 -22.710  0.00  0.00    +0.018 C 
ATOM      3  C   UNL     1      34.703 -19.080 -24.066  0.00  0.00    +0.018 C 
ATOM      4  C   UNL     1      34.952 -16.316 -23.777  0.00  0.00    +0.038 C 
ATOM      5  C   UNL     1      34.395 -18.237 -25.133  0.00  0.00    +0.038 C 
ATOM      6  C   UNL     1      34.520 -16.855 -24.989  0.00  0.00    +0.134 C 
ENDROOT
BRANCH   1   8
ATOM      7  O   UNL     1      33.335 -19.963 -20.904  0.00  0.00    -0.275 OA
ATOM      8  N   UNL     1      35.443 -19.384 -21.785  0.00  0.00    -0.284 N 
ATOM      9  C   UNL     1      34.560 -20.021 -20.904  0.00  0.00    +0.227 C 
ATOM     10  C   UNL     1      35.293 -20.851 -19.880  0.00  0.00    +0.095 C 
ATOM     11  H   UNL     1      36.401 -19.552 -21.631  0.00  0.00    +0.155 HD
ENDBRANCH   1   8
BRANCH   6  12
ATOM     12  O   UNL     1      34.221 -16.032 -26.032  0.00  0.00    -0.506 OA
ATOM     13  H   UNL     1      33.421 -16.149 -26.506  0.00  0.00    +0.292 HD
ENDBRANCH   6  12
TORSDOF 2
ENDMDL
MODEL 4
REMARK VINA RESULT:      -6.6      0.808      1.679
REMARK  Name = 1983
REMARK  2 active torsions:
REMARK  status: ('A' for Active; 'I' for Inactive)
REMARK    1  A    between atoms: C_1  and  N_8
REMARK    2  A    between atoms: C_6  and  O_12
REMARK                            x       y       z     vdW  Elec       q    Type
REMARK                         _______ _______ _______ _____ _____    ______ ____
ROOT
ATOM      1  C   UNL     1      34.983 -18.797 -21.132  0.00  0.00    +0.050 C 
ATOM      2  C   UNL     1      36.266 -19.197 -20.757  0.00  0.00    +0.018 C 
ATOM      3  C   UNL     1      33.884 -19.595 -20.816  0.00  0.00    +0.018 C 
ATOM      4  C   UNL     1      36.449 -20.394 -20.066  0.00  0.00    +0.038 C 
ATOM      5  C   UNL     1      34.067 -20.792 -20.125  0.00  0.00    +0.038 C 
ATOM      6  C   UNL     1      35.350 -21.191 -19.749  0.00  0.00    +0.134 C 
ENDROOT
BRANCH   1   8
ATOM      7  O   UNL     1      35.013 -15.950 -20.153  0.00  0.00    -0.275 OA
ATOM      8  N   UNL     1      34.800 -17.599 -21.824  0.00  0.00    -0.284 N 
ATOM      9  C   UNL     1      34.822 -16.295 -21.315  0.00  0.00    +0.227 C 
ATOM     10  C   UNL     1      34.579 -15.268 -22.394  0.00  0.00    +0.095 C 
ATOM     11  H   UNL     1      34.633 -17.682 -22.791  0.00  0.00    +0.155 HD
ENDBRANCH   1   8
BRANCH   6  12
ATOM     12  O   UNL     1      35.529 -22.360 -19.073  0.00  0.00    -0.506 OA
ATOM     13  H   UNL     1      35.139 -22.477 -18.229  0.00  0.00    +0.292 HD
ENDBRANCH   6  12
TORSDOF 2
ENDMDL
MODEL 5
REMARK VINA RESULT:      -6.5      2.080      4.958
REMARK  Name = 1983
REMARK  2 active torsions:
REMARK  status: ('A' for Active; 'I' for Inactive)
REMARK    1  A    between atoms: C_1  and  N_8
REMARK    2  A    between atoms: C_6  and  O_12
REMARK                            x       y       z     vdW  Elec       q    Type
REMARK                         _______ _______ _______ _____ _____    ______ ____
ROOT
ATOM      1  C   UNL     1      34.845 -19.165 -21.548  0.00  0.00    +0.050 C 
ATOM      2  C   UNL     1      34.923 -19.326 -22.932  0.00  0.00    +0.018 C 
ATOM      3  C   UNL     1      34.959 -17.893 -20.987  0.00  0.00    +0.018 C 
ATOM      4  C   UNL     1      35.115 -18.216 -23.754  0.00  0.00    +0.038 C 
ATOM      5  C   UNL     1      35.150 -16.783 -21.809  0.00  0.00    +0.038 C 
ATOM      6  C   UNL     1      35.228 -16.944 -23.192  0.00  0.00    +0.134 C 
ENDROOT
BRANCH   1   8
ATOM      7  O   UNL     1      32.381 -20.133 -20.114  0.00  0.00    -0.275 OA
ATOM      8  N   UNL     1      34.653 -20.276 -20.726  0.00  0.00    -0.284 N 
ATOM      9  C   UNL     1      33.479 -20.680 -20.079  0.00  0.00    +0.227 C 
ATOM     10  C   UNL     1      33.687 -21.942 -19.279  0.00  0.00    +0.095 C 
ATOM     11  H   UNL     1      35.443 -20.846 -20.583  0.00  0.00    +0.155 HD
ENDBRANCH   1   8
BRANCH   6  12
ATOM     12  O   UNL     1      35.413 -15.860 -23.995  0.00  0.00    -0.506 OA
ATOM     13  H   UNL     1      34.949 -15.064 -23.823  0.00  0.00    +0.292 HD
ENDBRANCH   6  12
TORSDOF 2
ENDMDL
MODEL 6
REMARK VINA RESULT:      -6.5      1.996      5.545
REMARK  Name = 1983
REMARK  2 active torsions:
REMARK  status: ('A' for Active; 'I' for Inactive)
REMARK    1  A    between atoms: C_1  and  N_8
REMARK    2  A    between atoms: C_6  and  O_12
REMARK                            x       y       z     vdW  Elec       q    Type
REMARK                         _______ _______ _______ _____ _____    ______ ____
ROOT
ATOM      1  C   UNL     1      35.091 -17.182 -21.459  0.00  0.00    +0.050 C 
ATOM      2  C   UNL     1      34.679 -16.114 -20.660  0.00  0.00    +0.018 C 
ATOM      3  C   UNL     1      35.213 -17.014 -22.838  0.00  0.00    +0.018 C 
ATOM      4  C   UNL     1      34.390 -14.880 -21.241  0.00  0.00    +0.038 C 
ATOM      5  C   UNL     1      34.925 -15.779 -23.419  0.00  0.00    +0.038 C 
ATOM      6  C   UNL     1      34.514 -14.712 -22.620  0.00  0.00    +0.134 C 
ENDROOT
BRANCH   1   8
ATOM      7  O   UNL     1      33.490 -19.730 -21.386  0.00  0.00    -0.275 OA
ATOM      8  N   UNL     1      35.380 -18.417 -20.878  0.00  0.00    -0.284 N 
ATOM      9  C   UNL     1      34.593 -19.575 -20.873  0.00  0.00    +0.227 C 
ATOM     10  C   UNL     1      35.265 -20.706 -20.133  0.00  0.00    +0.095 C 
ATOM     11  H   UNL     1      36.245 -18.482 -20.413  0.00  0.00    +0.155 HD
ENDBRANCH   1   8
BRANCH   6  12
ATOM     12  O   UNL     1      34.233 -13.506 -23.187  0.00  0.00    -0.506 OA
ATOM     13  H   UNL     1      33.393 -13.112 -23.056  0.00  0.00    +0.292 HD
ENDBRANCH   6  12
TORSDOF 2
ENDMDL
MODEL 7
REMARK VINA RESULT:      -6.5      1.987      5.598
REMARK  Name = 1983
REMARK  2 active torsions:
REMARK  status: ('A' for Active; 'I' for Inactive)
REMARK    1  A    between atoms: C_1  and  N_8
REMARK    2  A    between atoms: C_6  and  O_12
REMARK                            x       y       z     vdW  Elec       q    Type
REMARK                         _______ _______ _______ _____ _____    ______ ____
ROOT
ATOM      1  C   UNL     1      35.089 -17.174 -21.479  0.00  0.00    +0.050 C 
ATOM      2  C   UNL     1      35.205 -16.995 -22.858  0.00  0.00    +0.018 C 
ATOM      3  C   UNL     1      34.682 -16.112 -20.671  0.00  0.00    +0.018 C 
ATOM      4  C   UNL     1      34.913 -15.757 -23.429  0.00  0.00    +0.038 C 
ATOM      5  C   UNL     1      34.390 -14.873 -21.242  0.00  0.00    +0.038 C 
ATOM      6  C   UNL     1      34.505 -14.696 -22.620  0.00  0.00    +0.134 C 
ENDROOT
BRANCH   1   8
ATOM      7  O   UNL     1      33.433 -19.681 -21.299  0.00  0.00    -0.275 OA
ATOM      8  N   UNL     1      35.381 -18.413 -20.909  0.00  0.00    -0.284 N 
ATOM      9  C   UNL     1      34.568 -19.551 -20.851  0.00  0.00    +0.227 C 
ATOM     10  C   UNL     1      35.254 -20.694 -20.145  0.00  0.00    +0.095 C 
ATOM     11  H   UNL     1      36.270 -18.497 -20.494  0.00  0.00    +0.155 HD
ENDBRANCH   1   8
BRANCH   6  12
ATOM     12  O   UNL     1      34.219 -13.487 -23.178  0.00  0.00    -0.506 OA
ATOM     13  H   UNL     1      34.469 -13.308 -24.063  0.00  0.00    +0.292 HD
ENDBRANCH   6  12
TORSDOF 2
ENDMDL
MODEL 8
REMARK VINA RESULT:      -6.5      8.302      8.822
REMARK  Name = 1983
REMARK  2 active torsions:
REMARK  status: ('A' for Active; 'I' for Inactive)
REMARK    1  A    between atoms: C_1  and  N_8
REMARK    2  A    between atoms: C_6  and  O_12
REMARK                            x       y       z     vdW  Elec       q    Type
REMARK                         _______ _______ _______ _____ _____    ______ ____
ROOT
ATOM      1  C   UNL     1      29.157 -23.247 -15.324  0.00  0.00    +0.050 C 
ATOM      2  C   UNL     1      30.373 -22.645 -14.998  0.00  0.00    +0.018 C 
ATOM      3  C   UNL     1      28.990 -24.621 -15.147  0.00  0.00    +0.018 C 
ATOM      4  C   UNL     1      31.420 -23.415 -14.495  0.00  0.00    +0.038 C 
ATOM      5  C   UNL     1      30.038 -25.391 -14.644  0.00  0.00    +0.038 C 
ATOM      6  C   UNL     1      31.252 -24.788 -14.317  0.00  0.00    +0.134 C 
ENDROOT
BRANCH   1   8
ATOM      7  O   UNL     1      27.757 -23.355 -17.987  0.00  0.00    -0.275 OA
ATOM      8  N   UNL     1      28.109 -22.476 -15.829  0.00  0.00    -0.284 N 
ATOM      9  C   UNL     1      27.494 -22.569 -17.083  0.00  0.00    +0.227 C 
ATOM     10  C   UNL     1      26.393 -21.549 -17.243  0.00  0.00    +0.095 C 
ATOM     11  H   UNL     1      27.759 -21.780 -15.227  0.00  0.00    +0.155 HD
ENDBRANCH   1   8
BRANCH   6  12
ATOM     12  O   UNL     1      32.275 -25.540 -13.824  0.00  0.00    -0.506 OA
ATOM     13  H   UNL     1      33.148 -25.405 -14.135  0.00  0.00    +0.292 HD
ENDBRANCH   6  12
TORSDOF 2
ENDMDL
MODEL 9
REMARK VINA RESULT:      -6.4      2.084      4.985
REMARK  Name = 1983
REMARK  2 active torsions:
REMARK  status: ('A' for Active; 'I' for Inactive)
REMARK    1  A    between atoms: C_1  and  N_8
REMARK    2  A    between atoms: C_6  and  O_12
REMARK                            x       y       z     vdW  Elec       q    Type
REMARK                         _______ _______ _______ _____ _____    ______ ____
ROOT
ATOM      1  C   UNL     1      34.871 -19.059 -21.458  0.00  0.00    +0.050 C 
ATOM      2  C   UNL     1      34.940 -17.750 -20.979  0.00  0.00    +0.018 C 
ATOM      3  C   UNL     1      34.987 -19.307 -22.827  0.00  0.00    +0.018 C 
ATOM      4  C   UNL     1      35.125 -16.691 -21.866  0.00  0.00    +0.038 C 
ATOM      5  C   UNL     1      35.172 -18.247 -23.714  0.00  0.00    +0.038 C 
ATOM      6  C   UNL     1      35.241 -16.939 -23.234  0.00  0.00    +0.134 C 
ENDROOT
BRANCH   1   8
ATOM      7  O   UNL     1      32.359 -20.495 -20.625  0.00  0.00    -0.275 OA
ATOM      8  N   UNL     1      34.686 -20.119 -20.570  0.00  0.00    -0.284 N 
ATOM      9  C   UNL     1      33.488 -20.751 -20.216  0.00  0.00    +0.227 C 
ATOM     10  C   UNL     1      33.713 -21.860 -19.219  0.00  0.00    +0.095 C 
ATOM     11  H   UNL     1      35.500 -20.465 -20.138  0.00  0.00    +0.155 HD
ENDBRANCH   1   8
BRANCH   6  12
ATOM     12  O   UNL     1      35.423 -15.905 -24.100  0.00  0.00    -0.506 OA
ATOM     13  H   UNL     1      35.605 -16.076 -25.003  0.00  0.00    +0.292 HD
ENDBRANCH   6  12
TORSDOF 2
ENDMDL
