MODEL 1
REMARK VINA RESULT:     -10.1      0.000      0.000
REMARK  Name = 13373715
REMARK  1 active torsions:
REMARK  status: ('A' for Active; 'I' for Inactive)
REMARK    1  A    between atoms: C_6  and  C_16
REMARK                            x       y       z     vdW  Elec       q    Type
REMARK                         _______ _______ _______ _____ _____    ______ ____
ROOT
ATOM      1  N   UNL     1      32.114 -13.022 -22.526  0.00  0.00    -0.260 NA
ATOM      2  N   UNL     1      33.959 -12.221 -23.835  0.00  0.00    -0.260 NA
ATOM      3  N   UNL     1      32.371 -10.670 -22.923  0.00  0.00    -0.247 NA
ATOM      4  N   UNL     1      30.578 -11.483 -21.649  0.00  0.00    -0.282 N 
ATOM      5  N   UNL     1      34.183  -9.916 -24.206  0.00  0.00    -0.282 N 
ATOM      6  C   UNL     1      33.225 -13.177 -23.254  0.00  0.00    +0.163 C 
ATOM      7  C   UNL     1      31.744 -11.737 -22.403  0.00  0.00    +0.217 C 
ATOM      8  C   UNL     1      33.469 -10.988 -23.627  0.00  0.00    +0.217 C 
ATOM      9  H   UNL     1      30.080 -12.230 -21.245  0.00  0.00    +0.156 HD
ATOM     10  H   UNL     1      30.263 -10.558 -21.526  0.00  0.00    +0.156 HD
ATOM     11  H   UNL     1      34.996 -10.094 -24.733  0.00  0.00    +0.156 HD
ATOM     12  H   UNL     1      33.868  -8.992 -24.085  0.00  0.00    +0.156 HD
ENDROOT
BRANCH   6  16
ATOM     13 BR   UNL     1      32.976 -14.323 -26.229  0.00  0.00    -0.048 Br
ATOM     14  C   UNL     1      34.659 -16.531 -22.425  0.00  0.00    +0.001 C 
ATOM     15  C   UNL     1      34.614 -17.180 -23.682  0.00  0.00    +0.001 C 
ATOM     16  C   UNL     1      33.691 -14.540 -23.433  0.00  0.00    +0.093 C 
ATOM     17  C   UNL     1      34.193 -15.210 -22.318  0.00  0.00    +0.013 C 
ATOM     18  C   UNL     1      34.105 -16.490 -24.794  0.00  0.00    +0.007 C 
ATOM     19  C   UNL     1      33.647 -15.178 -24.669  0.00  0.00    +0.046 C 
ATOM     20  C   UNL     1      35.168 -17.221 -21.313  0.00  0.00    +0.000 C 
ATOM     21  C   UNL     1      35.080 -18.500 -23.790  0.00  0.00    +0.000 C 
ATOM     22  C   UNL     1      35.626 -18.534 -21.438  0.00  0.00    +0.000 C 
ATOM     23  C   UNL     1      35.582 -19.171 -22.674  0.00  0.00    +0.000 C 
ENDBRANCH   6  16
TORSDOF 1
ENDMDL
MODEL 2
REMARK VINA RESULT:     -10.0      0.154      1.864
REMARK  Name = 13373715
REMARK  1 active torsions:
REMARK  status: ('A' for Active; 'I' for Inactive)
REMARK    1  A    between atoms: C_6  and  C_16
REMARK                            x       y       z     vdW  Elec       q    Type
REMARK                         _______ _______ _______ _____ _____    ______ ____
ROOT
ATOM      1  N   UNL     1      34.058 -12.314 -23.915  0.00  0.00    -0.260 NA
ATOM      2  N   UNL     1      32.214 -13.044 -22.564  0.00  0.00    -0.260 NA
ATOM      3  N   UNL     1      32.494 -10.711 -23.053  0.00  0.00    -0.247 NA
ATOM      4  N   UNL     1      34.306 -10.028 -24.375  0.00  0.00    -0.282 N 
ATOM      5  N   UNL     1      30.702 -11.454 -21.735  0.00  0.00    -0.282 N 
ATOM      6  C   UNL     1      33.319 -13.238 -23.292  0.00  0.00    +0.163 C 
ATOM      7  C   UNL     1      33.584 -11.068 -23.750  0.00  0.00    +0.217 C 
ATOM      8  C   UNL     1      31.860 -11.751 -22.487  0.00  0.00    +0.217 C 
ATOM      9  H   UNL     1      35.113 -10.235 -24.899  0.00  0.00    +0.156 HD
ATOM     10  H   UNL     1      34.002  -9.095 -24.287  0.00  0.00    +0.156 HD
ATOM     11  H   UNL     1      30.200 -12.179 -21.299  0.00  0.00    +0.156 HD
ATOM     12  H   UNL     1      30.398 -10.522 -21.646  0.00  0.00    +0.156 HD
ENDROOT
BRANCH   6  16
ATOM     13 BR   UNL     1      33.039 -14.491 -26.221  0.00  0.00    -0.048 Br
ATOM     14  C   UNL     1      34.716 -16.577 -22.347  0.00  0.00    +0.001 C 
ATOM     15  C   UNL     1      34.657 -17.272 -23.578  0.00  0.00    +0.001 C 
ATOM     16  C   UNL     1      33.766 -14.613 -23.423  0.00  0.00    +0.093 C 
ATOM     17  C   UNL     1      34.267 -15.248 -22.286  0.00  0.00    +0.013 C 
ATOM     18  C   UNL     1      34.150 -16.616 -24.712  0.00  0.00    +0.007 C 
ATOM     19  C   UNL     1      33.708 -15.295 -24.634  0.00  0.00    +0.046 C 
ATOM     20  C   UNL     1      35.223 -17.232 -21.212  0.00  0.00    +0.000 C 
ATOM     21  C   UNL     1      35.106 -18.601 -23.640  0.00  0.00    +0.000 C 
ATOM     22  C   UNL     1      35.664 -18.553 -21.291  0.00  0.00    +0.000 C 
ATOM     23  C   UNL     1      35.606 -19.236 -22.503  0.00  0.00    +0.000 C 
ENDBRANCH   6  16
TORSDOF 1
ENDMDL
MODEL 3
REMARK VINA RESULT:      -9.9     10.441     12.884
REMARK  Name = 13373715
REMARK  1 active torsions:
REMARK  status: ('A' for Active; 'I' for Inactive)
REMARK    1  A    between atoms: C_6  and  C_16
REMARK                            x       y       z     vdW  Elec       q    Type
REMARK                         _______ _______ _______ _____ _____    ______ ____
ROOT
ATOM      1  N   UNL     1      36.706 -23.005 -13.457  0.00  0.00    -0.260 NA
ATOM      2  N   UNL     1      37.853 -24.564 -14.876  0.00  0.00    -0.260 NA
ATOM      3  N   UNL     1      38.442 -24.394 -12.556  0.00  0.00    -0.247 NA
ATOM      4  N   UNL     1      37.304 -22.861 -11.194  0.00  0.00    -0.282 N 
ATOM      5  N   UNL     1      39.547 -25.907 -13.967  0.00  0.00    -0.282 N 
ATOM      6  C   UNL     1      36.949 -23.610 -14.625  0.00  0.00    +0.163 C 
ATOM      7  C   UNL     1      37.493 -23.448 -12.465  0.00  0.00    +0.217 C 
ATOM      8  C   UNL     1      38.566 -24.906 -13.791  0.00  0.00    +0.217 C 
ATOM      9  H   UNL     1      36.621 -22.163 -11.073  0.00  0.00    +0.156 HD
ATOM     10  H   UNL     1      37.854 -23.150 -10.431  0.00  0.00    +0.156 HD
ATOM     11  H   UNL     1      39.679 -26.315 -14.852  0.00  0.00    +0.156 HD
ATOM     12  H   UNL     1      40.097 -26.195 -13.204  0.00  0.00    +0.156 HD
ENDROOT
BRANCH   6  16
ATOM     13 BR   UNL     1      33.874 -24.479 -14.492  0.00  0.00    -0.048 Br
ATOM     14  C   UNL     1      36.024 -22.012 -17.879  0.00  0.00    +0.001 C 
ATOM     15  C   UNL     1      34.645 -22.319 -17.967  0.00  0.00    +0.001 C 
ATOM     16  C   UNL     1      36.136 -23.185 -15.750  0.00  0.00    +0.093 C 
ATOM     17  C   UNL     1      36.756 -22.453 -16.763  0.00  0.00    +0.013 C 
ATOM     18  C   UNL     1      34.039 -23.057 -16.937  0.00  0.00    +0.007 C 
ATOM     19  C   UNL     1      34.781 -23.487 -15.836  0.00  0.00    +0.046 C 
ATOM     20  C   UNL     1      36.631 -21.274 -18.908  0.00  0.00    +0.000 C 
ATOM     21  C   UNL     1      33.914 -21.878 -19.081  0.00  0.00    +0.000 C 
ATOM     22  C   UNL     1      35.889 -20.845 -20.009  0.00  0.00    +0.000 C 
ATOM     23  C   UNL     1      34.533 -21.146 -20.094  0.00  0.00    +0.000 C 
ENDBRANCH   6  16
TORSDOF 1
ENDMDL
MODEL 4
REMARK VINA RESULT:      -9.9     10.465     12.970
REMARK  Name = 13373715
REMARK  1 active torsions:
REMARK  status: ('A' for Active; 'I' for Inactive)
REMARK    1  A    between atoms: C_6  and  C_16
REMARK                            x       y       z     vdW  Elec       q    Type
REMARK                         _______ _______ _______ _____ _____    ______ ____
ROOT
ATOM      1  N   UNL     1      37.785 -24.624 -14.863  0.00  0.00    -0.260 NA
ATOM      2  N   UNL     1      36.693 -23.019 -13.451  0.00  0.00    -0.260 NA
ATOM      3  N   UNL     1      38.412 -24.433 -12.554  0.00  0.00    -0.247 NA
ATOM      4  N   UNL     1      39.461 -25.992 -13.957  0.00  0.00    -0.282 N 
ATOM      5  N   UNL     1      37.327 -22.856 -11.200  0.00  0.00    -0.282 N 
ATOM      6  C   UNL     1      36.905 -23.648 -14.613  0.00  0.00    +0.163 C 
ATOM      7  C   UNL     1      38.506 -24.966 -13.783  0.00  0.00    +0.217 C 
ATOM      8  C   UNL     1      37.485 -23.466 -12.464  0.00  0.00    +0.217 C 
ATOM      9  H   UNL     1      39.570 -26.417 -14.839  0.00  0.00    +0.156 HD
ATOM     10  H   UNL     1      40.017 -26.281 -13.198  0.00  0.00    +0.156 HD
ATOM     11  H   UNL     1      36.661 -22.141 -11.078  0.00  0.00    +0.156 HD
ATOM     12  H   UNL     1      37.882 -23.146 -10.441  0.00  0.00    +0.156 HD
ENDROOT
BRANCH   6  16
ATOM     13 BR   UNL     1      33.837 -24.542 -14.479  0.00  0.00    -0.048 Br
ATOM     14  C   UNL     1      35.959 -22.032 -17.852  0.00  0.00    +0.001 C 
ATOM     15  C   UNL     1      34.583 -22.349 -17.939  0.00  0.00    +0.001 C 
ATOM     16  C   UNL     1      36.086 -23.220 -15.732  0.00  0.00    +0.093 C 
ATOM     17  C   UNL     1      36.697 -22.475 -16.741  0.00  0.00    +0.013 C 
ATOM     18  C   UNL     1      33.985 -23.099 -16.913  0.00  0.00    +0.007 C 
ATOM     19  C   UNL     1      34.733 -23.532 -15.818  0.00  0.00    +0.046 C 
ATOM     20  C   UNL     1      36.558 -21.281 -18.876  0.00  0.00    +0.000 C 
ATOM     21  C   UNL     1      33.845 -21.905 -19.048  0.00  0.00    +0.000 C 
ATOM     22  C   UNL     1      35.809 -20.850 -19.972  0.00  0.00    +0.000 C 
ATOM     23  C   UNL     1      34.456 -21.160 -20.057  0.00  0.00    +0.000 C 
ENDBRANCH   6  16
TORSDOF 1
ENDMDL
MODEL 5
REMARK VINA RESULT:      -9.7      9.708     12.163
REMARK  Name = 13373715
REMARK  1 active torsions:
REMARK  status: ('A' for Active; 'I' for Inactive)
REMARK    1  A    between atoms: C_6  and  C_16
REMARK                            x       y       z     vdW  Elec       q    Type
REMARK                         _______ _______ _______ _____ _____    ______ ____
ROOT
ATOM      1  N   UNL     1      35.387 -23.074 -14.465  0.00  0.00    -0.260 NA
ATOM      2  N   UNL     1      35.555 -25.069 -15.790  0.00  0.00    -0.260 NA
ATOM      3  N   UNL     1      36.237 -25.095 -13.489  0.00  0.00    -0.247 NA
ATOM      4  N   UNL     1      36.062 -23.130 -12.220  0.00  0.00    -0.282 N 
ATOM      5  N   UNL     1      36.390 -27.028 -14.808  0.00  0.00    -0.282 N 
ATOM      6  C   UNL     1      35.253 -23.780 -15.593  0.00  0.00    +0.163 C 
ATOM      7  C   UNL     1      35.887 -23.799 -13.452  0.00  0.00    +0.217 C 
ATOM      8  C   UNL     1      36.044 -25.664 -14.690  0.00  0.00    +0.217 C 
ATOM      9  H   UNL     1      35.821 -22.180 -12.138  0.00  0.00    +0.156 HD
ATOM     10  H   UNL     1      36.425 -23.615 -11.444  0.00  0.00    +0.156 HD
ATOM     11  H   UNL     1      36.269 -27.493 -15.667  0.00  0.00    +0.156 HD
ATOM     12  H   UNL     1      36.754 -27.512 -14.033  0.00  0.00    +0.156 HD
ENDROOT
BRANCH   6  16
ATOM     13 BR   UNL     1      32.069 -23.859 -15.881  0.00  0.00    -0.048 Br
ATOM     14  C   UNL     1      35.162 -21.716 -18.712  0.00  0.00    +0.001 C 
ATOM     15  C   UNL     1      33.774 -21.658 -18.977  0.00  0.00    +0.001 C 
ATOM     16  C   UNL     1      34.717 -23.066 -16.737  0.00  0.00    +0.093 C 
ATOM     17  C   UNL     1      35.618 -22.424 -17.587  0.00  0.00    +0.013 C 
ATOM     18  C   UNL     1      32.882 -22.310 -18.110  0.00  0.00    +0.007 C 
ATOM     19  C   UNL     1      33.352 -23.009 -16.997  0.00  0.00    +0.046 C 
ATOM     20  C   UNL     1      36.056 -21.064 -19.578  0.00  0.00    +0.000 C 
ATOM     21  C   UNL     1      33.318 -20.950 -20.100  0.00  0.00    +0.000 C 
ATOM     22  C   UNL     1      35.585 -20.366 -20.691  0.00  0.00    +0.000 C 
ATOM     23  C   UNL     1      34.219 -20.308 -20.951  0.00  0.00    +0.000 C 
ENDBRANCH   6  16
TORSDOF 1
ENDMDL
MODEL 6
REMARK VINA RESULT:      -9.7      4.288      6.850
REMARK  Name = 13373715
REMARK  1 active torsions:
REMARK  status: ('A' for Active; 'I' for Inactive)
REMARK    1  A    between atoms: C_6  and  C_16
REMARK                            x       y       z     vdW  Elec       q    Type
REMARK                         _______ _______ _______ _____ _____    ______ ____
ROOT
ATOM      1  N   UNL     1      35.596 -18.262 -20.991  0.00  0.00    -0.260 NA
ATOM      2  N   UNL     1      33.303 -18.967 -21.041  0.00  0.00    -0.260 NA
ATOM      3  N   UNL     1      34.997 -20.451 -20.212  0.00  0.00    -0.247 NA
ATOM      4  N   UNL     1      37.230 -19.734 -20.176  0.00  0.00    -0.282 N 
ATOM      5  N   UNL     1      32.748 -21.113 -20.274  0.00  0.00    -0.282 N 
ATOM      6  C   UNL     1      34.294 -18.092 -21.245  0.00  0.00    +0.163 C 
ATOM      7  C   UNL     1      35.875 -19.470 -20.474  0.00  0.00    +0.217 C 
ATOM      8  C   UNL     1      33.731 -20.129 -20.521  0.00  0.00    +0.217 C 
ATOM      9  H   UNL     1      37.914 -19.048 -20.349  0.00  0.00    +0.156 HD
ATOM     10  H   UNL     1      37.489 -20.604 -19.795  0.00  0.00    +0.156 HD
ATOM     11  H   UNL     1      31.804 -20.928 -20.483  0.00  0.00    +0.156 HD
ATOM     12  H   UNL     1      33.007 -21.982 -19.894  0.00  0.00    +0.156 HD
ENDROOT
BRANCH   6  16
ATOM     13 BR   UNL     1      34.894 -17.734 -24.366  0.00  0.00    -0.048 Br
ATOM     14  C   UNL     1      32.938 -14.611 -21.434  0.00  0.00    +0.001 C 
ATOM     15  C   UNL     1      33.138 -14.299 -22.800  0.00  0.00    +0.001 C 
ATOM     16  C   UNL     1      33.912 -16.810 -21.805  0.00  0.00    +0.093 C 
ATOM     17  C   UNL     1      33.330 -15.871 -20.952  0.00  0.00    +0.013 C 
ATOM     18  C   UNL     1      33.725 -15.256 -23.643  0.00  0.00    +0.007 C 
ATOM     19  C   UNL     1      34.109 -16.503 -23.148  0.00  0.00    +0.046 C 
ATOM     20  C   UNL     1      32.351 -13.655 -20.589  0.00  0.00    +0.000 C 
ATOM     21  C   UNL     1      32.747 -13.040 -23.281  0.00  0.00    +0.000 C 
ATOM     22  C   UNL     1      31.969 -12.407 -21.085  0.00  0.00    +0.000 C 
ATOM     23  C   UNL     1      32.165 -12.101 -22.428  0.00  0.00    +0.000 C 
ENDBRANCH   6  16
TORSDOF 1
ENDMDL
MODEL 7
REMARK VINA RESULT:      -9.4     12.595     14.380
REMARK  Name = 13373715
REMARK  1 active torsions:
REMARK  status: ('A' for Active; 'I' for Inactive)
REMARK    1  A    between atoms: C_6  and  C_16
REMARK                            x       y       z     vdW  Elec       q    Type
REMARK                         _______ _______ _______ _____ _____    ______ ____
ROOT
ATOM      1  N   UNL     1      36.087 -25.361 -13.985  0.00  0.00    -0.260 NA
ATOM      2  N   UNL     1      35.396 -23.775 -12.322  0.00  0.00    -0.260 NA
ATOM      3  N   UNL     1      37.418 -25.029 -12.017  0.00  0.00    -0.247 NA
ATOM      4  N   UNL     1      38.068 -26.573 -13.658  0.00  0.00    -0.282 N 
ATOM      5  N   UNL     1      36.717 -23.473 -10.409  0.00  0.00    -0.282 N 
ATOM      6  C   UNL     1      35.264 -24.437 -13.477  0.00  0.00    +0.163 C 
ATOM      7  C   UNL     1      37.146 -25.607 -13.198  0.00  0.00    +0.217 C 
ATOM      8  C   UNL     1      36.499 -24.124 -11.643  0.00  0.00    +0.217 C 
ATOM      9  H   UNL     1      37.916 -27.026 -14.518  0.00  0.00    +0.156 HD
ATOM     10  H   UNL     1      38.863 -26.791 -13.120  0.00  0.00    +0.156 HD
ATOM     11  H   UNL     1      36.073 -22.801 -10.087  0.00  0.00    +0.156 HD
ATOM     12  H   UNL     1      37.510 -23.692  -9.870  0.00  0.00    +0.156 HD
ENDROOT
BRANCH   6  16
ATOM     13 BR   UNL     1      35.827 -22.665 -16.079  0.00  0.00    -0.048 Br
ATOM     14  C   UNL     1      31.686 -24.318 -14.564  0.00  0.00    +0.001 C 
ATOM     15  C   UNL     1      31.771 -23.542 -15.744  0.00  0.00    +0.001 C 
ATOM     16  C   UNL     1      34.093 -24.115 -14.272  0.00  0.00    +0.093 C 
ATOM     17  C   UNL     1      32.857 -24.596 -13.839  0.00  0.00    +0.013 C 
ATOM     18  C   UNL     1      33.024 -23.066 -16.164  0.00  0.00    +0.007 C 
ATOM     19  C   UNL     1      34.177 -23.351 -15.432  0.00  0.00    +0.046 C 
ATOM     20  C   UNL     1      30.434 -24.795 -14.143  0.00  0.00    +0.000 C 
ATOM     21  C   UNL     1      30.601 -23.264 -16.468  0.00  0.00    +0.000 C 
ATOM     22  C   UNL     1      29.281 -24.508 -14.875  0.00  0.00    +0.000 C 
ATOM     23  C   UNL     1      29.365 -23.746 -16.036  0.00  0.00    +0.000 C 
ENDBRANCH   6  16
TORSDOF 1
ENDMDL
MODEL 8
REMARK VINA RESULT:      -9.4     12.567     14.305
REMARK  Name = 13373715
REMARK  1 active torsions:
REMARK  status: ('A' for Active; 'I' for Inactive)
REMARK    1  A    between atoms: C_6  and  C_16
REMARK                            x       y       z     vdW  Elec       q    Type
REMARK                         _______ _______ _______ _____ _____    ______ ____
ROOT
ATOM      1  N   UNL     1      35.451 -23.825 -12.399  0.00  0.00    -0.260 NA
ATOM      2  N   UNL     1      36.123 -25.381 -14.099  0.00  0.00    -0.260 NA
ATOM      3  N   UNL     1      37.472 -25.090 -12.136  0.00  0.00    -0.247 NA
ATOM      4  N   UNL     1      36.790 -23.562 -10.493  0.00  0.00    -0.282 N 
ATOM      5  N   UNL     1      38.104 -26.603 -13.813  0.00  0.00    -0.282 N 
ATOM      6  C   UNL     1      35.307 -24.464 -13.566  0.00  0.00    +0.163 C 
ATOM      7  C   UNL     1      36.560 -24.190 -11.737  0.00  0.00    +0.217 C 
ATOM      8  C   UNL     1      37.189 -25.644 -13.326  0.00  0.00    +0.217 C 
ATOM      9  H   UNL     1      36.152 -22.894 -10.153  0.00  0.00    +0.156 HD
ATOM     10  H   UNL     1      37.589 -23.793  -9.965  0.00  0.00    +0.156 HD
ATOM     11  H   UNL     1      37.944 -27.039 -14.681  0.00  0.00    +0.156 HD
ATOM     12  H   UNL     1      38.903 -26.833 -13.287  0.00  0.00    +0.156 HD
ENDROOT
BRANCH   6  16
ATOM     13 BR   UNL     1      35.857 -22.695 -16.173  0.00  0.00    -0.048 Br
ATOM     14  C   UNL     1      31.716 -24.296 -14.601  0.00  0.00    +0.001 C 
ATOM     15  C   UNL     1      31.794 -23.519 -15.781  0.00  0.00    +0.001 C 
ATOM     16  C   UNL     1      34.130 -24.125 -14.343  0.00  0.00    +0.093 C 
ATOM     17  C   UNL     1      32.894 -24.590 -13.893  0.00  0.00    +0.013 C 
ATOM     18  C   UNL     1      33.047 -23.059 -16.218  0.00  0.00    +0.007 C 
ATOM     19  C   UNL     1      34.207 -23.360 -15.503  0.00  0.00    +0.046 C 
ATOM     20  C   UNL     1      30.464 -24.757 -14.162  0.00  0.00    +0.000 C 
ATOM     21  C   UNL     1      30.618 -23.224 -16.488  0.00  0.00    +0.000 C 
ATOM     22  C   UNL     1      29.305 -24.453 -14.878  0.00  0.00    +0.000 C 
ATOM     23  C   UNL     1      29.382 -23.690 -16.038  0.00  0.00    +0.000 C 
ENDBRANCH   6  16
TORSDOF 1
ENDMDL
MODEL 9
REMARK VINA RESULT:      -9.2      9.844     11.933
REMARK  Name = 13373715
REMARK  1 active torsions:
REMARK  status: ('A' for Active; 'I' for Inactive)
REMARK    1  A    between atoms: C_6  and  C_16
REMARK                            x       y       z     vdW  Elec       q    Type
REMARK                         _______ _______ _______ _____ _____    ______ ____
ROOT
ATOM      1  N   UNL     1      30.162 -22.750 -16.816  0.00  0.00    -0.260 NA
ATOM      2  N   UNL     1      30.896 -24.626 -15.512  0.00  0.00    -0.260 NA
ATOM      3  N   UNL     1      28.551 -24.196 -15.781  0.00  0.00    -0.247 NA
ATOM      4  N   UNL     1      27.863 -22.354 -17.060  0.00  0.00    -0.282 N 
ATOM      5  N   UNL     1      29.298 -26.021 -14.512  0.00  0.00    -0.282 N 
ATOM      6  C   UNL     1      31.092 -23.544 -16.273  0.00  0.00    +0.163 C 
ATOM      7  C   UNL     1      28.910 -23.138 -16.526  0.00  0.00    +0.217 C 
ATOM      8  C   UNL     1      29.596 -24.893 -15.307  0.00  0.00    +0.217 C 
ATOM      9  H   UNL     1      28.072 -21.568 -17.614  0.00  0.00    +0.156 HD
ATOM     10  H   UNL     1      26.926 -22.595 -16.879  0.00  0.00    +0.156 HD
ATOM     11  H   UNL     1      30.028 -26.567 -14.140  0.00  0.00    +0.156 HD
ATOM     12  H   UNL     1      28.361 -26.261 -14.331  0.00  0.00    +0.156 HD
ENDROOT
BRANCH   6  16
ATOM     13 BR   UNL     1      33.110 -23.976 -13.830  0.00  0.00    -0.048 Br
ATOM     14  C   UNL     1      34.108 -22.344 -18.133  0.00  0.00    +0.001 C 
ATOM     15  C   UNL     1      35.120 -22.478 -17.153  0.00  0.00    +0.001 C 
ATOM     16  C   UNL     1      32.473 -23.189 -16.541  0.00  0.00    +0.093 C 
ATOM     17  C   UNL     1      32.789 -22.704 -17.810  0.00  0.00    +0.013 C 
ATOM     18  C   UNL     1      34.784 -22.968 -15.881  0.00  0.00    +0.007 C 
ATOM     19  C   UNL     1      33.469 -23.321 -15.578  0.00  0.00    +0.046 C 
ATOM     20  C   UNL     1      34.443 -21.854 -19.405  0.00  0.00    +0.000 C 
ATOM     21  C   UNL     1      36.439 -22.118 -17.475  0.00  0.00    +0.000 C 
ATOM     22  C   UNL     1      35.759 -21.500 -19.707  0.00  0.00    +0.000 C 
ATOM     23  C   UNL     1      36.754 -21.633 -18.745  0.00  0.00    +0.000 C 
ENDBRANCH   6  16
TORSDOF 1
ENDMDL
