MODEL 1
REMARK VINA RESULT:     -11.2      0.000      0.000
REMARK  Name = 449412
REMARK  8 active torsions:
REMARK  status: ('A' for Active; 'I' for Inactive)
REMARK    1  A    between atoms: C_1  and  C_2
REMARK    2  A    between atoms: C_1  and  N_9
REMARK    3  A    between atoms: C_1  and  C_20
REMARK    4  A    between atoms: C_10  and  O_12
REMARK    5  A    between atoms: O_12  and  C_13
REMARK    6  A    between atoms: C_13  and  C_14
REMARK    7  A    between atoms: C_20  and  C_26
REMARK    8  A    between atoms: C_28  and  S_30
REMARK                            x       y       z     vdW  Elec       q    Type
REMARK                         _______ _______ _______ _____ _____    ______ ____
ROOT
ATOM      1  C   UNL     1      33.560 -13.992 -22.795  0.00  0.00    +0.106 C 
ENDROOT
BRANCH   1   2
ATOM      2  C   UNL     1      33.500 -13.749 -24.289  0.00  0.00    -0.004 C 
ATOM      3  C   UNL     1      33.738 -12.472 -24.798  0.00  0.00    -0.003 C 
ATOM      4  C   UNL     1      33.207 -14.801 -25.156  0.00  0.00    -0.003 C 
ATOM      5  C   UNL     1      33.683 -12.247 -26.173  0.00  0.00    -0.000 C 
ATOM      6  C   UNL     1      33.152 -14.576 -26.532  0.00  0.00    -0.000 C 
ATOM      7  C   UNL     1      33.391 -13.299 -27.040  0.00  0.00    -0.000 C 
ENDBRANCH   1   2
BRANCH   1   9
ATOM      8  O   UNL     1      34.840 -14.874 -20.341  0.00  0.00    -0.226 OA
ATOM      9  N   UNL     1      34.135 -15.289 -22.512  0.00  0.00    -0.268 N 
ATOM     10  C   UNL     1      34.725 -15.617 -21.310  0.00  0.00    +0.402 C 
ATOM     11  H   UNL     1      34.103 -15.976 -23.216  0.00  0.00    +0.153 HD
BRANCH  10  12
ATOM     12  O   UNL     1      35.168 -16.909 -21.354  0.00  0.00    -0.430 OA
BRANCH  12  13
ATOM     13  C   UNL     1      34.248 -17.867 -21.888  0.00  0.00    +0.237 C 
BRANCH  13  14
ATOM     14  C   UNL     1      34.343 -19.134 -21.092  0.00  0.00    +0.021 C 
ATOM     15  C   UNL     1      33.183 -19.765 -20.643  0.00  0.00    -0.001 C 
ATOM     16  C   UNL     1      35.592 -19.683 -20.800  0.00  0.00    -0.001 C 
ATOM     17  C   UNL     1      33.271 -20.943 -19.902  0.00  0.00    -0.000 C 
ATOM     18  C   UNL     1      35.681 -20.861 -20.060  0.00  0.00    -0.000 C 
ATOM     19  C   UNL     1      34.520 -21.492 -19.610  0.00  0.00    -0.000 C 
ENDBRANCH  13  14
ENDBRANCH  12  13
ENDBRANCH  10  12
ENDBRANCH   1   9
BRANCH   1  20
ATOM     20  C   UNL     1      32.194 -13.850 -22.107  0.00  0.00    +0.110 C 
BRANCH  20  26
ATOM     21  S   UNL     1      31.876  -8.942 -23.046  0.00  0.00    -0.024 S 
ATOM     22  O   UNL     1      32.109 -12.554 -20.104  0.00  0.00    -0.275 OA
ATOM     23  N   UNL     1      32.021 -11.447 -22.181  0.00  0.00    -0.263 N 
ATOM     24  N   UNL     1      31.942  -9.609 -20.573  0.00  0.00    -0.125 NA
ATOM     25  N   UNL     1      31.869  -8.228 -20.584  0.00  0.00    -0.133 NA
ATOM     26  C   UNL     1      32.092 -12.544 -21.332  0.00  0.00    +0.230 C 
ATOM     27  C   UNL     1      31.953 -10.108 -21.791  0.00  0.00    +0.189 A 
ATOM     28  C   UNL     1      31.829  -7.751 -21.811  0.00  0.00    +0.157 A 
ATOM     29  H   UNL     1      32.018 -11.631 -23.148  0.00  0.00    +0.157 HD
BRANCH  28  30
ATOM     30  S   UNL     1      31.735  -6.040 -22.136  0.00  0.00    -0.114 S 
ATOM     31  H   UNL     1      31.473  -5.372 -20.980  0.00  0.00    +0.109 HD
ENDBRANCH  28  30
ENDBRANCH  20  26
ENDBRANCH   1  20
TORSDOF 8
ENDMDL
MODEL 2
REMARK VINA RESULT:     -10.7      8.912     13.250
REMARK  Name = 449412
REMARK  8 active torsions:
REMARK  status: ('A' for Active; 'I' for Inactive)
REMARK    1  A    between atoms: C_1  and  C_2
REMARK    2  A    between atoms: C_1  and  N_9
REMARK    3  A    between atoms: C_1  and  C_20
REMARK    4  A    between atoms: C_10  and  O_12
REMARK    5  A    between atoms: O_12  and  C_13
REMARK    6  A    between atoms: C_13  and  C_14
REMARK    7  A    between atoms: C_20  and  C_26
REMARK    8  A    between atoms: C_28  and  S_30
REMARK                            x       y       z     vdW  Elec       q    Type
REMARK                         _______ _______ _______ _____ _____    ______ ____
ROOT
ATOM      1  C   UNL     1      36.695 -23.741 -14.886  0.00  0.00    +0.106 C 
ENDROOT
BRANCH   1   2
ATOM      2  C   UNL     1      37.993 -24.475 -14.615  0.00  0.00    -0.004 C 
ATOM      3  C   UNL     1      38.152 -25.194 -13.430  0.00  0.00    -0.003 C 
ATOM      4  C   UNL     1      39.028 -24.432 -15.549  0.00  0.00    -0.003 C 
ATOM      5  C   UNL     1      39.346 -25.870 -13.179  0.00  0.00    -0.000 C 
ATOM      6  C   UNL     1      40.221 -25.109 -15.298  0.00  0.00    -0.000 C 
ATOM      7  C   UNL     1      40.380 -25.828 -14.113  0.00  0.00    -0.000 C 
ENDBRANCH   1   2
BRANCH   1   9
ATOM      8  O   UNL     1      34.934 -22.997 -17.073  0.00  0.00    -0.226 OA
ATOM      9  N   UNL     1      36.895 -22.699 -15.871  0.00  0.00    -0.268 N 
ATOM     10  C   UNL     1      35.998 -22.419 -16.878  0.00  0.00    +0.402 C 
ATOM     11  H   UNL     1      37.718 -22.161 -15.818  0.00  0.00    +0.153 HD
BRANCH  10  12
ATOM     12  O   UNL     1      36.470 -21.386 -17.638  0.00  0.00    -0.430 OA
BRANCH  12  13
ATOM     13  C   UNL     1      36.631 -21.661 -19.034  0.00  0.00    +0.237 C 
BRANCH  13  14
ATOM     14  C   UNL     1      35.700 -20.783 -19.817  0.00  0.00    +0.021 C 
ATOM     15  C   UNL     1      36.204 -19.708 -20.548  0.00  0.00    -0.001 C 
ATOM     16  C   UNL     1      34.329 -21.042 -19.814  0.00  0.00    -0.001 C 
ATOM     17  C   UNL     1      35.339 -18.892 -21.276  0.00  0.00    -0.000 C 
ATOM     18  C   UNL     1      33.463 -20.227 -20.541  0.00  0.00    -0.000 C 
ATOM     19  C   UNL     1      33.967 -19.151 -21.273  0.00  0.00    -0.000 C 
ENDBRANCH  13  14
ENDBRANCH  12  13
ENDBRANCH  10  12
ENDBRANCH   1   9
BRANCH   1  20
ATOM     20  C   UNL     1      36.055 -23.162 -13.616  0.00  0.00    +0.110 C 
BRANCH  20  26
ATOM     21  S   UNL     1      31.488 -23.280 -15.665  0.00  0.00    -0.024 S 
ATOM     22  O   UNL     1      34.527 -24.472 -12.333  0.00  0.00    -0.275 OA
ATOM     23  N   UNL     1      33.767 -23.453 -14.316  0.00  0.00    -0.263 N 
ATOM     24  N   UNL     1      31.768 -24.576 -13.473  0.00  0.00    -0.125 NA
ATOM     25  N   UNL     1      30.443 -24.740 -13.836  0.00  0.00    -0.133 NA
ATOM     26  C   UNL     1      34.697 -23.789 -13.340  0.00  0.00    +0.230 C 
ATOM     27  C   UNL     1      32.424 -23.836 -14.341  0.00  0.00    +0.189 A 
ATOM     28  C   UNL     1      30.165 -24.114 -14.961  0.00  0.00    +0.157 A 
ATOM     29  H   UNL     1      34.085 -22.892 -15.060  0.00  0.00    +0.157 HD
BRANCH  28  30
ATOM     30  S   UNL     1      28.568 -24.143 -15.664  0.00  0.00    -0.114 S 
ATOM     31  H   UNL     1      28.298 -25.394 -16.124  0.00  0.00    +0.109 HD
ENDBRANCH  28  30
ENDBRANCH  20  26
ENDBRANCH   1  20
TORSDOF 8
ENDMDL
MODEL 3
REMARK VINA RESULT:     -10.6      9.713     13.498
REMARK  Name = 449412
REMARK  8 active torsions:
REMARK  status: ('A' for Active; 'I' for Inactive)
REMARK    1  A    between atoms: C_1  and  C_2
REMARK    2  A    between atoms: C_1  and  N_9
REMARK    3  A    between atoms: C_1  and  C_20
REMARK    4  A    between atoms: C_10  and  O_12
REMARK    5  A    between atoms: O_12  and  C_13
REMARK    6  A    between atoms: C_13  and  C_14
REMARK    7  A    between atoms: C_20  and  C_26
REMARK    8  A    between atoms: C_28  and  S_30
REMARK                            x       y       z     vdW  Elec       q    Type
REMARK                         _______ _______ _______ _____ _____    ______ ____
ROOT
ATOM      1  C   UNL     1      32.432 -23.601 -14.999  0.00  0.00    +0.106 C 
ENDROOT
BRANCH   1   2
ATOM      2  C   UNL     1      30.947 -23.593 -15.305  0.00  0.00    -0.004 C 
ATOM      3  C   UNL     1      30.424 -22.651 -16.190  0.00  0.00    -0.003 C 
ATOM      4  C   UNL     1      30.105 -24.526 -14.701  0.00  0.00    -0.003 C 
ATOM      5  C   UNL     1      29.058 -22.642 -16.471  0.00  0.00    -0.000 C 
ATOM      6  C   UNL     1      28.740 -24.518 -14.984  0.00  0.00    -0.000 C 
ATOM      7  C   UNL     1      28.216 -23.576 -15.869  0.00  0.00    -0.000 C 
ENDBRANCH   1   2
BRANCH   1   9
ATOM      8  O   UNL     1      35.030 -22.367 -15.403  0.00  0.00    -0.226 OA
ATOM      9  N   UNL     1      33.205 -23.542 -16.222  0.00  0.00    -0.268 N 
ATOM     10  C   UNL     1      34.435 -22.929 -16.317  0.00  0.00    +0.402 C 
ATOM     11  H   UNL     1      32.830 -23.961 -17.030  0.00  0.00    +0.153 HD
BRANCH  10  12
ATOM     12  O   UNL     1      34.906 -23.043 -17.595  0.00  0.00    -0.430 OA
BRANCH  12  13
ATOM     13  C   UNL     1      33.921 -22.970 -18.632  0.00  0.00    +0.237 C 
BRANCH  13  14
ATOM     14  C   UNL     1      34.168 -21.741 -19.456  0.00  0.00    +0.021 C 
ATOM     15  C   UNL     1      35.471 -21.376 -19.792  0.00  0.00    -0.001 C 
ATOM     16  C   UNL     1      33.093 -20.963 -19.886  0.00  0.00    -0.001 C 
ATOM     17  C   UNL     1      35.700 -20.233 -20.558  0.00  0.00    -0.000 C 
ATOM     18  C   UNL     1      33.321 -19.820 -20.653  0.00  0.00    -0.000 C 
ATOM     19  C   UNL     1      34.625 -19.455 -20.989  0.00  0.00    -0.000 C 
ENDBRANCH  13  14
ENDBRANCH  12  13
ENDBRANCH  10  12
ENDBRANCH   1   9
BRANCH   1  20
ATOM     20  C   UNL     1      32.864 -24.807 -14.151  0.00  0.00    +0.110 C 
BRANCH  20  26
ATOM     21  S   UNL     1      37.650 -26.061 -14.922  0.00  0.00    -0.024 S 
ATOM     22  O   UNL     1      34.307 -23.929 -12.465  0.00  0.00    -0.275 OA
ATOM     23  N   UNL     1      35.241 -25.200 -14.214  0.00  0.00    -0.263 N 
ATOM     24  N   UNL     1      37.182 -24.651 -12.834  0.00  0.00    -0.125 NA
ATOM     25  N   UNL     1      38.546 -24.882 -12.830  0.00  0.00    -0.133 NA
ATOM     26  C   UNL     1      34.222 -24.576 -13.505  0.00  0.00    +0.230 C 
ATOM     27  C   UNL     1      36.595 -25.211 -13.871  0.00  0.00    +0.189 A 
ATOM     28  C   UNL     1      38.921 -25.605 -13.864  0.00  0.00    +0.157 A 
ATOM     29  H   UNL     1      34.984 -25.678 -15.035  0.00  0.00    +0.157 HD
BRANCH  28  30
ATOM     30  S   UNL     1      40.587 -26.055 -14.122  0.00  0.00    -0.114 S 
ATOM     31  H   UNL     1      41.335 -24.935 -14.315  0.00  0.00    +0.109 HD
ENDBRANCH  28  30
ENDBRANCH  20  26
ENDBRANCH   1  20
TORSDOF 8
ENDMDL
MODEL 4
REMARK VINA RESULT:     -10.3      8.801     12.983
REMARK  Name = 449412
REMARK  8 active torsions:
REMARK  status: ('A' for Active; 'I' for Inactive)
REMARK    1  A    between atoms: C_1  and  C_2
REMARK    2  A    between atoms: C_1  and  N_9
REMARK    3  A    between atoms: C_1  and  C_20
REMARK    4  A    between atoms: C_10  and  O_12
REMARK    5  A    between atoms: O_12  and  C_13
REMARK    6  A    between atoms: C_13  and  C_14
REMARK    7  A    between atoms: C_20  and  C_26
REMARK    8  A    between atoms: C_28  and  S_30
REMARK                            x       y       z     vdW  Elec       q    Type
REMARK                         _______ _______ _______ _____ _____    ______ ____
ROOT
ATOM      1  C   UNL     1      35.730 -23.999 -14.842  0.00  0.00    +0.106 C 
ENDROOT
BRANCH   1   2
ATOM      2  C   UNL     1      37.044 -24.605 -14.391  0.00  0.00    -0.004 C 
ATOM      3  C   UNL     1      38.180 -24.480 -15.190  0.00  0.00    -0.003 C 
ATOM      4  C   UNL     1      37.117 -25.287 -13.176  0.00  0.00    -0.003 C 
ATOM      5  C   UNL     1      39.389 -25.038 -14.775  0.00  0.00    -0.000 C 
ATOM      6  C   UNL     1      38.327 -25.843 -12.761  0.00  0.00    -0.000 C 
ATOM      7  C   UNL     1      39.463 -25.719 -13.561  0.00  0.00    -0.000 C 
ENDBRANCH   1   2
BRANCH   1   9
ATOM      8  O   UNL     1      34.331 -23.586 -17.354  0.00  0.00    -0.226 OA
ATOM      9  N   UNL     1      35.958 -22.960 -15.823  0.00  0.00    -0.268 N 
ATOM     10  C   UNL     1      35.240 -22.844 -16.993  0.00  0.00    +0.402 C 
ATOM     11  H   UNL     1      36.666 -22.299 -15.645  0.00  0.00    +0.153 HD
BRANCH  10  12
ATOM     12  O   UNL     1      35.690 -21.767 -17.703  0.00  0.00    -0.430 OA
BRANCH  12  13
ATOM     13  C   UNL     1      35.861 -21.973 -19.110  0.00  0.00    +0.237 C 
BRANCH  13  14
ATOM     14  C   UNL     1      35.016 -20.985 -19.857  0.00  0.00    +0.021 C 
ATOM     15  C   UNL     1      33.626 -21.044 -19.763  0.00  0.00    -0.001 C 
ATOM     16  C   UNL     1      35.621 -20.005 -20.645  0.00  0.00    -0.001 C 
ATOM     17  C   UNL     1      32.840 -20.124 -20.458  0.00  0.00    -0.000 C 
ATOM     18  C   UNL     1      34.836 -19.085 -21.339  0.00  0.00    -0.000 C 
ATOM     19  C   UNL     1      33.445 -19.145 -21.246  0.00  0.00    -0.000 C 
ENDBRANCH  13  14
ENDBRANCH  12  13
ENDBRANCH  10  12
ENDBRANCH   1   9
BRANCH   1  20
ATOM     20  C   UNL     1      34.885 -23.461 -13.679  0.00  0.00    +0.110 C 
BRANCH  20  26
ATOM     21  S   UNL     1      30.788 -22.777 -16.474  0.00  0.00    -0.024 S 
ATOM     22  O   UNL     1      33.042 -24.771 -12.911  0.00  0.00    -0.275 OA
ATOM     23  N   UNL     1      32.752 -23.394 -14.800  0.00  0.00    -0.263 N 
ATOM     24  N   UNL     1      30.546 -24.405 -14.510  0.00  0.00    -0.125 NA
ATOM     25  N   UNL     1      29.304 -24.367 -15.118  0.00  0.00    -0.133 NA
ATOM     26  C   UNL     1      33.452 -23.970 -13.747  0.00  0.00    +0.230 C 
ATOM     27  C   UNL     1      31.411 -23.622 -15.118  0.00  0.00    +0.189 A 
ATOM     28  C   UNL     1      29.293 -23.557 -16.155  0.00  0.00    +0.157 A 
ATOM     29  H   UNL     1      33.248 -22.769 -15.375  0.00  0.00    +0.157 HD
BRANCH  28  30
ATOM     30  S   UNL     1      27.859 -23.307 -17.118  0.00  0.00    -0.114 S 
ATOM     31  H   UNL     1      26.831 -22.929 -16.312  0.00  0.00    +0.109 HD
ENDBRANCH  28  30
ENDBRANCH  20  26
ENDBRANCH   1  20
TORSDOF 8
ENDMDL
MODEL 5
REMARK VINA RESULT:     -10.0      7.920     12.543
REMARK  Name = 449412
REMARK  8 active torsions:
REMARK  status: ('A' for Active; 'I' for Inactive)
REMARK    1  A    between atoms: C_1  and  C_2
REMARK    2  A    between atoms: C_1  and  N_9
REMARK    3  A    between atoms: C_1  and  C_20
REMARK    4  A    between atoms: C_10  and  O_12
REMARK    5  A    between atoms: O_12  and  C_13
REMARK    6  A    between atoms: C_13  and  C_14
REMARK    7  A    between atoms: C_20  and  C_26
REMARK    8  A    between atoms: C_28  and  S_30
REMARK                            x       y       z     vdW  Elec       q    Type
REMARK                         _______ _______ _______ _____ _____    ______ ____
ROOT
ATOM      1  C   UNL     1      34.919 -23.215 -15.016  0.00  0.00    +0.106 C 
ENDROOT
BRANCH   1   2
ATOM      2  C   UNL     1      35.924 -23.930 -14.135  0.00  0.00    -0.004 C 
ATOM      3  C   UNL     1      36.416 -25.179 -14.512  0.00  0.00    -0.003 C 
ATOM      4  C   UNL     1      36.357 -23.339 -12.949  0.00  0.00    -0.003 C 
ATOM      5  C   UNL     1      37.341 -25.838 -13.703  0.00  0.00    -0.000 C 
ATOM      6  C   UNL     1      37.283 -23.997 -12.140  0.00  0.00    -0.000 C 
ATOM      7  C   UNL     1      37.775 -25.247 -12.517  0.00  0.00    -0.000 C 
ENDBRANCH   1   2
BRANCH   1   9
ATOM      8  O   UNL     1      33.008 -25.156 -14.007  0.00  0.00    -0.226 OA
ATOM      9  N   UNL     1      33.695 -22.958 -14.287  0.00  0.00    -0.268 N 
ATOM     10  C   UNL     1      32.846 -23.950 -13.847  0.00  0.00    +0.402 C 
ATOM     11  H   UNL     1      33.455 -22.023 -14.096  0.00  0.00    +0.153 HD
BRANCH  10  12
ATOM     12  O   UNL     1      31.784 -23.390 -13.196  0.00  0.00    -0.430 OA
BRANCH  12  13
ATOM     13  C   UNL     1      30.571 -24.152 -13.209  0.00  0.00    +0.237 C 
BRANCH  13  14
ATOM     14  C   UNL     1      29.846 -23.895 -14.496  0.00  0.00    +0.021 C 
ATOM     15  C   UNL     1      29.305 -24.959 -15.217  0.00  0.00    -0.001 C 
ATOM     16  C   UNL     1      29.711 -22.591 -14.973  0.00  0.00    -0.001 C 
ATOM     17  C   UNL     1      28.631 -24.721 -16.414  0.00  0.00    -0.000 C 
ATOM     18  C   UNL     1      29.037 -22.352 -16.170  0.00  0.00    -0.000 C 
ATOM     19  C   UNL     1      28.496 -23.417 -16.891  0.00  0.00    -0.000 C 
ENDBRANCH  13  14
ENDBRANCH  12  13
ENDBRANCH  10  12
ENDBRANCH   1   9
BRANCH   1  20
ATOM     20  C   UNL     1      34.618 -23.969 -16.319  0.00  0.00    +0.110 C 
BRANCH  20  26
ATOM     21  S   UNL     1      35.500 -20.867 -20.150  0.00  0.00    -0.024 S 
ATOM     22  O   UNL     1      32.606 -23.040 -17.208  0.00  0.00    -0.275 OA
ATOM     23  N   UNL     1      34.664 -22.444 -18.185  0.00  0.00    -0.263 N 
ATOM     24  N   UNL     1      33.043 -21.157 -19.484  0.00  0.00    -0.125 NA
ATOM     25  N   UNL     1      33.040 -20.260 -20.537  0.00  0.00    -0.133 NA
ATOM     26  C   UNL     1      33.829 -23.106 -17.294  0.00  0.00    +0.230 C 
ATOM     27  C   UNL     1      34.261 -21.552 -19.182  0.00  0.00    +0.189 A 
ATOM     28  C   UNL     1      34.258 -20.022 -20.978  0.00  0.00    +0.157 A 
ATOM     29  H   UNL     1      35.629 -22.620 -18.107  0.00  0.00    +0.157 HD
BRANCH  28  30
ATOM     30  S   UNL     1      34.565 -18.928 -22.302  0.00  0.00    -0.114 S 
ATOM     31  H   UNL     1      34.472 -17.645 -21.861  0.00  0.00    +0.109 HD
ENDBRANCH  28  30
ENDBRANCH  20  26
ENDBRANCH   1  20
TORSDOF 8
ENDMDL
MODEL 6
REMARK VINA RESULT:      -9.9      1.746      2.596
REMARK  Name = 449412
REMARK  8 active torsions:
REMARK  status: ('A' for Active; 'I' for Inactive)
REMARK    1  A    between atoms: C_1  and  C_2
REMARK    2  A    between atoms: C_1  and  N_9
REMARK    3  A    between atoms: C_1  and  C_20
REMARK    4  A    between atoms: C_10  and  O_12
REMARK    5  A    between atoms: O_12  and  C_13
REMARK    6  A    between atoms: C_13  and  C_14
REMARK    7  A    between atoms: C_20  and  C_26
REMARK    8  A    between atoms: C_28  and  S_30
REMARK                            x       y       z     vdW  Elec       q    Type
REMARK                         _______ _______ _______ _____ _____    ______ ____
ROOT
ATOM      1  C   UNL     1      32.935 -13.119 -22.389  0.00  0.00    +0.106 C 
ENDROOT
BRANCH   1   2
ATOM      2  C   UNL     1      33.165 -13.030 -23.884  0.00  0.00    -0.004 C 
ATOM      3  C   UNL     1      32.788 -14.087 -24.712  0.00  0.00    -0.003 C 
ATOM      4  C   UNL     1      33.753 -11.891 -24.433  0.00  0.00    -0.003 C 
ATOM      5  C   UNL     1      33.000 -14.006 -26.088  0.00  0.00    -0.000 C 
ATOM      6  C   UNL     1      33.964 -11.809 -25.809  0.00  0.00    -0.000 C 
ATOM      7  C   UNL     1      33.588 -12.867 -26.637  0.00  0.00    -0.000 C 
ENDBRANCH   1   2
BRANCH   1   9
ATOM      8  O   UNL     1      34.988 -14.241 -20.668  0.00  0.00    -0.226 OA
ATOM      9  N   UNL     1      33.060 -14.487 -21.934  0.00  0.00    -0.268 N 
ATOM     10  C   UNL     1      34.076 -14.929 -21.114  0.00  0.00    +0.402 C 
ATOM     11  H   UNL     1      32.383 -15.139 -22.227  0.00  0.00    +0.153 HD
BRANCH  10  12
ATOM     12  O   UNL     1      33.916 -16.263 -20.865  0.00  0.00    -0.430 OA
BRANCH  12  13
ATOM     13  C   UNL     1      35.045 -17.093 -21.160  0.00  0.00    +0.237 C 
BRANCH  13  14
ATOM     14  C   UNL     1      34.908 -17.628 -22.555  0.00  0.00    +0.021 C 
ATOM     15  C   UNL     1      34.947 -16.758 -23.643  0.00  0.00    -0.001 C 
ATOM     16  C   UNL     1      34.741 -18.998 -22.762  0.00  0.00    -0.001 C 
ATOM     17  C   UNL     1      34.819 -17.256 -24.940  0.00  0.00    -0.000 C 
ATOM     18  C   UNL     1      34.613 -19.496 -24.059  0.00  0.00    -0.000 C 
ATOM     19  C   UNL     1      34.652 -18.625 -25.148  0.00  0.00    -0.000 C 
ENDBRANCH  13  14
ENDBRANCH  12  13
ENDBRANCH  10  12
ENDBRANCH   1   9
BRANCH   1  20
ATOM     20  C   UNL     1      31.584 -12.532 -21.953  0.00  0.00    +0.110 C 
BRANCH  20  26
ATOM     21  S   UNL     1      31.208  -7.802 -23.554  0.00  0.00    -0.024 S 
ATOM     22  O   UNL     1      32.086 -10.956 -20.231  0.00  0.00    -0.275 OA
ATOM     23  N   UNL     1      31.487 -10.159 -22.365  0.00  0.00    -0.263 N 
ATOM     24  N   UNL     1      31.908  -8.106 -21.108  0.00  0.00    -0.125 NA
ATOM     25  N   UNL     1      31.885  -6.740 -21.322  0.00  0.00    -0.133 NA
ATOM     26  C   UNL     1      31.742 -11.123 -21.398  0.00  0.00    +0.230 C 
ATOM     27  C   UNL     1      31.575  -8.776 -22.190  0.00  0.00    +0.189 A 
ATOM     28  C   UNL     1      31.536  -6.445 -22.557  0.00  0.00    +0.157 A 
ATOM     29  H   UNL     1      31.218 -10.481 -23.255  0.00  0.00    +0.157 HD
BRANCH  28  30
ATOM     30  S   UNL     1      31.421  -4.797 -23.117  0.00  0.00    -0.114 S 
ATOM     31  H   UNL     1      30.741  -4.053 -22.203  0.00  0.00    +0.109 HD
ENDBRANCH  28  30
ENDBRANCH  20  26
ENDBRANCH   1  20
TORSDOF 8
ENDMDL
MODEL 7
REMARK VINA RESULT:      -9.7      8.677     11.562
REMARK  Name = 449412
REMARK  8 active torsions:
REMARK  status: ('A' for Active; 'I' for Inactive)
REMARK    1  A    between atoms: C_1  and  C_2
REMARK    2  A    between atoms: C_1  and  N_9
REMARK    3  A    between atoms: C_1  and  C_20
REMARK    4  A    between atoms: C_10  and  O_12
REMARK    5  A    between atoms: O_12  and  C_13
REMARK    6  A    between atoms: C_13  and  C_14
REMARK    7  A    between atoms: C_20  and  C_26
REMARK    8  A    between atoms: C_28  and  S_30
REMARK                            x       y       z     vdW  Elec       q    Type
REMARK                         _______ _______ _______ _____ _____    ______ ____
ROOT
ATOM      1  C   UNL     1      35.775 -21.762 -19.447  0.00  0.00    +0.106 C 
ENDROOT
BRANCH   1   2
ATOM      2  C   UNL     1      35.487 -20.506 -20.244  0.00  0.00    -0.004 C 
ATOM      3  C   UNL     1      34.170 -20.157 -20.544  0.00  0.00    -0.003 C 
ATOM      4  C   UNL     1      36.538 -19.698 -20.677  0.00  0.00    -0.003 C 
ATOM      5  C   UNL     1      33.905 -19.001 -21.278  0.00  0.00    -0.000 C 
ATOM      6  C   UNL     1      36.272 -18.542 -21.410  0.00  0.00    -0.000 C 
ATOM      7  C   UNL     1      34.956 -18.193 -21.710  0.00  0.00    -0.000 C 
ENDBRANCH   1   2
BRANCH   1   9
ATOM      8  O   UNL     1      33.905 -23.983 -19.534  0.00  0.00    -0.226 OA
ATOM      9  N   UNL     1      34.690 -22.045 -18.531  0.00  0.00    -0.268 N 
ATOM     10  C   UNL     1      33.850 -23.130 -18.655  0.00  0.00    +0.402 C 
ATOM     11  H   UNL     1      34.545 -21.428 -17.778  0.00  0.00    +0.153 HD
BRANCH  10  12
ATOM     12  O   UNL     1      32.934 -23.119 -17.640  0.00  0.00    -0.430 OA
BRANCH  12  13
ATOM     13  C   UNL     1      33.468 -23.235 -16.316  0.00  0.00    +0.237 C 
BRANCH  13  14
ATOM     14  C   UNL     1      32.380 -23.683 -15.387  0.00  0.00    +0.021 C 
ATOM     15  C   UNL     1      32.672 -24.555 -14.338  0.00  0.00    -0.001 C 
ATOM     16  C   UNL     1      31.074 -23.227 -15.571  0.00  0.00    -0.001 C 
ATOM     17  C   UNL     1      31.660 -24.971 -13.474  0.00  0.00    -0.000 C 
ATOM     18  C   UNL     1      30.061 -23.643 -14.707  0.00  0.00    -0.000 C 
ATOM     19  C   UNL     1      30.354 -24.515 -13.658  0.00  0.00    -0.000 C 
ENDBRANCH  13  14
ENDBRANCH  12  13
ENDBRANCH  10  12
ENDBRANCH   1   9
BRANCH   1  20
ATOM     20  C   UNL     1      37.111 -21.703 -18.692  0.00  0.00    +0.110 C 
BRANCH  20  26
ATOM     21  S   UNL     1      37.794 -25.044 -15.026  0.00  0.00    -0.024 S 
ATOM     22  O   UNL     1      36.411 -20.865 -16.569  0.00  0.00    -0.275 OA
ATOM     23  N   UNL     1      37.310 -23.039 -16.696  0.00  0.00    -0.263 N 
ATOM     24  N   UNL     1      36.762 -22.806 -14.326  0.00  0.00    -0.125 NA
ATOM     25  N   UNL     1      36.840 -23.559 -13.168  0.00  0.00    -0.133 NA
ATOM     26  C   UNL     1      36.907 -21.803 -17.188  0.00  0.00    +0.230 C 
ATOM     27  C   UNL     1      37.226 -23.463 -15.368  0.00  0.00    +0.189 A 
ATOM     28  C   UNL     1      37.360 -24.748 -13.393  0.00  0.00    +0.157 A 
ATOM     29  H   UNL     1      37.691 -23.674 -17.345  0.00  0.00    +0.157 HD
BRANCH  28  30
ATOM     30  S   UNL     1      37.582 -25.917 -12.117  0.00  0.00    -0.114 S 
ATOM     31  H   UNL     1      38.099 -25.299 -11.021  0.00  0.00    +0.109 HD
ENDBRANCH  28  30
ENDBRANCH  20  26
ENDBRANCH   1  20
TORSDOF 8
ENDMDL
MODEL 8
REMARK VINA RESULT:      -9.6      3.850      8.850
REMARK  Name = 449412
REMARK  8 active torsions:
REMARK  status: ('A' for Active; 'I' for Inactive)
REMARK    1  A    between atoms: C_1  and  C_2
REMARK    2  A    between atoms: C_1  and  N_9
REMARK    3  A    between atoms: C_1  and  C_20
REMARK    4  A    between atoms: C_10  and  O_12
REMARK    5  A    between atoms: O_12  and  C_13
REMARK    6  A    between atoms: C_13  and  C_14
REMARK    7  A    between atoms: C_20  and  C_26
REMARK    8  A    between atoms: C_28  and  S_30
REMARK                            x       y       z     vdW  Elec       q    Type
REMARK                         _______ _______ _______ _____ _____    ______ ____
ROOT
ATOM      1  C   UNL     1      33.068 -13.285 -23.121  0.00  0.00    +0.106 C 
ENDROOT
BRANCH   1   2
ATOM      2  C   UNL     1      33.216 -13.349 -24.627  0.00  0.00    -0.004 C 
ATOM      3  C   UNL     1      33.626 -12.220 -25.336  0.00  0.00    -0.003 C 
ATOM      4  C   UNL     1      32.941 -14.536 -25.306  0.00  0.00    -0.003 C 
ATOM      5  C   UNL     1      33.762 -12.278 -26.723  0.00  0.00    -0.000 C 
ATOM      6  C   UNL     1      33.078 -14.594 -26.693  0.00  0.00    -0.000 C 
ATOM      7  C   UNL     1      33.488 -13.464 -27.401  0.00  0.00    -0.000 C 
ENDBRANCH   1   2
BRANCH   1   9
ATOM      8  O   UNL     1      30.846 -11.893 -21.872  0.00  0.00    -0.226 OA
ATOM      9  N   UNL     1      33.024 -11.911 -22.670  0.00  0.00    -0.268 N 
ATOM     10  C   UNL     1      31.917 -11.335 -22.086  0.00  0.00    +0.402 C 
ATOM     11  H   UNL     1      33.829 -11.356 -22.787  0.00  0.00    +0.153 HD
BRANCH  10  12
ATOM     12  O   UNL     1      32.189 -10.033 -21.772  0.00  0.00    -0.430 OA
BRANCH  12  13
ATOM     13  C   UNL     1      31.503  -9.046 -22.551  0.00  0.00    +0.237 C 
BRANCH  13  14
ATOM     14  C   UNL     1      32.513  -8.197 -23.265  0.00  0.00    +0.021 C 
ATOM     15  C   UNL     1      33.863  -8.544 -23.234  0.00  0.00    -0.001 C 
ATOM     16  C   UNL     1      32.100  -7.060 -23.960  0.00  0.00    -0.001 C 
ATOM     17  C   UNL     1      34.802  -7.755 -23.898  0.00  0.00    -0.000 C 
ATOM     18  C   UNL     1      33.039  -6.270 -24.625  0.00  0.00    -0.000 C 
ATOM     19  C   UNL     1      34.390  -6.617 -24.593  0.00  0.00    -0.000 C 
ENDBRANCH  13  14
ENDBRANCH  12  13
ENDBRANCH  10  12
ENDBRANCH   1   9
BRANCH   1  20
ATOM     20  C   UNL     1      34.167 -14.058 -22.376  0.00  0.00    +0.110 C 
BRANCH  20  26
ATOM     21  S   UNL     1      36.021 -18.553 -21.181  0.00  0.00    -0.024 S 
ATOM     22  O   UNL     1      32.461 -15.583 -21.697  0.00  0.00    -0.275 OA
ATOM     23  N   UNL     1      34.701 -16.312 -21.712  0.00  0.00    -0.263 N 
ATOM     24  N   UNL     1      33.478 -18.301 -20.988  0.00  0.00    -0.125 NA
ATOM     25  N   UNL     1      33.751 -19.608 -20.627  0.00  0.00    -0.133 NA
ATOM     26  C   UNL     1      33.663 -15.404 -21.876  0.00  0.00    +0.230 C 
ATOM     27  C   UNL     1      34.573 -17.641 -21.300  0.00  0.00    +0.189 A 
ATOM     28  C   UNL     1      35.041 -19.870 -20.684  0.00  0.00    +0.157 A 
ATOM     29  H   UNL     1      35.610 -15.989 -21.903  0.00  0.00    +0.157 HD
BRANCH  28  30
ATOM     30  S   UNL     1      35.682 -21.442 -20.283  0.00  0.00    -0.114 S 
ATOM     31  H   UNL     1      36.912 -21.587 -20.846  0.00  0.00    +0.109 HD
ENDBRANCH  28  30
ENDBRANCH  20  26
ENDBRANCH   1  20
TORSDOF 8
ENDMDL
MODEL 9
REMARK VINA RESULT:      -9.5      8.886     12.557
REMARK  Name = 449412
REMARK  8 active torsions:
REMARK  status: ('A' for Active; 'I' for Inactive)
REMARK    1  A    between atoms: C_1  and  C_2
REMARK    2  A    between atoms: C_1  and  N_9
REMARK    3  A    between atoms: C_1  and  C_20
REMARK    4  A    between atoms: C_10  and  O_12
REMARK    5  A    between atoms: O_12  and  C_13
REMARK    6  A    between atoms: C_13  and  C_14
REMARK    7  A    between atoms: C_20  and  C_26
REMARK    8  A    between atoms: C_28  and  S_30
REMARK                            x       y       z     vdW  Elec       q    Type
REMARK                         _______ _______ _______ _____ _____    ______ ____
ROOT
ATOM      1  C   UNL     1      35.330 -24.025 -15.026  0.00  0.00    +0.106 C 
ENDROOT
BRANCH   1   2
ATOM      2  C   UNL     1      36.401 -24.056 -13.954  0.00  0.00    -0.004 C 
ATOM      3  C   UNL     1      36.451 -23.049 -12.990  0.00  0.00    -0.003 C 
ATOM      4  C   UNL     1      37.337 -25.090 -13.933  0.00  0.00    -0.003 C 
ATOM      5  C   UNL     1      37.436 -23.077 -12.004  0.00  0.00    -0.000 C 
ATOM      6  C   UNL     1      38.322 -25.117 -12.945  0.00  0.00    -0.000 C 
ATOM      7  C   UNL     1      38.371 -24.111 -11.981  0.00  0.00    -0.000 C 
ENDBRANCH   1   2
BRANCH   1   9
ATOM      8  O   UNL     1      37.822 -23.114 -16.206  0.00  0.00    -0.226 OA
ATOM      9  N   UNL     1      35.531 -22.902 -15.916  0.00  0.00    -0.268 N 
ATOM     10  C   UNL     1      36.759 -22.544 -16.428  0.00  0.00    +0.402 C 
ATOM     11  H   UNL     1      34.747 -22.363 -16.170  0.00  0.00    +0.153 HD
BRANCH  10  12
ATOM     12  O   UNL     1      36.619 -21.448 -17.232  0.00  0.00    -0.430 OA
BRANCH  12  13
ATOM     13  C   UNL     1      36.818 -21.672 -18.632  0.00  0.00    +0.237 C 
BRANCH  13  14
ATOM     14  C   UNL     1      35.638 -21.132 -19.386  0.00  0.00    +0.021 C 
ATOM     15  C   UNL     1      35.820 -20.142 -20.351  0.00  0.00    -0.001 C 
ATOM     16  C   UNL     1      34.359 -21.623 -19.123  0.00  0.00    -0.001 C 
ATOM     17  C   UNL     1      34.723 -19.640 -21.052  0.00  0.00    -0.000 C 
ATOM     18  C   UNL     1      33.262 -21.122 -19.823  0.00  0.00    -0.000 C 
ATOM     19  C   UNL     1      33.444 -20.131 -20.788  0.00  0.00    -0.000 C 
ENDBRANCH  13  14
ENDBRANCH  12  13
ENDBRANCH  10  12
ENDBRANCH   1   9
BRANCH   1  20
ATOM     20  C   UNL     1      33.906 -24.005 -14.452  0.00  0.00    +0.110 C 
BRANCH  20  26
ATOM     21  S   UNL     1      29.067 -22.744 -14.712  0.00  0.00    -0.024 S 
ATOM     22  O   UNL     1      33.201 -23.597 -16.696  0.00  0.00    -0.275 OA
ATOM     23  N   UNL     1      31.638 -23.358 -14.951  0.00  0.00    -0.263 N 
ATOM     24  N   UNL     1      30.317 -22.861 -16.946  0.00  0.00    -0.125 NA
ATOM     25  N   UNL     1      29.017 -22.514 -17.265  0.00  0.00    -0.133 NA
ATOM     26  C   UNL     1      32.883 -23.619 -15.510  0.00  0.00    +0.230 C 
ATOM     27  C   UNL     1      30.479 -23.011 -15.648  0.00  0.00    +0.189 A 
ATOM     28  C   UNL     1      28.260 -22.419 -16.191  0.00  0.00    +0.157 A 
ATOM     29  H   UNL     1      31.568 -23.423 -13.971  0.00  0.00    +0.157 HD
BRANCH  28  30
ATOM     30  S   UNL     1      26.570 -21.995 -16.286  0.00  0.00    -0.114 S 
ATOM     31  H   UNL     1      26.395 -20.726 -15.830  0.00  0.00    +0.109 HD
ENDBRANCH  28  30
ENDBRANCH  20  26
ENDBRANCH   1  20
TORSDOF 8
ENDMDL
