MODEL 1
REMARK VINA RESULT:     -10.3      0.000      0.000
REMARK  Name = 24798721
REMARK  5 active torsions:
REMARK  status: ('A' for Active; 'I' for Inactive)
REMARK    1  A    between atoms: N_1  and  C_14
REMARK    2  A    between atoms: C_2  and  C_7
REMARK    3  A    between atoms: C_3  and  N_24
REMARK    4  A    between atoms: C_17  and  O_20
REMARK    5  A    between atoms: C_19  and  O_22
REMARK                            x       y       z     vdW  Elec       q    Type
REMARK                         _______ _______ _______ _____ _____    ______ ____
ROOT
ATOM      1  N   UNL     1      33.918 -15.256 -23.526  0.00  0.00    -0.307 N 
ATOM      2  C   UNL     1      35.117 -17.320 -22.885  0.00  0.00    +0.022 C 
ATOM      3  C   UNL     1      35.023 -17.836 -24.342  0.00  0.00    -0.058 C 
ATOM      4  C   UNL     1      33.967 -16.348 -22.543  0.00  0.00    +0.093 C 
ATOM      5  C   UNL     1      34.962 -16.630 -25.290  0.00  0.00    -0.000 C 
ATOM      6  C   UNL     1      33.845 -15.646 -24.941  0.00  0.00    +0.089 C 
ENDROOT
BRANCH   2   7
ATOM      7  C   UNL     1      35.309 -18.452 -21.885  0.00  0.00    -0.023 C 
ATOM      8  C   UNL     1      34.200 -19.126 -21.374  0.00  0.00    -0.009 C 
ATOM      9  C   UNL     1      36.594 -18.814 -21.480  0.00  0.00    -0.004 C 
ATOM     10  C   UNL     1      34.376 -20.164 -20.459  0.00  0.00    -0.022 C 
ATOM     11  C   UNL     1      36.770 -19.851 -20.564  0.00  0.00    -0.001 C 
ATOM     12  C   UNL     1      35.661 -20.526 -20.054  0.00  0.00    -0.004 C 
ATOM     13  C   UNL     1      33.192 -20.887 -19.913  0.00  0.00    +0.031 C 
ENDBRANCH   2   7
BRANCH   1  14
ATOM     14  C   UNL     1      33.337 -14.034 -23.166  0.00  0.00    +0.051 C 
ATOM     15  C   UNL     1      33.593 -12.890 -23.921  0.00  0.00    +0.055 C 
ATOM     16  C   UNL     1      32.502 -13.961 -22.050  0.00  0.00    +0.018 C 
ATOM     17  C   UNL     1      33.014 -11.673 -23.562  0.00  0.00    +0.174 C 
ATOM     18  C   UNL     1      31.923 -12.744 -21.691  0.00  0.00    +0.041 C 
ATOM     19  C   UNL     1      32.180 -11.600 -22.446  0.00  0.00    +0.172 C 
BRANCH  17  20
ATOM     20  O   UNL     1      33.272 -10.562 -24.308  0.00  0.00    -0.468 OA
ATOM     21  C   UNL     1      34.484  -9.863 -24.030  0.00  0.00    +0.253 C 
ENDBRANCH  17  20
BRANCH  19  22
ATOM     22  O   UNL     1      31.608 -10.417 -22.085  0.00  0.00    -0.468 OA
ATOM     23  C   UNL     1      31.853  -9.957 -20.758  0.00  0.00    +0.253 C 
ENDBRANCH  19  22
ENDBRANCH   1  14
BRANCH   3  24
ATOM     24  N   UNL     1      33.875 -18.722 -24.551  0.00  0.00    +0.382 N 
ATOM     25  H   UNL     1      33.078 -18.175 -24.876  0.00  0.00    -0.089 HD
ATOM     26  H   UNL     1      33.636 -19.182 -23.672  0.00  0.00    -0.089 HD
ATOM     27  H   UNL     1      34.111 -19.427 -25.249  0.00  0.00    -0.089 HD
ENDBRANCH   3  24
TORSDOF 5
ENDMDL
MODEL 2
REMARK VINA RESULT:      -9.5      4.171      8.308
REMARK  Name = 24798721
REMARK  5 active torsions:
REMARK  status: ('A' for Active; 'I' for Inactive)
REMARK    1  A    between atoms: N_1  and  C_14
REMARK    2  A    between atoms: C_2  and  C_7
REMARK    3  A    between atoms: C_3  and  N_24
REMARK    4  A    between atoms: C_17  and  O_20
REMARK    5  A    between atoms: C_19  and  O_22
REMARK                            x       y       z     vdW  Elec       q    Type
REMARK                         _______ _______ _______ _____ _____    ______ ____
ROOT
ATOM      1  N   UNL     1      34.357 -19.104 -21.676  0.00  0.00    -0.307 N 
ATOM      2  C   UNL     1      33.566 -16.897 -22.458  0.00  0.00    +0.022 C 
ATOM      3  C   UNL     1      34.480 -17.002 -23.704  0.00  0.00    -0.058 C 
ATOM      4  C   UNL     1      34.118 -17.712 -21.268  0.00  0.00    +0.093 C 
ATOM      5  C   UNL     1      34.683 -18.486 -24.043  0.00  0.00    -0.000 C 
ATOM      6  C   UNL     1      35.201 -19.308 -22.862  0.00  0.00    +0.089 C 
ENDROOT
BRANCH   2   7
ATOM      7  C   UNL     1      33.209 -15.455 -22.126  0.00  0.00    -0.023 C 
ATOM      8  C   UNL     1      33.382 -14.455 -23.084  0.00  0.00    -0.009 C 
ATOM      9  C   UNL     1      32.709 -15.133 -20.864  0.00  0.00    -0.004 C 
ATOM     10  C   UNL     1      33.054 -13.134 -22.780  0.00  0.00    -0.022 C 
ATOM     11  C   UNL     1      32.382 -13.811 -20.560  0.00  0.00    -0.001 C 
ATOM     12  C   UNL     1      32.554 -12.813 -21.518  0.00  0.00    -0.004 C 
ATOM     13  C   UNL     1      33.236 -12.065 -23.803  0.00  0.00    +0.031 C 
ENDBRANCH   2   7
BRANCH   1  14
ATOM     14  C   UNL     1      34.360 -20.113 -20.705  0.00  0.00    +0.051 C 
ATOM     15  C   UNL     1      35.565 -20.542 -20.149  0.00  0.00    +0.055 C 
ATOM     16  C   UNL     1      33.158 -20.689 -20.293  0.00  0.00    +0.018 C 
ATOM     17  C   UNL     1      35.568 -21.547 -19.182  0.00  0.00    +0.174 C 
ATOM     18  C   UNL     1      33.161 -21.694 -19.326  0.00  0.00    +0.041 C 
ATOM     19  C   UNL     1      34.366 -22.123 -18.771  0.00  0.00    +0.172 C 
BRANCH  17  20
ATOM     20  O   UNL     1      36.752 -21.958 -18.646  0.00  0.00    -0.468 OA
ATOM     21  C   UNL     1      37.023 -21.569 -17.301  0.00  0.00    +0.253 C 
ENDBRANCH  17  20
BRANCH  19  22
ATOM     22  O   UNL     1      34.355 -23.105 -17.826  0.00  0.00    -0.468 OA
ATOM     23  C   UNL     1      33.146 -23.287 -17.093  0.00  0.00    +0.253 C 
ENDBRANCH  19  22
ENDBRANCH   1  14
BRANCH   3  24
ATOM     24  N   UNL     1      35.767 -16.330 -23.514  0.00  0.00    +0.382 N 
ATOM     25  H   UNL     1      36.312 -16.390 -24.373  0.00  0.00    -0.089 HD
ATOM     26  H   UNL     1      36.278 -16.782 -22.755  0.00  0.00    -0.089 HD
ATOM     27  H   UNL     1      35.609 -15.350 -23.279  0.00  0.00    -0.089 HD
ENDBRANCH   3  24
TORSDOF 5
ENDMDL
MODEL 3
REMARK VINA RESULT:      -9.1      3.475      8.552
REMARK  Name = 24798721
REMARK  5 active torsions:
REMARK  status: ('A' for Active; 'I' for Inactive)
REMARK    1  A    between atoms: N_1  and  C_14
REMARK    2  A    between atoms: C_2  and  C_7
REMARK    3  A    between atoms: C_3  and  N_24
REMARK    4  A    between atoms: C_17  and  O_20
REMARK    5  A    between atoms: C_19  and  O_22
REMARK                            x       y       z     vdW  Elec       q    Type
REMARK                         _______ _______ _______ _____ _____    ______ ____
ROOT
ATOM      1  N   UNL     1      32.745 -13.143 -22.310  0.00  0.00    -0.307 N 
ATOM      2  C   UNL     1      32.421 -10.743 -21.815  0.00  0.00    +0.022 C 
ATOM      3  C   UNL     1      31.621 -11.106 -20.540  0.00  0.00    -0.058 C 
ATOM      4  C   UNL     1      32.334 -11.853 -22.885  0.00  0.00    +0.093 C 
ATOM      5  C   UNL     1      32.108 -12.469 -20.024  0.00  0.00    -0.000 C 
ATOM      6  C   UNL     1      32.054 -13.568 -21.085  0.00  0.00    +0.089 C 
ENDROOT
BRANCH   2   7
ATOM      7  C   UNL     1      32.089  -9.347 -22.323  0.00  0.00    -0.023 C 
ATOM      8  C   UNL     1      32.130  -8.259 -21.451  0.00  0.00    -0.009 C 
ATOM      9  C   UNL     1      31.745  -9.156 -23.662  0.00  0.00    -0.004 C 
ATOM     10  C   UNL     1      31.828  -6.980 -21.918  0.00  0.00    -0.022 C 
ATOM     11  C   UNL     1      31.441  -7.876 -24.128  0.00  0.00    -0.001 C 
ATOM     12  C   UNL     1      31.483  -6.789 -23.256  0.00  0.00    -0.004 C 
ATOM     13  C   UNL     1      31.873  -5.816 -20.987  0.00  0.00    +0.031 C 
ENDBRANCH   2   7
BRANCH   1  14
ATOM     14  C   UNL     1      33.229 -14.148 -23.157  0.00  0.00    +0.051 C 
ATOM     15  C   UNL     1      33.063 -14.037 -24.537  0.00  0.00    +0.055 C 
ATOM     16  C   UNL     1      33.876 -15.261 -22.619  0.00  0.00    +0.018 C 
ATOM     17  C   UNL     1      33.546 -15.038 -25.380  0.00  0.00    +0.174 C 
ATOM     18  C   UNL     1      34.358 -16.262 -23.462  0.00  0.00    +0.041 C 
ATOM     19  C   UNL     1      34.192 -16.151 -24.843  0.00  0.00    +0.172 C 
BRANCH  17  20
ATOM     20  O   UNL     1      33.378 -14.918 -26.727  0.00  0.00    -0.468 OA
ATOM     21  C   UNL     1      33.344 -13.596 -27.260  0.00  0.00    +0.253 C 
ENDBRANCH  17  20
BRANCH  19  22
ATOM     22  O   UNL     1      34.667 -17.136 -25.656  0.00  0.00    -0.468 OA
ATOM     23  C   UNL     1      34.563 -18.476 -25.180  0.00  0.00    +0.253 C 
ENDBRANCH  19  22
ENDBRANCH   1  14
BRANCH   3  24
ATOM     24  N   UNL     1      30.174 -11.123 -20.769  0.00  0.00    +0.382 N 
ATOM     25  H   UNL     1      29.980 -10.876 -21.739  0.00  0.00    -0.089 HD
ATOM     26  H   UNL     1      29.725 -10.447 -20.150  0.00  0.00    -0.089 HD
ATOM     27  H   UNL     1      29.809 -12.055 -20.574  0.00  0.00    -0.089 HD
ENDBRANCH   3  24
TORSDOF 5
ENDMDL
MODEL 4
REMARK VINA RESULT:      -9.0      4.152      8.391
REMARK  Name = 24798721
REMARK  5 active torsions:
REMARK  status: ('A' for Active; 'I' for Inactive)
REMARK    1  A    between atoms: N_1  and  C_14
REMARK    2  A    between atoms: C_2  and  C_7
REMARK    3  A    between atoms: C_3  and  N_24
REMARK    4  A    between atoms: C_17  and  O_20
REMARK    5  A    between atoms: C_19  and  O_22
REMARK                            x       y       z     vdW  Elec       q    Type
REMARK                         _______ _______ _______ _____ _____    ______ ____
ROOT
ATOM      1  N   UNL     1      34.664 -19.105 -21.655  0.00  0.00    -0.307 N 
ATOM      2  C   UNL     1      33.649 -16.980 -22.405  0.00  0.00    +0.022 C 
ATOM      3  C   UNL     1      34.403 -17.087 -23.753  0.00  0.00    -0.058 C 
ATOM      4  C   UNL     1      34.395 -17.712 -21.268  0.00  0.00    +0.093 C 
ATOM      5  C   UNL     1      34.651 -18.570 -24.064  0.00  0.00    -0.000 C 
ATOM      6  C   UNL     1      35.362 -19.312 -22.931  0.00  0.00    +0.089 C 
ENDROOT
BRANCH   2   7
ATOM      7  C   UNL     1      33.251 -15.547 -22.080  0.00  0.00    -0.023 C 
ATOM      8  C   UNL     1      33.365 -14.554 -23.053  0.00  0.00    -0.009 C 
ATOM      9  C   UNL     1      32.772 -15.227 -20.809  0.00  0.00    -0.004 C 
ATOM     10  C   UNL     1      32.999 -13.241 -22.756  0.00  0.00    -0.022 C 
ATOM     11  C   UNL     1      32.407 -13.914 -20.512  0.00  0.00    -0.001 C 
ATOM     12  C   UNL     1      32.521 -12.921 -21.485  0.00  0.00    -0.004 C 
ATOM     13  C   UNL     1      33.119 -12.179 -23.795  0.00  0.00    +0.031 C 
ENDBRANCH   2   7
BRANCH   1  14
ATOM     14  C   UNL     1      34.850 -20.070 -20.657  0.00  0.00    +0.051 C 
ATOM     15  C   UNL     1      33.785 -20.880 -20.263  0.00  0.00    +0.055 C 
ATOM     16  C   UNL     1      36.100 -20.222 -20.057  0.00  0.00    +0.018 C 
ATOM     17  C   UNL     1      33.971 -21.841 -19.270  0.00  0.00    +0.174 C 
ATOM     18  C   UNL     1      36.286 -21.182 -19.063  0.00  0.00    +0.041 C 
ATOM     19  C   UNL     1      35.221 -21.992 -18.669  0.00  0.00    +0.172 C 
BRANCH  17  20
ATOM     20  O   UNL     1      32.922 -22.627 -18.892  0.00  0.00    -0.468 OA
ATOM     21  C   UNL     1      32.423 -22.448 -17.569  0.00  0.00    +0.253 C 
ENDBRANCH  17  20
BRANCH  19  22
ATOM     22  O   UNL     1      35.414 -22.927 -17.698  0.00  0.00    -0.468 OA
ATOM     23  C   UNL     1      36.178 -22.532 -16.560  0.00  0.00    +0.253 C 
ENDBRANCH  19  22
ENDBRANCH   1  14
BRANCH   3  24
ATOM     24  N   UNL     1      35.662 -16.337 -23.754  0.00  0.00    +0.382 N 
ATOM     25  H   UNL     1      35.471 -15.351 -23.929  0.00  0.00    -0.089 HD
ATOM     26  H   UNL     1      36.273 -16.700 -24.486  0.00  0.00    -0.089 HD
ATOM     27  H   UNL     1      36.120 -16.440 -22.848  0.00  0.00    -0.089 HD
ENDBRANCH   3  24
TORSDOF 5
ENDMDL
MODEL 5
REMARK VINA RESULT:      -9.0      3.152      8.923
REMARK  Name = 24798721
REMARK  5 active torsions:
REMARK  status: ('A' for Active; 'I' for Inactive)
REMARK    1  A    between atoms: N_1  and  C_14
REMARK    2  A    between atoms: C_2  and  C_7
REMARK    3  A    between atoms: C_3  and  N_24
REMARK    4  A    between atoms: C_17  and  O_20
REMARK    5  A    between atoms: C_19  and  O_22
REMARK                            x       y       z     vdW  Elec       q    Type
REMARK                         _______ _______ _______ _____ _____    ______ ____
ROOT
ATOM      1  N   UNL     1      32.948 -12.574 -23.093  0.00  0.00    -0.307 N 
ATOM      2  C   UNL     1      33.061 -10.119 -22.825  0.00  0.00    +0.022 C 
ATOM      3  C   UNL     1      31.848 -10.161 -21.864  0.00  0.00    -0.058 C 
ATOM      4  C   UNL     1      33.048 -11.299 -23.821  0.00  0.00    +0.093 C 
ATOM      5  C   UNL     1      31.819 -11.528 -21.164  0.00  0.00    -0.000 C 
ATOM      6  C   UNL     1      31.837 -12.704 -22.141  0.00  0.00    +0.089 C 
ENDROOT
BRANCH   2   7
ATOM      7  C   UNL     1      33.238  -8.751 -23.468  0.00  0.00    -0.023 C 
ATOM      8  C   UNL     1      32.136  -7.913 -23.643  0.00  0.00    -0.009 C 
ATOM      9  C   UNL     1      34.503  -8.335 -23.884  0.00  0.00    -0.004 C 
ATOM     10  C   UNL     1      32.299  -6.659 -24.230  0.00  0.00    -0.022 C 
ATOM     11  C   UNL     1      34.666  -7.080 -24.473  0.00  0.00    -0.001 C 
ATOM     12  C   UNL     1      33.564  -6.243 -24.646  0.00  0.00    -0.004 C 
ATOM     13  C   UNL     1      31.123  -5.763 -24.415  0.00  0.00    +0.031 C 
ENDBRANCH   2   7
BRANCH   1  14
ATOM     14  C   UNL     1      33.418 -13.747 -23.696  0.00  0.00    +0.051 C 
ATOM     15  C   UNL     1      34.306 -14.576 -23.011  0.00  0.00    +0.055 C 
ATOM     16  C   UNL     1      32.998 -14.085 -24.983  0.00  0.00    +0.018 C 
ATOM     17  C   UNL     1      34.774 -15.744 -23.613  0.00  0.00    +0.174 C 
ATOM     18  C   UNL     1      33.467 -15.253 -25.585  0.00  0.00    +0.041 C 
ATOM     19  C   UNL     1      34.355 -16.083 -24.900  0.00  0.00    +0.172 C 
BRANCH  17  20
ATOM     20  O   UNL     1      35.641 -16.547 -22.934  0.00  0.00    -0.468 OA
ATOM     21  C   UNL     1      35.160 -17.152 -21.736  0.00  0.00    +0.253 C 
ENDBRANCH  17  20
BRANCH  19  22
ATOM     22  O   UNL     1      34.805 -17.221 -25.498  0.00  0.00    -0.468 OA
ATOM     23  C   UNL     1      34.168 -18.443 -25.129  0.00  0.00    +0.253 C 
ENDBRANCH  19  22
ENDBRANCH   1  14
BRANCH   3  24
ATOM     24  N   UNL     1      30.579  -9.899 -22.548  0.00  0.00    +0.382 N 
ATOM     25  H   UNL     1      30.666 -10.145 -23.533  0.00  0.00    -0.089 HD
ATOM     26  H   UNL     1      30.346  -8.909 -22.464  0.00  0.00    -0.089 HD
ATOM     27  H   UNL     1      29.840 -10.458 -22.121  0.00  0.00    -0.089 HD
ENDBRANCH   3  24
TORSDOF 5
ENDMDL
MODEL 6
REMARK VINA RESULT:      -9.0      3.579      7.969
REMARK  Name = 24798721
REMARK  5 active torsions:
REMARK  status: ('A' for Active; 'I' for Inactive)
REMARK    1  A    between atoms: N_1  and  C_14
REMARK    2  A    between atoms: C_2  and  C_7
REMARK    3  A    between atoms: C_3  and  N_24
REMARK    4  A    between atoms: C_17  and  O_20
REMARK    5  A    between atoms: C_19  and  O_22
REMARK                            x       y       z     vdW  Elec       q    Type
REMARK                         _______ _______ _______ _____ _____    ______ ____
ROOT
ATOM      1  N   UNL     1      34.217 -17.045 -22.326  0.00  0.00    -0.307 N 
ATOM      2  C   UNL     1      32.924 -14.940 -22.385  0.00  0.00    +0.022 C 
ATOM      3  C   UNL     1      33.527 -14.599 -23.769  0.00  0.00    -0.058 C 
ATOM      4  C   UNL     1      33.860 -15.845 -21.555  0.00  0.00    +0.093 C 
ATOM      5  C   UNL     1      33.880 -15.908 -24.490  0.00  0.00    -0.000 C 
ATOM      6  C   UNL     1      34.782 -16.825 -23.664  0.00  0.00    +0.089 C 
ENDROOT
BRANCH   2   7
ATOM      7  C   UNL     1      32.429 -13.700 -21.652  0.00  0.00    -0.023 C 
ATOM      8  C   UNL     1      31.971 -12.599 -22.374  0.00  0.00    -0.009 C 
ATOM      9  C   UNL     1      32.435 -13.666 -20.257  0.00  0.00    -0.004 C 
ATOM     10  C   UNL     1      31.516 -11.464 -21.702  0.00  0.00    -0.022 C 
ATOM     11  C   UNL     1      31.982 -12.531 -19.585  0.00  0.00    -0.001 C 
ATOM     12  C   UNL     1      31.523 -11.430 -20.308  0.00  0.00    -0.004 C 
ATOM     13  C   UNL     1      31.024 -10.287 -22.474  0.00  0.00    +0.031 C 
ENDBRANCH   2   7
BRANCH   1  14
ATOM     14  C   UNL     1      34.606 -18.206 -21.647  0.00  0.00    +0.051 C 
ATOM     15  C   UNL     1      33.657 -19.173 -21.318  0.00  0.00    +0.055 C 
ATOM     16  C   UNL     1      35.944 -18.395 -21.299  0.00  0.00    +0.018 C 
ATOM     17  C   UNL     1      34.046 -20.330 -20.641  0.00  0.00    +0.174 C 
ATOM     18  C   UNL     1      36.333 -19.551 -20.622  0.00  0.00    +0.041 C 
ATOM     19  C   UNL     1      35.383 -20.518 -20.293  0.00  0.00    +0.172 C 
BRANCH  17  20
ATOM     20  O   UNL     1      33.109 -21.268 -20.325  0.00  0.00    -0.468 OA
ATOM     21  C   UNL     1      32.910 -21.541 -18.939  0.00  0.00    +0.253 C 
ENDBRANCH  17  20
BRANCH  19  22
ATOM     22  O   UNL     1      35.775 -21.643 -19.632  0.00  0.00    -0.468 OA
ATOM     23  C   UNL     1      36.606 -21.467 -18.487  0.00  0.00    +0.253 C 
ENDBRANCH  19  22
ENDBRANCH   1  14
BRANCH   3  24
ATOM     24  N   UNL     1      34.700 -13.726 -23.672  0.00  0.00    +0.382 N 
ATOM     25  H   UNL     1      34.873 -13.496 -22.694  0.00  0.00    -0.089 HD
ATOM     26  H   UNL     1      34.529 -12.868 -24.198  0.00  0.00    -0.089 HD
ATOM     27  H   UNL     1      35.513 -14.204 -24.059  0.00  0.00    -0.089 HD
ENDBRANCH   3  24
TORSDOF 5
ENDMDL
MODEL 7
REMARK VINA RESULT:      -8.8      4.477     10.704
REMARK  Name = 24798721
REMARK  5 active torsions:
REMARK  status: ('A' for Active; 'I' for Inactive)
REMARK    1  A    between atoms: N_1  and  C_14
REMARK    2  A    between atoms: C_2  and  C_7
REMARK    3  A    between atoms: C_3  and  N_24
REMARK    4  A    between atoms: C_17  and  O_20
REMARK    5  A    between atoms: C_19  and  O_22
REMARK                            x       y       z     vdW  Elec       q    Type
REMARK                         _______ _______ _______ _____ _____    ______ ____
ROOT
ATOM      1  N   UNL     1      32.754  -9.219 -22.860  0.00  0.00    -0.307 N 
ATOM      2  C   UNL     1      32.793  -6.811 -23.414  0.00  0.00    +0.022 C 
ATOM      3  C   UNL     1      32.274  -6.468 -21.995  0.00  0.00    -0.058 C 
ATOM      4  C   UNL     1      32.353  -8.221 -23.863  0.00  0.00    +0.093 C 
ATOM      5  C   UNL     1      32.728  -7.569 -21.025  0.00  0.00    -0.000 C 
ATOM      6  C   UNL     1      32.324  -8.973 -21.477  0.00  0.00    +0.089 C 
ENDROOT
BRANCH   2   7
ATOM      7  C   UNL     1      32.494  -5.705 -24.417  0.00  0.00    -0.023 C 
ATOM      8  C   UNL     1      33.253  -5.597 -25.582  0.00  0.00    -0.009 C 
ATOM      9  C   UNL     1      31.462  -4.800 -24.170  0.00  0.00    -0.004 C 
ATOM     10  C   UNL     1      32.979  -4.585 -26.502  0.00  0.00    -0.022 C 
ATOM     11  C   UNL     1      31.188  -3.787 -25.090  0.00  0.00    -0.001 C 
ATOM     12  C   UNL     1      31.946  -3.680 -26.255  0.00  0.00    -0.004 C 
ATOM     13  C   UNL     1      33.788  -4.470 -27.749  0.00  0.00    +0.031 C 
ENDBRANCH   2   7
BRANCH   1  14
ATOM     14  C   UNL     1      32.930 -10.552 -23.251  0.00  0.00    +0.051 C 
ATOM     15  C   UNL     1      32.364 -11.580 -22.497  0.00  0.00    +0.055 C 
ATOM     16  C   UNL     1      33.671 -10.852 -24.394  0.00  0.00    +0.018 C 
ATOM     17  C   UNL     1      32.538 -12.908 -22.887  0.00  0.00    +0.174 C 
ATOM     18  C   UNL     1      33.846 -12.180 -24.783  0.00  0.00    +0.041 C 
ATOM     19  C   UNL     1      33.280 -13.208 -24.029  0.00  0.00    +0.172 C 
BRANCH  17  20
ATOM     20  O   UNL     1      31.980 -13.904 -22.142  0.00  0.00    -0.468 OA
ATOM     21  C   UNL     1      32.709 -14.342 -20.997  0.00  0.00    +0.253 C 
ENDBRANCH  17  20
BRANCH  19  22
ATOM     22  O   UNL     1      33.458 -14.501 -24.420  0.00  0.00    -0.468 OA
ATOM     23  C   UNL     1      33.114 -14.825 -25.765  0.00  0.00    +0.253 C 
ENDBRANCH  19  22
ENDBRANCH   1  14
BRANCH   3  24
ATOM     24  N   UNL     1      30.819  -6.304 -21.953  0.00  0.00    +0.382 N 
ATOM     25  H   UNL     1      30.372  -7.119 -22.373  0.00  0.00    -0.089 HD
ATOM     26  H   UNL     1      30.556  -5.467 -22.474  0.00  0.00    -0.089 HD
ATOM     27  H   UNL     1      30.515  -6.210 -20.984  0.00  0.00    -0.089 HD
ENDBRANCH   3  24
TORSDOF 5
ENDMDL
MODEL 8
REMARK VINA RESULT:      -8.7      3.094      7.933
REMARK  Name = 24798721
REMARK  5 active torsions:
REMARK  status: ('A' for Active; 'I' for Inactive)
REMARK    1  A    between atoms: N_1  and  C_14
REMARK    2  A    between atoms: C_2  and  C_7
REMARK    3  A    between atoms: C_3  and  N_24
REMARK    4  A    between atoms: C_17  and  O_20
REMARK    5  A    between atoms: C_19  and  O_22
REMARK                            x       y       z     vdW  Elec       q    Type
REMARK                         _______ _______ _______ _____ _____    ______ ____
ROOT
ATOM      1  N   UNL     1      33.855 -14.488 -24.016  0.00  0.00    -0.307 N 
ATOM      2  C   UNL     1      33.251 -12.107 -24.295  0.00  0.00    +0.022 C 
ATOM      3  C   UNL     1      33.138 -12.308 -25.827  0.00  0.00    -0.058 C 
ATOM      4  C   UNL     1      34.231 -13.113 -23.654  0.00  0.00    +0.093 C 
ATOM      5  C   UNL     1      32.757 -13.769 -26.107  0.00  0.00    -0.000 C 
ATOM      6  C   UNL     1      33.705 -14.774 -25.450  0.00  0.00    +0.089 C 
ENDROOT
BRANCH   2   7
ATOM      7  C   UNL     1      33.502 -10.653 -23.923  0.00  0.00    -0.023 C 
ATOM      8  C   UNL     1      32.565  -9.955 -23.162  0.00  0.00    -0.009 C 
ATOM      9  C   UNL     1      34.671 -10.018 -24.344  0.00  0.00    -0.004 C 
ATOM     10  C   UNL     1      32.796  -8.623 -22.819  0.00  0.00    -0.022 C 
ATOM     11  C   UNL     1      34.902  -8.685 -24.002  0.00  0.00    -0.001 C 
ATOM     12  C   UNL     1      33.964  -7.988 -23.240  0.00  0.00    -0.004 C 
ATOM     13  C   UNL     1      31.795  -7.877 -22.004  0.00  0.00    +0.031 C 
ENDBRANCH   2   7
BRANCH   1  14
ATOM     14  C   UNL     1      34.244 -15.547 -23.187  0.00  0.00    +0.051 C 
ATOM     15  C   UNL     1      34.664 -16.753 -23.748  0.00  0.00    +0.055 C 
ATOM     16  C   UNL     1      34.212 -15.396 -21.801  0.00  0.00    +0.018 C 
ATOM     17  C   UNL     1      35.052 -17.808 -22.922  0.00  0.00    +0.174 C 
ATOM     18  C   UNL     1      34.600 -16.451 -20.975  0.00  0.00    +0.041 C 
ATOM     19  C   UNL     1      35.019 -17.657 -21.535  0.00  0.00    +0.172 C 
BRANCH  17  20
ATOM     20  O   UNL     1      35.460 -18.982 -23.481  0.00  0.00    -0.468 OA
ATOM     21  C   UNL     1      34.766 -19.419 -24.647  0.00  0.00    +0.253 C 
ENDBRANCH  17  20
BRANCH  19  22
ATOM     22  O   UNL     1      35.396 -18.680 -20.718  0.00  0.00    -0.468 OA
ATOM     23  C   UNL     1      34.493 -19.777 -20.594  0.00  0.00    +0.253 C 
ENDBRANCH  19  22
ENDBRANCH   1  14
BRANCH   3  24
ATOM     24  N   UNL     1      34.369 -11.945 -26.534  0.00  0.00    +0.382 N 
ATOM     25  H   UNL     1      34.871 -11.236 -26.001  0.00  0.00    -0.089 HD
ATOM     26  H   UNL     1      34.135 -11.576 -27.456  0.00  0.00    -0.089 HD
ATOM     27  H   UNL     1      34.957 -12.772 -26.639  0.00  0.00    -0.089 HD
ENDBRANCH   3  24
TORSDOF 5
ENDMDL
MODEL 9
REMARK VINA RESULT:      -8.7      6.084      9.881
REMARK  Name = 24798721
REMARK  5 active torsions:
REMARK  status: ('A' for Active; 'I' for Inactive)
REMARK    1  A    between atoms: N_1  and  C_14
REMARK    2  A    between atoms: C_2  and  C_7
REMARK    3  A    between atoms: C_3  and  N_24
REMARK    4  A    between atoms: C_17  and  O_20
REMARK    5  A    between atoms: C_19  and  O_22
REMARK                            x       y       z     vdW  Elec       q    Type
REMARK                         _______ _______ _______ _____ _____    ______ ____
ROOT
ATOM      1  N   UNL     1      35.094 -22.431 -17.095  0.00  0.00    -0.307 N 
ATOM      2  C   UNL     1      33.580 -23.258 -15.326  0.00  0.00    +0.022 C 
ATOM      3  C   UNL     1      34.773 -23.937 -14.611  0.00  0.00    -0.058 C 
ATOM      4  C   UNL     1      33.820 -23.121 -16.845  0.00  0.00    +0.093 C 
ATOM      5  C   UNL     1      36.055 -23.158 -14.942  0.00  0.00    -0.000 C 
ATOM      6  C   UNL     1      36.286 -22.990 -16.444  0.00  0.00    +0.089 C 
ENDROOT
BRANCH   2   7
ATOM      7  C   UNL     1      32.248 -23.893 -14.951  0.00  0.00    -0.023 C 
ATOM      8  C   UNL     1      31.163 -23.807 -15.823  0.00  0.00    -0.009 C 
ATOM      9  C   UNL     1      32.113 -24.561 -13.733  0.00  0.00    -0.004 C 
ATOM     10  C   UNL     1      29.944 -24.390 -15.480  0.00  0.00    -0.022 C 
ATOM     11  C   UNL     1      30.893 -25.143 -13.389  0.00  0.00    -0.001 C 
ATOM     12  C   UNL     1      29.809 -25.058 -14.262  0.00  0.00    -0.004 C 
ATOM     13  C   UNL     1      28.784 -24.300 -16.412  0.00  0.00    +0.031 C 
ENDBRANCH   2   7
BRANCH   1  14
ATOM     14  C   UNL     1      35.282 -21.755 -18.308  0.00  0.00    +0.051 C 
ATOM     15  C   UNL     1      34.182 -21.429 -19.101  0.00  0.00    +0.055 C 
ATOM     16  C   UNL     1      36.569 -21.410 -18.722  0.00  0.00    +0.018 C 
ATOM     17  C   UNL     1      34.370 -20.756 -20.309  0.00  0.00    +0.174 C 
ATOM     18  C   UNL     1      36.756 -20.738 -19.930  0.00  0.00    +0.041 C 
ATOM     19  C   UNL     1      35.657 -20.412 -20.723  0.00  0.00    +0.172 C 
BRANCH  17  20
ATOM     20  O   UNL     1      33.288 -20.442 -21.076  0.00  0.00    -0.468 OA
ATOM     21  C   UNL     1      32.431 -19.410 -20.594  0.00  0.00    +0.253 C 
ENDBRANCH  17  20
BRANCH  19  22
ATOM     22  O   UNL     1      35.852 -19.755 -21.901  0.00  0.00    -0.468 OA
ATOM     23  C   UNL     1      36.016 -18.340 -21.835  0.00  0.00    +0.253 C 
ENDBRANCH  19  22
ENDBRANCH   1  14
BRANCH   3  24
ATOM     24  N   UNL     1      34.915 -25.350 -14.971  0.00  0.00    +0.382 N 
ATOM     25  H   UNL     1      34.268 -25.575 -15.725  0.00  0.00    -0.089 HD
ATOM     26  H   UNL     1      34.706 -25.930 -14.158  0.00  0.00    -0.089 HD
ATOM     27  H   UNL     1      35.871 -25.528 -15.279  0.00  0.00    -0.089 HD
ENDBRANCH   3  24
TORSDOF 5
ENDMDL
