MODEL 1
REMARK VINA RESULT:     -10.1      0.000      0.000
REMARK  Name = 3220
REMARK  3 active torsions:
REMARK  status: ('A' for Active; 'I' for Inactive)
REMARK    1  A    between atoms: C_10  and  O_18
REMARK    2  A    between atoms: C_12  and  O_20
REMARK    3  A    between atoms: C_15  and  O_22
REMARK                            x       y       z     vdW  Elec       q    Type
REMARK                         _______ _______ _______ _____ _____    ______ ____
ROOT
ATOM      1  O   UNL     1      34.064 -17.278 -25.722  0.00  0.00    -0.286 OA
ATOM      2  O   UNL     1      34.736 -14.855 -21.007  0.00  0.00    -0.287 OA
ATOM      3  C   UNL     1      34.171 -14.635 -23.276  0.00  0.00    +0.045 C 
ATOM      4  C   UNL     1      33.995 -15.269 -24.508  0.00  0.00    +0.076 C 
ATOM      5  C   UNL     1      34.630 -17.498 -23.453  0.00  0.00    +0.076 C 
ATOM      6  C   UNL     1      34.804 -16.864 -22.220  0.00  0.00    +0.048 C 
ATOM      7  C   UNL     1      34.218 -16.723 -24.642  0.00  0.00    +0.202 C 
ATOM      8  C   UNL     1      34.583 -15.411 -22.087  0.00  0.00    +0.196 C 
ATOM      9  C   UNL     1      33.957 -13.256 -23.163  0.00  0.00    -0.001 C 
ATOM     10  C   UNL     1      33.605 -14.523 -25.627  0.00  0.00    +0.136 C 
ATOM     11  C   UNL     1      33.569 -12.517 -24.280  0.00  0.00    -0.019 C 
ATOM     12  C   UNL     1      34.844 -18.877 -23.566  0.00  0.00    +0.140 C 
ATOM     13  C   UNL     1      35.194 -17.611 -21.101  0.00  0.00    +0.040 C 
ATOM     14  C   UNL     1      33.393 -13.149 -25.509  0.00  0.00    +0.032 C 
ATOM     15  C   UNL     1      35.405 -18.985 -21.219  0.00  0.00    +0.137 C 
ATOM     16  C   UNL     1      35.231 -19.616 -22.448  0.00  0.00    +0.073 C 
ATOM     17  C   UNL     1      33.341 -11.049 -24.159  0.00  0.00    +0.031 C 
ENDROOT
BRANCH  10  18
ATOM     18  O   UNL     1      33.416 -15.075 -26.859  0.00  0.00    -0.505 OA
ATOM     19  H   UNL     1      33.423 -14.531 -27.623  0.00  0.00    +0.292 HD
ENDBRANCH  10  18
BRANCH  12  20
ATOM     20  O   UNL     1      34.691 -19.558 -24.737  0.00  0.00    -0.505 OA
ATOM     21  H   UNL     1      34.550 -20.485 -24.726  0.00  0.00    +0.292 HD
ENDBRANCH  12  20
BRANCH  15  22
ATOM     22  O   UNL     1      35.784 -19.709 -20.130  0.00  0.00    -0.505 OA
ATOM     23  H   UNL     1      36.512 -19.430 -19.611  0.00  0.00    +0.292 HD
ENDBRANCH  15  22
TORSDOF 3
ENDMDL
MODEL 2
REMARK VINA RESULT:     -10.1      7.621     10.971
REMARK  Name = 3220
REMARK  3 active torsions:
REMARK  status: ('A' for Active; 'I' for Inactive)
REMARK    1  A    between atoms: C_10  and  O_18
REMARK    2  A    between atoms: C_12  and  O_20
REMARK    3  A    between atoms: C_15  and  O_22
REMARK                            x       y       z     vdW  Elec       q    Type
REMARK                         _______ _______ _______ _____ _____    ______ ____
ROOT
ATOM      1  O   UNL     1      32.870 -23.873 -15.481  0.00  0.00    -0.286 OA
ATOM      2  O   UNL     1      37.976 -22.315 -15.720  0.00  0.00    -0.287 OA
ATOM      3  C   UNL     1      35.910 -22.479 -16.823  0.00  0.00    +0.045 C 
ATOM      4  C   UNL     1      34.575 -22.887 -16.761  0.00  0.00    +0.076 C 
ATOM      5  C   UNL     1      34.937 -23.709 -14.378  0.00  0.00    +0.076 C 
ATOM      6  C   UNL     1      36.272 -23.301 -14.440  0.00  0.00    +0.048 C 
ATOM      7  C   UNL     1      34.040 -23.516 -15.536  0.00  0.00    +0.202 C 
ATOM      8  C   UNL     1      36.806 -22.673 -15.665  0.00  0.00    +0.196 C 
ATOM      9  C   UNL     1      36.404 -21.884 -17.990  0.00  0.00    -0.001 C 
ATOM     10  C   UNL     1      33.735 -22.698 -17.865  0.00  0.00    +0.136 C 
ATOM     11  C   UNL     1      35.564 -21.699 -19.088  0.00  0.00    -0.019 C 
ATOM     12  C   UNL     1      34.443 -24.304 -13.211  0.00  0.00    +0.140 C 
ATOM     13  C   UNL     1      37.111 -23.489 -13.335  0.00  0.00    +0.040 C 
ATOM     14  C   UNL     1      34.233 -22.105 -19.025  0.00  0.00    +0.032 C 
ATOM     15  C   UNL     1      36.613 -24.081 -12.174  0.00  0.00    +0.137 C 
ATOM     16  C   UNL     1      35.283 -24.489 -12.113  0.00  0.00    +0.073 C 
ATOM     17  C   UNL     1      36.092 -21.065 -20.330  0.00  0.00    +0.031 C 
ENDROOT
BRANCH  10  18
ATOM     18  O   UNL     1      32.424 -23.072 -17.874  0.00  0.00    -0.505 OA
ATOM     19  H   UNL     1      31.856 -22.807 -17.177  0.00  0.00    +0.292 HD
ENDBRANCH  10  18
BRANCH  12  20
ATOM     20  O   UNL     1      33.152 -24.725 -13.082  0.00  0.00    -0.505 OA
ATOM     21  H   UNL     1      32.762 -24.789 -12.232  0.00  0.00    +0.292 HD
ENDBRANCH  12  20
BRANCH  15  22
ATOM     22  O   UNL     1      37.431 -24.263 -11.101  0.00  0.00    -0.505 OA
ATOM     23  H   UNL     1      37.078 -24.242 -10.233  0.00  0.00    +0.292 HD
ENDBRANCH  15  22
TORSDOF 3
ENDMDL
MODEL 3
REMARK VINA RESULT:      -9.9      7.761     11.161
REMARK  Name = 3220
REMARK  3 active torsions:
REMARK  status: ('A' for Active; 'I' for Inactive)
REMARK    1  A    between atoms: C_10  and  O_18
REMARK    2  A    between atoms: C_12  and  O_20
REMARK    3  A    between atoms: C_15  and  O_22
REMARK                            x       y       z     vdW  Elec       q    Type
REMARK                         _______ _______ _______ _____ _____    ______ ____
ROOT
ATOM      1  O   UNL     1      35.634 -23.651 -14.104  0.00  0.00    -0.286 OA
ATOM      2  O   UNL     1      32.128 -22.887 -18.064  0.00  0.00    -0.287 OA
ATOM      3  C   UNL     1      34.341 -22.649 -17.314  0.00  0.00    +0.045 C 
ATOM      4  C   UNL     1      35.257 -22.849 -16.279  0.00  0.00    +0.076 C 
ATOM      5  C   UNL     1      33.421 -23.889 -14.854  0.00  0.00    +0.076 C 
ATOM      6  C   UNL     1      32.505 -23.690 -15.890  0.00  0.00    +0.048 C 
ATOM      7  C   UNL     1      34.831 -23.476 -15.011  0.00  0.00    +0.202 C 
ATOM      8  C   UNL     1      32.931 -23.063 -17.156  0.00  0.00    +0.196 C 
ATOM      9  C   UNL     1      34.757 -22.054 -18.511  0.00  0.00    -0.001 C 
ATOM     10  C   UNL     1      36.590 -22.453 -16.442  0.00  0.00    +0.136 C 
ATOM     11  C   UNL     1      36.087 -21.660 -18.667  0.00  0.00    -0.019 C 
ATOM     12  C   UNL     1      33.004 -24.485 -13.657  0.00  0.00    +0.140 C 
ATOM     13  C   UNL     1      31.172 -24.087 -15.727  0.00  0.00    +0.040 C 
ATOM     14  C   UNL     1      37.001 -21.860 -17.635  0.00  0.00    +0.032 C 
ATOM     15  C   UNL     1      30.762 -24.681 -14.534  0.00  0.00    +0.137 C 
ATOM     16  C   UNL     1      31.675 -24.879 -13.501  0.00  0.00    +0.073 C 
ATOM     17  C   UNL     1      36.530 -21.026 -19.942  0.00  0.00    +0.031 C 
ENDROOT
BRANCH  10  18
ATOM     18  O   UNL     1      37.537 -22.616 -15.473  0.00  0.00    -0.505 OA
ATOM     19  H   UNL     1      38.273 -22.037 -15.435  0.00  0.00    +0.292 HD
ENDBRANCH  10  18
BRANCH  12  20
ATOM     20  O   UNL     1      33.845 -24.709 -12.608  0.00  0.00    -0.505 OA
ATOM     21  H   UNL     1      33.779 -24.185 -11.834  0.00  0.00    +0.292 HD
ENDBRANCH  12  20
BRANCH  15  22
ATOM     22  O   UNL     1      29.465 -25.067 -14.378  0.00  0.00    -0.505 OA
ATOM     23  H   UNL     1      28.895 -25.109 -15.120  0.00  0.00    +0.292 HD
ENDBRANCH  15  22
TORSDOF 3
ENDMDL
MODEL 4
REMARK VINA RESULT:      -9.9      1.145      5.432
REMARK  Name = 3220
REMARK  3 active torsions:
REMARK  status: ('A' for Active; 'I' for Inactive)
REMARK    1  A    between atoms: C_10  and  O_18
REMARK    2  A    between atoms: C_12  and  O_20
REMARK    3  A    between atoms: C_15  and  O_22
REMARK                            x       y       z     vdW  Elec       q    Type
REMARK                         _______ _______ _______ _____ _____    ______ ____
ROOT
ATOM      1  O   UNL     1      34.053 -17.258 -25.808  0.00  0.00    -0.286 OA
ATOM      2  O   UNL     1      34.736 -15.104 -20.965  0.00  0.00    -0.287 OA
ATOM      3  C   UNL     1      34.817 -17.039 -22.294  0.00  0.00    +0.045 C 
ATOM      4  C   UNL     1      34.638 -17.602 -23.559  0.00  0.00    +0.076 C 
ATOM      5  C   UNL     1      33.972 -15.322 -24.480  0.00  0.00    +0.076 C 
ATOM      6  C   UNL     1      34.152 -14.759 -23.213  0.00  0.00    +0.048 C 
ATOM      7  C   UNL     1      34.210 -16.764 -24.699  0.00  0.00    +0.202 C 
ATOM      8  C   UNL     1      34.579 -15.597 -22.075  0.00  0.00    +0.196 C 
ATOM      9  C   UNL     1      35.222 -17.843 -21.222  0.00  0.00    -0.001 C 
ATOM     10  C   UNL     1      34.866 -18.969 -23.753  0.00  0.00    +0.136 C 
ATOM     11  C   UNL     1      35.448 -19.206 -21.421  0.00  0.00    -0.019 C 
ATOM     12  C   UNL     1      33.566 -14.517 -25.551  0.00  0.00    +0.140 C 
ATOM     13  C   UNL     1      33.925 -13.391 -23.020  0.00  0.00    +0.040 C 
ATOM     14  C   UNL     1      35.270 -19.767 -22.683  0.00  0.00    +0.032 C 
ATOM     15  C   UNL     1      33.522 -12.593 -24.091  0.00  0.00    +0.137 C 
ATOM     16  C   UNL     1      33.342 -13.154 -25.353  0.00  0.00    +0.073 C 
ATOM     17  C   UNL     1      35.880 -20.062 -20.279  0.00  0.00    +0.031 C 
ENDROOT
BRANCH  10  18
ATOM     18  O   UNL     1      34.710 -19.584 -24.960  0.00  0.00    -0.505 OA
ATOM     19  H   UNL     1      35.460 -19.891 -25.431  0.00  0.00    +0.292 HD
ENDBRANCH  10  18
BRANCH  12  20
ATOM     20  O   UNL     1      33.373 -15.000 -26.811  0.00  0.00    -0.505 OA
ATOM     21  H   UNL     1      32.733 -14.607 -27.371  0.00  0.00    +0.292 HD
ENDBRANCH  12  20
BRANCH  15  22
ATOM     22  O   UNL     1      33.301 -11.263 -23.901  0.00  0.00    -0.505 OA
ATOM     23  H   UNL     1      32.954 -10.956 -23.086  0.00  0.00    +0.292 HD
ENDBRANCH  15  22
TORSDOF 3
ENDMDL
MODEL 5
REMARK VINA RESULT:      -9.7     10.229     12.252
REMARK  Name = 3220
REMARK  3 active torsions:
REMARK  status: ('A' for Active; 'I' for Inactive)
REMARK    1  A    between atoms: C_10  and  O_18
REMARK    2  A    between atoms: C_12  and  O_20
REMARK    3  A    between atoms: C_15  and  O_22
REMARK                            x       y       z     vdW  Elec       q    Type
REMARK                         _______ _______ _______ _____ _____    ______ ____
ROOT
ATOM      1  O   UNL     1      33.146 -24.938 -12.712  0.00  0.00    -0.286 OA
ATOM      2  O   UNL     1      33.802 -22.615 -17.480  0.00  0.00    -0.287 OA
ATOM      3  C   UNL     1      32.296 -23.395 -15.855  0.00  0.00    +0.045 C 
ATOM      4  C   UNL     1      32.125 -24.002 -14.608  0.00  0.00    +0.076 C 
ATOM      5  C   UNL     1      34.653 -24.158 -14.337  0.00  0.00    +0.076 C 
ATOM      6  C   UNL     1      34.823 -23.549 -15.583  0.00  0.00    +0.048 C 
ATOM      7  C   UNL     1      33.296 -24.405 -13.804  0.00  0.00    +0.202 C 
ATOM      8  C   UNL     1      33.652 -23.148 -16.387  0.00  0.00    +0.196 C 
ATOM      9  C   UNL     1      31.178 -23.017 -16.607  0.00  0.00    -0.001 C 
ATOM     10  C   UNL     1      30.835 -24.231 -14.115  0.00  0.00    +0.136 C 
ATOM     11  C   UNL     1      29.894 -23.248 -16.112  0.00  0.00    -0.019 C 
ATOM     12  C   UNL     1      35.771 -24.535 -13.585  0.00  0.00    +0.140 C 
ATOM     13  C   UNL     1      36.114 -23.320 -16.076  0.00  0.00    +0.040 C 
ATOM     14  C   UNL     1      29.723 -23.853 -14.869  0.00  0.00    +0.032 C 
ATOM     15  C   UNL     1      37.225 -23.696 -15.322  0.00  0.00    +0.137 C 
ATOM     16  C   UNL     1      37.054 -24.303 -14.080  0.00  0.00    +0.073 C 
ATOM     17  C   UNL     1      28.703 -22.846 -16.914  0.00  0.00    +0.031 C 
ENDROOT
BRANCH  10  18
ATOM     18  O   UNL     1      30.595 -24.819 -12.909  0.00  0.00    -0.505 OA
ATOM     19  H   UNL     1      29.716 -24.889 -12.588  0.00  0.00    +0.292 HD
ENDBRANCH  10  18
BRANCH  12  20
ATOM     20  O   UNL     1      35.677 -25.131 -12.362  0.00  0.00    -0.505 OA
ATOM     21  H   UNL     1      36.274 -25.813 -12.125  0.00  0.00    +0.292 HD
ENDBRANCH  12  20
BRANCH  15  22
ATOM     22  O   UNL     1      38.479 -23.472 -15.803  0.00  0.00    -0.505 OA
ATOM     23  H   UNL     1      38.634 -22.766 -16.399  0.00  0.00    +0.292 HD
ENDBRANCH  15  22
TORSDOF 3
ENDMDL
MODEL 6
REMARK VINA RESULT:      -9.7      8.047     11.599
REMARK  Name = 3220
REMARK  3 active torsions:
REMARK  status: ('A' for Active; 'I' for Inactive)
REMARK    1  A    between atoms: C_10  and  O_18
REMARK    2  A    between atoms: C_12  and  O_20
REMARK    3  A    between atoms: C_15  and  O_22
REMARK                            x       y       z     vdW  Elec       q    Type
REMARK                         _______ _______ _______ _____ _____    ______ ____
ROOT
ATOM      1  O   UNL     1      35.547 -23.679 -14.088  0.00  0.00    -0.286 OA
ATOM      2  O   UNL     1      32.297 -22.763 -18.230  0.00  0.00    -0.287 OA
ATOM      3  C   UNL     1      32.526 -23.604 -16.049  0.00  0.00    +0.045 C 
ATOM      4  C   UNL     1      33.375 -23.844 -14.966  0.00  0.00    +0.076 C 
ATOM      5  C   UNL     1      35.319 -22.838 -16.269  0.00  0.00    +0.076 C 
ATOM      6  C   UNL     1      34.468 -22.598 -17.351  0.00  0.00    +0.048 C 
ATOM      7  C   UNL     1      34.803 -23.469 -15.036  0.00  0.00    +0.202 C 
ATOM      8  C   UNL     1      33.043 -22.973 -17.281  0.00  0.00    +0.196 C 
ATOM      9  C   UNL     1      31.175 -23.964 -15.970  0.00  0.00    -0.001 C 
ATOM     10  C   UNL     1      32.873 -24.442 -13.804  0.00  0.00    +0.136 C 
ATOM     11  C   UNL     1      30.680 -24.561 -14.810  0.00  0.00    -0.019 C 
ATOM     12  C   UNL     1      36.670 -22.478 -16.348  0.00  0.00    +0.140 C 
ATOM     13  C   UNL     1      34.971 -21.998 -18.513  0.00  0.00    +0.040 C 
ATOM     14  C   UNL     1      31.527 -24.799 -13.730  0.00  0.00    +0.032 C 
ATOM     15  C   UNL     1      36.317 -21.640 -18.587  0.00  0.00    +0.137 C 
ATOM     16  C   UNL     1      37.165 -21.880 -17.507  0.00  0.00    +0.073 C 
ATOM     17  C   UNL     1      29.241 -24.944 -14.727  0.00  0.00    +0.031 C 
ENDROOT
BRANCH  10  18
ATOM     18  O   UNL     1      33.645 -24.706 -12.712  0.00  0.00    -0.505 OA
ATOM     19  H   UNL     1      34.206 -25.458 -12.704  0.00  0.00    +0.292 HD
ENDBRANCH  10  18
BRANCH  12  20
ATOM     20  O   UNL     1      37.553 -22.683 -15.331  0.00  0.00    -0.505 OA
ATOM     21  H   UNL     1      38.409 -22.303 -15.368  0.00  0.00    +0.292 HD
ENDBRANCH  12  20
BRANCH  15  22
ATOM     22  O   UNL     1      36.804 -21.057 -19.717  0.00  0.00    -0.505 OA
ATOM     23  H   UNL     1      37.018 -21.584 -20.462  0.00  0.00    +0.292 HD
ENDBRANCH  15  22
TORSDOF 3
ENDMDL
MODEL 7
REMARK VINA RESULT:      -9.4      1.448      6.232
REMARK  Name = 3220
REMARK  3 active torsions:
REMARK  status: ('A' for Active; 'I' for Inactive)
REMARK    1  A    between atoms: C_10  and  O_18
REMARK    2  A    between atoms: C_12  and  O_20
REMARK    3  A    between atoms: C_15  and  O_22
REMARK                            x       y       z     vdW  Elec       q    Type
REMARK                         _______ _______ _______ _____ _____    ______ ____
ROOT
ATOM      1  O   UNL     1      34.315 -13.794 -21.883  0.00  0.00    -0.286 OA
ATOM      2  O   UNL     1      33.977 -17.502 -25.716  0.00  0.00    -0.287 OA
ATOM      3  C   UNL     1      34.445 -17.029 -23.464  0.00  0.00    +0.045 C 
ATOM      4  C   UNL     1      34.534 -16.059 -22.462  0.00  0.00    +0.076 C 
ATOM      5  C   UNL     1      33.846 -14.267 -24.136  0.00  0.00    +0.076 C 
ATOM      6  C   UNL     1      33.757 -15.237 -25.137  0.00  0.00    +0.048 C 
ATOM      7  C   UNL     1      34.237 -14.643 -22.761  0.00  0.00    +0.202 C 
ATOM      8  C   UNL     1      34.055 -16.652 -24.838  0.00  0.00    +0.196 C 
ATOM      9  C   UNL     1      34.729 -18.367 -23.167  0.00  0.00    -0.001 C 
ATOM     10  C   UNL     1      34.905 -16.429 -21.164  0.00  0.00    +0.136 C 
ATOM     11  C   UNL     1      35.100 -18.730 -21.873  0.00  0.00    -0.019 C 
ATOM     12  C   UNL     1      33.562 -12.928 -24.432  0.00  0.00    +0.140 C 
ATOM     13  C   UNL     1      33.384 -14.867 -26.435  0.00  0.00    +0.040 C 
ATOM     14  C   UNL     1      35.187 -17.764 -20.873  0.00  0.00    +0.032 C 
ATOM     15  C   UNL     1      33.102 -13.532 -26.726  0.00  0.00    +0.137 C 
ATOM     16  C   UNL     1      33.191 -12.565 -25.727  0.00  0.00    +0.073 C 
ATOM     17  C   UNL     1      35.402 -20.156 -21.558  0.00  0.00    +0.031 C 
ENDROOT
BRANCH  10  18
ATOM     18  O   UNL     1      35.012 -15.536 -20.139  0.00  0.00    -0.505 OA
ATOM     19  H   UNL     1      34.603 -15.717 -19.315  0.00  0.00    +0.292 HD
ENDBRANCH  10  18
BRANCH  12  20
ATOM     20  O   UNL     1      33.629 -11.932 -23.504  0.00  0.00    -0.505 OA
ATOM     21  H   UNL     1      32.861 -11.680 -23.030  0.00  0.00    +0.292 HD
ENDBRANCH  12  20
BRANCH  15  22
ATOM     22  O   UNL     1      32.740 -13.174 -27.988  0.00  0.00    -0.505 OA
ATOM     23  H   UNL     1      32.180 -13.732 -28.492  0.00  0.00    +0.292 HD
ENDBRANCH  15  22
TORSDOF 3
ENDMDL
MODEL 8
REMARK VINA RESULT:      -9.4      9.846     12.301
REMARK  Name = 3220
REMARK  3 active torsions:
REMARK  status: ('A' for Active; 'I' for Inactive)
REMARK    1  A    between atoms: C_10  and  O_18
REMARK    2  A    between atoms: C_12  and  O_20
REMARK    3  A    between atoms: C_15  and  O_22
REMARK                            x       y       z     vdW  Elec       q    Type
REMARK                         _______ _______ _______ _____ _____    ______ ____
ROOT
ATOM      1  O   UNL     1      32.664 -24.637 -12.986  0.00  0.00    -0.286 OA
ATOM      2  O   UNL     1      32.540 -22.619 -17.933  0.00  0.00    -0.287 OA
ATOM      3  C   UNL     1      33.843 -23.167 -16.057  0.00  0.00    +0.045 C 
ATOM      4  C   UNL     1      33.875 -23.695 -14.764  0.00  0.00    +0.076 C 
ATOM      5  C   UNL     1      31.361 -24.090 -14.862  0.00  0.00    +0.076 C 
ATOM      6  C   UNL     1      31.329 -23.563 -16.155  0.00  0.00    +0.048 C 
ATOM      7  C   UNL     1      32.636 -24.175 -14.119  0.00  0.00    +0.202 C 
ATOM      8  C   UNL     1      32.568 -23.082 -16.799  0.00  0.00    +0.196 C 
ATOM      9  C   UNL     1      35.024 -22.715 -16.656  0.00  0.00    -0.001 C 
ATOM     10  C   UNL     1      35.089 -23.770 -14.071  0.00  0.00    +0.136 C 
ATOM     11  C   UNL     1      36.231 -22.792 -15.962  0.00  0.00    -0.019 C 
ATOM     12  C   UNL     1      30.179 -24.542 -14.262  0.00  0.00    +0.140 C 
ATOM     13  C   UNL     1      30.114 -23.489 -16.848  0.00  0.00    +0.040 C 
ATOM     14  C   UNL     1      36.264 -23.318 -14.673  0.00  0.00    +0.032 C 
ATOM     15  C   UNL     1      28.940 -23.941 -16.247  0.00  0.00    +0.137 C 
ATOM     16  C   UNL     1      28.972 -24.466 -14.957  0.00  0.00    +0.073 C 
ATOM     17  C   UNL     1      37.490 -22.310 -16.601  0.00  0.00    +0.031 C 
ENDROOT
BRANCH  10  18
ATOM     18  O   UNL     1      35.194 -24.272 -12.807  0.00  0.00    -0.505 OA
ATOM     19  H   UNL     1      35.672 -25.064 -12.655  0.00  0.00    +0.292 HD
ENDBRANCH  10  18
BRANCH  12  20
ATOM     20  O   UNL     1      30.139 -25.067 -13.005  0.00  0.00    -0.505 OA
ATOM     21  H   UNL     1      30.916 -25.096 -12.483  0.00  0.00    +0.292 HD
ENDBRANCH  12  20
BRANCH  15  22
ATOM     22  O   UNL     1      27.760 -23.868 -16.922  0.00  0.00    -0.505 OA
ATOM     23  H   UNL     1      27.032 -23.412 -16.548  0.00  0.00    +0.292 HD
ENDBRANCH  15  22
TORSDOF 3
ENDMDL
MODEL 9
REMARK VINA RESULT:      -9.4      6.957      9.827
REMARK  Name = 3220
REMARK  3 active torsions:
REMARK  status: ('A' for Active; 'I' for Inactive)
REMARK    1  A    between atoms: C_10  and  O_18
REMARK    2  A    between atoms: C_12  and  O_20
REMARK    3  A    between atoms: C_15  and  O_22
REMARK                            x       y       z     vdW  Elec       q    Type
REMARK                         _______ _______ _______ _____ _____    ______ ____
ROOT
ATOM      1  O   UNL     1      32.102 -23.026 -17.694  0.00  0.00    -0.286 OA
ATOM      2  O   UNL     1      37.072 -22.538 -15.792  0.00  0.00    -0.287 OA
ATOM      3  C   UNL     1      35.591 -22.137 -17.571  0.00  0.00    +0.045 C 
ATOM      4  C   UNL     1      34.292 -22.265 -18.068  0.00  0.00    +0.076 C 
ATOM      5  C   UNL     1      33.582 -23.426 -15.915  0.00  0.00    +0.076 C 
ATOM      6  C   UNL     1      34.882 -23.297 -15.418  0.00  0.00    +0.048 C 
ATOM      7  C   UNL     1      33.240 -22.914 -17.259  0.00  0.00    +0.202 C 
ATOM      8  C   UNL     1      35.933 -22.650 -16.228  0.00  0.00    +0.196 C 
ATOM      9  C   UNL     1      36.579 -21.520 -18.348  0.00  0.00    -0.001 C 
ATOM     10  C   UNL     1      33.981 -21.775 -19.342  0.00  0.00    +0.136 C 
ATOM     11  C   UNL     1      36.264 -21.035 -19.617  0.00  0.00    -0.019 C 
ATOM     12  C   UNL     1      32.595 -24.043 -15.138  0.00  0.00    +0.140 C 
ATOM     13  C   UNL     1      35.192 -23.787 -14.143  0.00  0.00    +0.040 C 
ATOM     14  C   UNL     1      34.969 -21.161 -20.113  0.00  0.00    +0.032 C 
ATOM     15  C   UNL     1      34.204 -24.400 -13.372  0.00  0.00    +0.137 C 
ATOM     16  C   UNL     1      32.909 -24.528 -13.868  0.00  0.00    +0.073 C 
ATOM     17  C   UNL     1      37.317 -20.378 -20.445  0.00  0.00    +0.031 C 
ENDROOT
BRANCH  10  18
ATOM     18  O   UNL     1      32.736 -21.867 -19.890  0.00  0.00    -0.505 OA
ATOM     19  H   UNL     1      32.304 -21.096 -20.205  0.00  0.00    +0.292 HD
ENDBRANCH  10  18
BRANCH  12  20
ATOM     20  O   UNL     1      31.308 -24.201 -15.561  0.00  0.00    -0.505 OA
ATOM     21  H   UNL     1      30.625 -24.352 -14.938  0.00  0.00    +0.292 HD
ENDBRANCH  12  20
BRANCH  15  22
ATOM     22  O   UNL     1      34.508 -24.875 -12.133  0.00  0.00    -0.505 OA
ATOM     23  H   UNL     1      34.495 -24.300 -11.393  0.00  0.00    +0.292 HD
ENDBRANCH  15  22
TORSDOF 3
ENDMDL
