MODEL 1
REMARK VINA RESULT:     -11.4      0.000      0.000
REMARK  Name = 6419789
REMARK  3 active torsions:
REMARK  status: ('A' for Active; 'I' for Inactive)
REMARK    1  A    between atoms: N_4  and  C_13
REMARK    2  A    between atoms: C_5  and  C_19
REMARK    3  A    between atoms: C_22  and  N_25
REMARK                            x       y       z     vdW  Elec       q    Type
REMARK                         _______ _______ _______ _____ _____    ______ ____
ROOT
ATOM      1  N   UNL     1      35.980 -23.207 -14.696  0.00  0.00    -0.164 N 
ATOM      2  N   UNL     1      34.876 -22.761 -16.785  0.00  0.00    -0.374 NA
ATOM      3  N   UNL     1      35.704 -23.638 -13.438  0.00  0.00    -0.174 NA
ATOM      4  N   UNL     1      36.118 -21.997 -18.598  0.00  0.00    -0.288 N 
ATOM      5  C   UNL     1      33.798 -23.587 -14.684  0.00  0.00    +0.134 C 
ATOM      6  C   UNL     1      34.835 -23.164 -15.485  0.00  0.00    +0.194 C 
ATOM      7  C   UNL     1      34.390 -23.862 -13.445  0.00  0.00    +0.104 C 
ATOM      8  C   UNL     1      36.039 -22.408 -17.286  0.00  0.00    +0.186 C 
ATOM      9  C   UNL     1      37.213 -22.835 -15.215  0.00  0.00    +0.096 C 
ATOM     10  C   UNL     1      37.313 -22.431 -16.485  0.00  0.00    +0.066 C 
ATOM     11  H   UNL     1      36.966 -22.174 -19.066  0.00  0.00    +0.155 HD
ENDROOT
BRANCH   4  13
ATOM     12 CL   UNL     1      34.870 -18.554 -22.191  0.00  0.00    -0.082 Cl
ATOM     13  C   UNL     1      35.123 -21.358 -19.329  0.00  0.00    +0.051 C 
ATOM     14  C   UNL     1      35.450 -20.383 -20.287  0.00  0.00    +0.026 C 
ATOM     15  C   UNL     1      33.770 -21.673 -19.124  0.00  0.00    +0.015 C 
ATOM     16  C   UNL     1      34.450 -19.744 -21.021  0.00  0.00    +0.059 C 
ATOM     17  C   UNL     1      32.771 -21.032 -19.857  0.00  0.00    +0.002 C 
ATOM     18  C   UNL     1      33.110 -20.067 -20.805  0.00  0.00    +0.011 C 
ENDBRANCH   4  13
BRANCH   5  19
ATOM     19  C   UNL     1      32.435 -23.691 -15.111  0.00  0.00    -0.008 C 
ATOM     20  C   UNL     1      31.578 -24.614 -14.508  0.00  0.00    +0.011 C 
ATOM     21  C   UNL     1      31.957 -22.869 -16.135  0.00  0.00    -0.003 C 
ATOM     22  C   UNL     1      30.251 -24.715 -14.925  0.00  0.00    +0.041 C 
ATOM     23  C   UNL     1      30.630 -22.970 -16.552  0.00  0.00    +0.001 C 
ATOM     24  C   UNL     1      29.777 -23.893 -15.948  0.00  0.00    +0.014 C 
BRANCH  22  25
ATOM     25  N   UNL     1      29.388 -25.649 -14.314  0.00  0.00    -0.357 N 
ATOM     26  H   UNL     1      29.760 -26.440 -13.862  0.00  0.00    +0.142 HD
ATOM     27  H   UNL     1      28.414 -25.510 -14.342  0.00  0.00    +0.142 HD
ENDBRANCH  22  25
ENDBRANCH   5  19
TORSDOF 3
ENDMDL
MODEL 2
REMARK VINA RESULT:     -10.9     11.906     15.319
REMARK  Name = 6419789
REMARK  3 active torsions:
REMARK  status: ('A' for Active; 'I' for Inactive)
REMARK    1  A    between atoms: N_4  and  C_13
REMARK    2  A    between atoms: C_5  and  C_19
REMARK    3  A    between atoms: C_22  and  N_25
REMARK                            x       y       z     vdW  Elec       q    Type
REMARK                         _______ _______ _______ _____ _____    ______ ____
ROOT
ATOM      1  N   UNL     1      31.840  -8.989 -19.741  0.00  0.00    -0.164 N 
ATOM      2  N   UNL     1      32.108 -10.049 -21.882  0.00  0.00    -0.374 NA
ATOM      3  N   UNL     1      31.986  -7.775 -19.149  0.00  0.00    -0.174 NA
ATOM      4  N   UNL     1      31.617 -12.312 -22.110  0.00  0.00    -0.288 N 
ATOM      5  C   UNL     1      32.556  -7.646 -21.350  0.00  0.00    +0.134 C 
ATOM      6  C   UNL     1      32.180  -8.944 -21.089  0.00  0.00    +0.194 C 
ATOM      7  C   UNL     1      32.416  -6.978 -20.127  0.00  0.00    +0.104 C 
ATOM      8  C   UNL     1      31.705 -11.175 -21.337  0.00  0.00    +0.186 C 
ATOM      9  C   UNL     1      31.413 -10.173 -19.156  0.00  0.00    +0.096 C 
ATOM     10  C   UNL     1      31.323 -11.289 -19.885  0.00  0.00    +0.066 C 
ATOM     11  H   UNL     1      30.932 -12.970 -21.852  0.00  0.00    +0.155 HD
ENDROOT
BRANCH   4  13
ATOM     12 CL   UNL     1      34.995 -10.763 -25.648  0.00  0.00    -0.082 Cl
ATOM     13  C   UNL     1      32.400 -12.625 -23.216  0.00  0.00    +0.051 C 
ATOM     14  C   UNL     1      33.216 -11.652 -23.817  0.00  0.00    +0.026 C 
ATOM     15  C   UNL     1      32.390 -13.922 -23.755  0.00  0.00    +0.015 C 
ATOM     16  C   UNL     1      34.001 -11.968 -24.926  0.00  0.00    +0.059 C 
ATOM     17  C   UNL     1      33.175 -14.237 -24.865  0.00  0.00    +0.002 C 
ATOM     18  C   UNL     1      33.980 -13.261 -25.451  0.00  0.00    +0.011 C 
ENDBRANCH   4  13
BRANCH   5  19
ATOM     19  C   UNL     1      32.983  -7.168 -22.631  0.00  0.00    -0.008 C 
ATOM     20  C   UNL     1      32.179  -6.287 -23.357  0.00  0.00    +0.011 C 
ATOM     21  C   UNL     1      34.208  -7.583 -23.159  0.00  0.00    -0.003 C 
ATOM     22  C   UNL     1      32.596  -5.823 -24.605  0.00  0.00    +0.041 C 
ATOM     23  C   UNL     1      34.626  -7.120 -24.407  0.00  0.00    +0.001 C 
ATOM     24  C   UNL     1      33.820  -6.240 -25.130  0.00  0.00    +0.014 C 
BRANCH  22  25
ATOM     25  N   UNL     1      31.782  -4.934 -25.336  0.00  0.00    -0.357 N 
ATOM     26  H   UNL     1      31.859  -3.963 -25.190  0.00  0.00    +0.142 HD
ATOM     27  H   UNL     1      31.136  -5.284 -25.991  0.00  0.00    +0.142 HD
ENDBRANCH  22  25
ENDBRANCH   5  19
TORSDOF 3
ENDMDL
MODEL 3
REMARK VINA RESULT:     -10.6      2.461      5.955
REMARK  Name = 6419789
REMARK  3 active torsions:
REMARK  status: ('A' for Active; 'I' for Inactive)
REMARK    1  A    between atoms: N_4  and  C_13
REMARK    2  A    between atoms: C_5  and  C_19
REMARK    3  A    between atoms: C_22  and  N_25
REMARK                            x       y       z     vdW  Elec       q    Type
REMARK                         _______ _______ _______ _____ _____    ______ ____
ROOT
ATOM      1  N   UNL     1      36.561 -23.375 -14.175  0.00  0.00    -0.164 N 
ATOM      2  N   UNL     1      34.230 -23.176 -14.727  0.00  0.00    -0.374 NA
ATOM      3  N   UNL     1      37.787 -23.220 -14.739  0.00  0.00    -0.174 NA
ATOM      4  N   UNL     1      32.625 -23.642 -13.108  0.00  0.00    -0.288 N 
ATOM      5  C   UNL     1      36.159 -22.737 -16.258  0.00  0.00    +0.134 C 
ATOM      6  C   UNL     1      35.543 -23.087 -15.077  0.00  0.00    +0.194 C 
ATOM      7  C   UNL     1      37.530 -22.837 -15.990  0.00  0.00    +0.104 C 
ATOM      8  C   UNL     1      33.942 -23.544 -13.498  0.00  0.00    +0.186 C 
ATOM      9  C   UNL     1      36.268 -23.765 -12.876  0.00  0.00    +0.096 C 
ATOM     10  C   UNL     1      34.998 -23.870 -12.475  0.00  0.00    +0.066 C 
ATOM     11  H   UNL     1      32.431 -23.468 -12.158  0.00  0.00    +0.155 HD
ENDROOT
BRANCH   4  13
ATOM     12 CL   UNL     1      28.743 -22.025 -16.047  0.00  0.00    -0.082 Cl
ATOM     13  C   UNL     1      31.541 -23.962 -13.918  0.00  0.00    +0.051 C 
ATOM     14  C   UNL     1      30.766 -22.952 -14.513  0.00  0.00    +0.026 C 
ATOM     15  C   UNL     1      31.199 -25.303 -14.159  0.00  0.00    +0.015 C 
ATOM     16  C   UNL     1      29.680 -23.275 -15.327  0.00  0.00    +0.059 C 
ATOM     17  C   UNL     1      30.111 -25.625 -14.971  0.00  0.00    +0.002 C 
ATOM     18  C   UNL     1      29.352 -24.612 -15.555  0.00  0.00    +0.011 C 
ENDBRANCH   4  13
BRANCH   5  19
ATOM     19  C   UNL     1      35.466 -22.366 -17.454  0.00  0.00    -0.008 C 
ATOM     20  C   UNL     1      36.095 -21.567 -18.411  0.00  0.00    +0.011 C 
ATOM     21  C   UNL     1      34.156 -22.800 -17.668  0.00  0.00    -0.003 C 
ATOM     22  C   UNL     1      35.419 -21.205 -19.577  0.00  0.00    +0.041 C 
ATOM     23  C   UNL     1      33.479 -22.438 -18.833  0.00  0.00    +0.001 C 
ATOM     24  C   UNL     1      34.110 -21.640 -19.787  0.00  0.00    +0.014 C 
BRANCH  22  25
ATOM     25  N   UNL     1      36.057 -20.398 -20.542  0.00  0.00    -0.357 N 
ATOM     26  H   UNL     1      35.555 -20.082 -21.328  0.00  0.00    +0.142 HD
ATOM     27  H   UNL     1      37.003 -20.152 -20.429  0.00  0.00    +0.142 HD
ENDBRANCH  22  25
ENDBRANCH   5  19
TORSDOF 3
ENDMDL
MODEL 4
REMARK VINA RESULT:     -10.2      3.218      5.812
REMARK  Name = 6419789
REMARK  3 active torsions:
REMARK  status: ('A' for Active; 'I' for Inactive)
REMARK    1  A    between atoms: N_4  and  C_13
REMARK    2  A    between atoms: C_5  and  C_19
REMARK    3  A    between atoms: C_22  and  N_25
REMARK                            x       y       z     vdW  Elec       q    Type
REMARK                         _______ _______ _______ _____ _____    ______ ____
ROOT
ATOM      1  N   UNL     1      34.905 -22.167 -18.155  0.00  0.00    -0.164 N 
ATOM      2  N   UNL     1      35.377 -22.926 -15.922  0.00  0.00    -0.374 NA
ATOM      3  N   UNL     1      33.869 -22.060 -19.026  0.00  0.00    -0.174 NA
ATOM      4  N   UNL     1      37.543 -22.764 -15.091  0.00  0.00    -0.288 N 
ATOM      5  C   UNL     1      33.153 -22.976 -17.068  0.00  0.00    +0.134 C 
ATOM      6  C   UNL     1      34.501 -22.724 -16.946  0.00  0.00    +0.194 C 
ATOM      7  C   UNL     1      32.823 -22.549 -18.360  0.00  0.00    +0.104 C 
ATOM      8  C   UNL     1      36.631 -22.577 -16.105  0.00  0.00    +0.186 C 
ATOM      9  C   UNL     1      36.227 -21.797 -18.358  0.00  0.00    +0.096 C 
ATOM     10  C   UNL     1      37.131 -21.971 -17.389  0.00  0.00    +0.066 C 
ATOM     11  H   UNL     1      38.297 -22.131 -15.051  0.00  0.00    +0.155 HD
ENDROOT
BRANCH   4  13
ATOM     12 CL   UNL     1      35.686 -24.414 -10.602  0.00  0.00    -0.082 Cl
ATOM     13  C   UNL     1      37.510 -23.756 -14.117  0.00  0.00    +0.051 C 
ATOM     14  C   UNL     1      36.708 -23.612 -12.972  0.00  0.00    +0.026 C 
ATOM     15  C   UNL     1      38.278 -24.923 -14.258  0.00  0.00    +0.015 C 
ATOM     16  C   UNL     1      36.675 -24.608 -11.997  0.00  0.00    +0.059 C 
ATOM     17  C   UNL     1      38.245 -25.919 -13.281  0.00  0.00    +0.002 C 
ATOM     18  C   UNL     1      37.444 -25.762 -12.151  0.00  0.00    +0.011 C 
ENDBRANCH   4  13
BRANCH   5  19
ATOM     19  C   UNL     1      32.341 -23.554 -16.040  0.00  0.00    -0.008 C 
ATOM     20  C   UNL     1      30.954 -23.618 -16.192  0.00  0.00    +0.011 C 
ATOM     21  C   UNL     1      32.934 -24.056 -14.879  0.00  0.00    -0.003 C 
ATOM     22  C   UNL     1      30.164 -24.180 -15.190  0.00  0.00    +0.041 C 
ATOM     23  C   UNL     1      32.144 -24.619 -13.876  0.00  0.00    +0.001 C 
ATOM     24  C   UNL     1      30.759 -24.681 -14.031  0.00  0.00    +0.014 C 
BRANCH  22  25
ATOM     25  N   UNL     1      28.763 -24.243 -15.346  0.00  0.00    -0.357 N 
ATOM     26  H   UNL     1      28.373 -24.791 -16.064  0.00  0.00    +0.142 HD
ATOM     27  H   UNL     1      28.178 -23.737 -14.738  0.00  0.00    +0.142 HD
ENDBRANCH  22  25
ENDBRANCH   5  19
TORSDOF 3
ENDMDL
MODEL 5
REMARK VINA RESULT:     -10.1     11.843     15.024
REMARK  Name = 6419789
REMARK  3 active torsions:
REMARK  status: ('A' for Active; 'I' for Inactive)
REMARK    1  A    between atoms: N_4  and  C_13
REMARK    2  A    between atoms: C_5  and  C_19
REMARK    3  A    between atoms: C_22  and  N_25
REMARK                            x       y       z     vdW  Elec       q    Type
REMARK                         _______ _______ _______ _____ _____    ______ ____
ROOT
ATOM      1  N   UNL     1      31.853  -9.913 -19.894  0.00  0.00    -0.164 N 
ATOM      2  N   UNL     1      32.035 -10.551 -22.205  0.00  0.00    -0.374 NA
ATOM      3  N   UNL     1      31.816  -8.800 -19.116  0.00  0.00    -0.174 NA
ATOM      4  N   UNL     1      32.020 -12.806 -22.776  0.00  0.00    -0.288 N 
ATOM      5  C   UNL     1      32.022  -8.216 -21.308  0.00  0.00    +0.134 C 
ATOM      6  C   UNL     1      31.978  -9.590 -21.242  0.00  0.00    +0.194 C 
ATOM      7  C   UNL     1      31.918  -7.788 -19.979  0.00  0.00    +0.104 C 
ATOM      8  C   UNL     1      31.968 -11.808 -21.828  0.00  0.00    +0.186 C 
ATOM      9  C   UNL     1      31.782 -11.237 -19.486  0.00  0.00    +0.096 C 
ATOM     10  C   UNL     1      31.833 -12.222 -20.387  0.00  0.00    +0.066 C 
ATOM     11  H   UNL     1      31.538 -13.639 -22.568  0.00  0.00    +0.155 HD
ENDROOT
BRANCH   4  13
ATOM     12 CL   UNL     1      35.333 -10.377 -25.850  0.00  0.00    -0.082 Cl
ATOM     13  C   UNL     1      32.685 -12.758 -23.997  0.00  0.00    +0.051 C 
ATOM     14  C   UNL     1      33.577 -11.712 -24.288  0.00  0.00    +0.026 C 
ATOM     15  C   UNL     1      32.478 -13.754 -24.964  0.00  0.00    +0.015 C 
ATOM     16  C   UNL     1      34.244 -11.666 -25.512  0.00  0.00    +0.059 C 
ATOM     17  C   UNL     1      33.145 -13.707 -26.189  0.00  0.00    +0.002 C 
ATOM     18  C   UNL     1      34.027 -12.663 -26.463  0.00  0.00    +0.011 C 
ENDBRANCH   4  13
BRANCH   5  19
ATOM     19  C   UNL     1      32.147  -7.467 -22.522  0.00  0.00    -0.008 C 
ATOM     20  C   UNL     1      33.380  -7.384 -23.172  0.00  0.00    +0.011 C 
ATOM     21  C   UNL     1      31.035  -6.815 -23.061  0.00  0.00    -0.003 C 
ATOM     22  C   UNL     1      33.502  -6.654 -24.355  0.00  0.00    +0.041 C 
ATOM     23  C   UNL     1      31.156  -6.085 -24.244  0.00  0.00    +0.001 C 
ATOM     24  C   UNL     1      32.389  -6.004 -24.890  0.00  0.00    +0.014 C 
BRANCH  22  25
ATOM     25  N   UNL     1      34.749  -6.572 -25.009  0.00  0.00    -0.357 N 
ATOM     26  H   UNL     1      34.868  -5.950 -25.763  0.00  0.00    +0.142 HD
ATOM     27  H   UNL     1      35.498  -7.137 -24.713  0.00  0.00    +0.142 HD
ENDBRANCH  22  25
ENDBRANCH   5  19
TORSDOF 3
ENDMDL
MODEL 6
REMARK VINA RESULT:     -10.1      9.124     13.440
REMARK  Name = 6419789
REMARK  3 active torsions:
REMARK  status: ('A' for Active; 'I' for Inactive)
REMARK    1  A    between atoms: N_4  and  C_13
REMARK    2  A    between atoms: C_5  and  C_19
REMARK    3  A    between atoms: C_22  and  N_25
REMARK                            x       y       z     vdW  Elec       q    Type
REMARK                         _______ _______ _______ _____ _____    ______ ____
ROOT
ATOM      1  N   UNL     1      31.980 -10.138 -21.730  0.00  0.00    -0.164 N 
ATOM      2  N   UNL     1      32.691 -12.299 -22.507  0.00  0.00    -0.374 NA
ATOM      3  N   UNL     1      32.047  -8.827 -22.079  0.00  0.00    -0.174 NA
ATOM      4  N   UNL     1      32.147 -14.196 -21.274  0.00  0.00    -0.288 N 
ATOM      5  C   UNL     1      33.129 -10.104 -23.623  0.00  0.00    +0.134 C 
ATOM      6  C   UNL     1      32.632 -10.947 -22.655  0.00  0.00    +0.194 C 
ATOM      7  C   UNL     1      32.740  -8.822 -23.218  0.00  0.00    +0.104 C 
ATOM      8  C   UNL     1      32.110 -12.831 -21.455  0.00  0.00    +0.186 C 
ATOM      9  C   UNL     1      31.363 -10.690 -20.616  0.00  0.00    +0.096 C 
ATOM     10  C   UNL     1      31.389 -12.011 -20.418  0.00  0.00    +0.066 C 
ATOM     11  H   UNL     1      31.386 -14.600 -20.798  0.00  0.00    +0.155 HD
ENDROOT
BRANCH   4  13
ATOM     12 CL   UNL     1      34.628 -16.447 -25.160  0.00  0.00    -0.082 Cl
ATOM     13  C   UNL     1      33.152 -15.061 -21.694  0.00  0.00    +0.051 C 
ATOM     14  C   UNL     1      33.368 -15.300 -23.061  0.00  0.00    +0.026 C 
ATOM     15  C   UNL     1      33.971 -15.714 -20.758  0.00  0.00    +0.015 C 
ATOM     16  C   UNL     1      34.377 -16.167 -23.481  0.00  0.00    +0.059 C 
ATOM     17  C   UNL     1      34.979 -16.582 -21.179  0.00  0.00    +0.002 C 
ATOM     18  C   UNL     1      35.182 -16.809 -22.539  0.00  0.00    +0.011 C 
ENDBRANCH   4  13
BRANCH   5  19
ATOM     19  C   UNL     1      33.874 -10.535 -24.768  0.00  0.00    -0.008 C 
ATOM     20  C   UNL     1      33.430 -11.619 -25.528  0.00  0.00    +0.011 C 
ATOM     21  C   UNL     1      35.049  -9.872 -25.129  0.00  0.00    -0.003 C 
ATOM     22  C   UNL     1      34.156 -12.039 -26.642  0.00  0.00    +0.041 C 
ATOM     23  C   UNL     1      35.776 -10.292 -26.243  0.00  0.00    +0.001 C 
ATOM     24  C   UNL     1      35.330 -11.375 -27.000  0.00  0.00    +0.014 C 
BRANCH  22  25
ATOM     25  N   UNL     1      33.705 -13.135 -27.407  0.00  0.00    -0.357 N 
ATOM     26  H   UNL     1      34.350 -13.797 -27.746  0.00  0.00    +0.142 HD
ATOM     27  H   UNL     1      32.746 -13.236 -27.603  0.00  0.00    +0.142 HD
ENDBRANCH  22  25
ENDBRANCH   5  19
TORSDOF 3
ENDMDL
MODEL 7
REMARK VINA RESULT:      -9.8      2.883      5.831
REMARK  Name = 6419789
REMARK  3 active torsions:
REMARK  status: ('A' for Active; 'I' for Inactive)
REMARK    1  A    between atoms: N_4  and  C_13
REMARK    2  A    between atoms: C_5  and  C_19
REMARK    3  A    between atoms: C_22  and  N_25
REMARK                            x       y       z     vdW  Elec       q    Type
REMARK                         _______ _______ _______ _____ _____    ______ ____
ROOT
ATOM      1  N   UNL     1      35.962 -22.078 -17.832  0.00  0.00    -0.164 N 
ATOM      2  N   UNL     1      34.108 -23.099 -16.692  0.00  0.00    -0.374 NA
ATOM      3  N   UNL     1      37.289 -21.840 -17.666  0.00  0.00    -0.174 NA
ATOM      4  N   UNL     1      32.009 -23.104 -17.695  0.00  0.00    -0.288 N 
ATOM      5  C   UNL     1      36.462 -22.949 -15.858  0.00  0.00    +0.134 C 
ATOM      6  C   UNL     1      35.425 -22.755 -16.742  0.00  0.00    +0.194 C 
ATOM      7  C   UNL     1      37.575 -22.370 -16.477  0.00  0.00    +0.104 C 
ATOM      8  C   UNL     1      33.345 -22.771 -17.711  0.00  0.00    +0.186 C 
ATOM      9  C   UNL     1      35.165 -21.726 -18.912  0.00  0.00    +0.096 C 
ATOM     10  C   UNL     1      33.865 -22.037 -18.918  0.00  0.00    +0.066 C 
ATOM     11  H   UNL     1      31.584 -23.271 -18.568  0.00  0.00    +0.155 HD
ENDROOT
BRANCH   4  13
ATOM     12 CL   UNL     1      27.417 -22.377 -15.524  0.00  0.00    -0.082 Cl
ATOM     13  C   UNL     1      31.197 -23.229 -16.572  0.00  0.00    +0.051 C 
ATOM     14  C   UNL     1      29.863 -22.791 -16.599  0.00  0.00    +0.026 C 
ATOM     15  C   UNL     1      31.696 -23.795 -15.388  0.00  0.00    +0.015 C 
ATOM     16  C   UNL     1      29.050 -22.918 -15.472  0.00  0.00    +0.059 C 
ATOM     17  C   UNL     1      30.883 -23.921 -14.262  0.00  0.00    +0.002 C 
ATOM     18  C   UNL     1      29.560 -23.482 -14.303  0.00  0.00    +0.011 C 
ENDBRANCH   4  13
BRANCH   5  19
ATOM     19  C   UNL     1      36.336 -23.614 -14.596  0.00  0.00    -0.008 C 
ATOM     20  C   UNL     1      37.305 -24.532 -14.185  0.00  0.00    +0.011 C 
ATOM     21  C   UNL     1      35.241 -23.347 -13.770  0.00  0.00    -0.003 C 
ATOM     22  C   UNL     1      37.181 -25.179 -12.955  0.00  0.00    +0.041 C 
ATOM     23  C   UNL     1      35.117 -23.994 -12.540  0.00  0.00    +0.001 C 
ATOM     24  C   UNL     1      36.087 -24.910 -12.133  0.00  0.00    +0.014 C 
BRANCH  22  25
ATOM     25  N   UNL     1      38.161 -26.106 -12.543  0.00  0.00    -0.357 N 
ATOM     26  H   UNL     1      37.935 -26.801 -11.884  0.00  0.00    +0.142 HD
ATOM     27  H   UNL     1      39.071 -26.057 -12.914  0.00  0.00    +0.142 HD
ENDBRANCH  22  25
ENDBRANCH   5  19
TORSDOF 3
ENDMDL
MODEL 8
REMARK VINA RESULT:      -9.8     10.636     14.468
REMARK  Name = 6419789
REMARK  3 active torsions:
REMARK  status: ('A' for Active; 'I' for Inactive)
REMARK    1  A    between atoms: N_4  and  C_13
REMARK    2  A    between atoms: C_5  and  C_19
REMARK    3  A    between atoms: C_22  and  N_25
REMARK                            x       y       z     vdW  Elec       q    Type
REMARK                         _______ _______ _______ _____ _____    ______ ____
ROOT
ATOM      1  N   UNL     1      31.781  -9.005 -19.846  0.00  0.00    -0.164 N 
ATOM      2  N   UNL     1      32.258 -10.595 -21.585  0.00  0.00    -0.374 NA
ATOM      3  N   UNL     1      31.967  -7.692 -19.549  0.00  0.00    -0.174 NA
ATOM      4  N   UNL     1      31.563 -12.802 -21.341  0.00  0.00    -0.288 N 
ATOM      5  C   UNL     1      32.880  -8.172 -21.580  0.00  0.00    +0.134 C 
ATOM      6  C   UNL     1      32.328  -9.331 -21.083  0.00  0.00    +0.194 C 
ATOM      7  C   UNL     1      32.628  -7.205 -20.599  0.00  0.00    +0.104 C 
ATOM      8  C   UNL     1      31.654 -11.514 -20.864  0.00  0.00    +0.186 C 
ATOM      9  C   UNL     1      31.142  -9.967 -19.077  0.00  0.00    +0.096 C 
ATOM     10  C   UNL     1      31.044 -11.224 -19.518  0.00  0.00    +0.066 C 
ATOM     11  H   UNL     1      30.778 -13.325 -21.057  0.00  0.00    +0.155 HD
ENDROOT
BRANCH   4  13
ATOM     12 CL   UNL     1      33.083 -13.851 -26.128  0.00  0.00    -0.082 Cl
ATOM     13  C   UNL     1      32.467 -13.442 -22.182  0.00  0.00    +0.051 C 
ATOM     14  C   UNL     1      32.343 -13.343 -23.578  0.00  0.00    +0.026 C 
ATOM     15  C   UNL     1      33.525 -14.199 -21.653  0.00  0.00    +0.015 C 
ATOM     16  C   UNL     1      33.251 -13.984 -24.420  0.00  0.00    +0.059 C 
ATOM     17  C   UNL     1      34.433 -14.841 -22.496  0.00  0.00    +0.002 C 
ATOM     18  C   UNL     1      34.297 -14.733 -23.879  0.00  0.00    +0.011 C 
ENDBRANCH   4  13
BRANCH   5  19
ATOM     19  C   UNL     1      33.549  -8.070 -22.841  0.00  0.00    -0.008 C 
ATOM     20  C   UNL     1      34.186  -9.185 -23.391  0.00  0.00    +0.011 C 
ATOM     21  C   UNL     1      33.569  -6.854 -23.527  0.00  0.00    -0.003 C 
ATOM     22  C   UNL     1      34.839  -9.085 -24.620  0.00  0.00    +0.041 C 
ATOM     23  C   UNL     1      34.222  -6.753 -24.756  0.00  0.00    +0.001 C 
ATOM     24  C   UNL     1      34.857  -7.868 -25.302  0.00  0.00    +0.014 C 
BRANCH  22  25
ATOM     25  N   UNL     1      35.481 -10.212 -25.173  0.00  0.00    -0.357 N 
ATOM     26  H   UNL     1      35.027 -11.086 -25.172  0.00  0.00    +0.142 HD
ATOM     27  H   UNL     1      36.382 -10.126 -25.557  0.00  0.00    +0.142 HD
ENDBRANCH  22  25
ENDBRANCH   5  19
TORSDOF 3
ENDMDL
MODEL 9
REMARK VINA RESULT:      -9.8      8.844     13.239
REMARK  Name = 6419789
REMARK  3 active torsions:
REMARK  status: ('A' for Active; 'I' for Inactive)
REMARK    1  A    between atoms: N_4  and  C_13
REMARK    2  A    between atoms: C_5  and  C_19
REMARK    3  A    between atoms: C_22  and  N_25
REMARK                            x       y       z     vdW  Elec       q    Type
REMARK                         _______ _______ _______ _____ _____    ______ ____
ROOT
ATOM      1  N   UNL     1      32.074 -10.650 -21.704  0.00  0.00    -0.164 N 
ATOM      2  N   UNL     1      32.825 -12.723 -22.663  0.00  0.00    -0.374 NA
ATOM      3  N   UNL     1      32.097  -9.315 -21.951  0.00  0.00    -0.174 NA
ATOM      4  N   UNL     1      32.364 -14.725 -21.570  0.00  0.00    -0.288 N 
ATOM      5  C   UNL     1      33.175 -10.436 -23.614  0.00  0.00    +0.134 C 
ATOM      6  C   UNL     1      32.726 -11.366 -22.704  0.00  0.00    +0.194 C 
ATOM      7  C   UNL     1      32.761  -9.201 -23.101  0.00  0.00    +0.104 C 
ATOM      8  C   UNL     1      32.285 -13.352 -21.643  0.00  0.00    +0.186 C 
ATOM      9  C   UNL     1      31.501 -11.305 -20.623  0.00  0.00    +0.096 C 
ATOM     10  C   UNL     1      31.567 -12.636 -20.530  0.00  0.00    +0.066 C 
ATOM     11  H   UNL     1      31.626 -15.187 -21.111  0.00  0.00    +0.155 HD
ENDROOT
BRANCH   4  13
ATOM     12 CL   UNL     1      35.708 -18.542 -20.812  0.00  0.00    -0.082 Cl
ATOM     13  C   UNL     1      33.381 -15.525 -22.079  0.00  0.00    +0.051 C 
ATOM     14  C   UNL     1      33.975 -16.522 -21.286  0.00  0.00    +0.026 C 
ATOM     15  C   UNL     1      33.836 -15.354 -23.396  0.00  0.00    +0.015 C 
ATOM     16  C   UNL     1      34.994 -17.325 -21.798  0.00  0.00    +0.059 C 
ATOM     17  C   UNL     1      34.856 -16.157 -23.907  0.00  0.00    +0.002 C 
ATOM     18  C   UNL     1      35.435 -17.142 -23.109  0.00  0.00    +0.011 C 
ENDBRANCH   4  13
BRANCH   5  19
ATOM     19  C   UNL     1      33.903 -10.756 -24.805  0.00  0.00    -0.008 C 
ATOM     20  C   UNL     1      33.497 -11.820 -25.613  0.00  0.00    +0.011 C 
ATOM     21  C   UNL     1      35.024 -10.003 -25.164  0.00  0.00    -0.003 C 
ATOM     22  C   UNL     1      34.206 -12.131 -26.773  0.00  0.00    +0.041 C 
ATOM     23  C   UNL     1      35.735 -10.314 -26.324  0.00  0.00    +0.001 C 
ATOM     24  C   UNL     1      35.326 -11.377 -27.128  0.00  0.00    +0.014 C 
BRANCH  22  25
ATOM     25  N   UNL     1      33.794 -13.206 -27.587  0.00  0.00    -0.357 N 
ATOM     26  H   UNL     1      34.454 -13.691 -28.132  0.00  0.00    +0.142 HD
ATOM     27  H   UNL     1      32.846 -13.470 -27.610  0.00  0.00    +0.142 HD
ENDBRANCH  22  25
ENDBRANCH   5  19
TORSDOF 3
ENDMDL
