MODEL 1
REMARK VINA RESULT:      -9.9      0.000      0.000
REMARK  Name = 24794392
REMARK  6 active torsions:
REMARK  status: ('A' for Active; 'I' for Inactive)
REMARK    1  A    between atoms: S_1  and  C_5
REMARK    2  A    between atoms: S_1  and  N_17
REMARK    3  A    between atoms: N_17  and  C_19
REMARK    4  A    between atoms: C_19  and  C_20
REMARK    5  A    between atoms: C_19  and  C_24
REMARK    6  A    between atoms: C_24  and  O_25
REMARK                            x       y       z     vdW  Elec       q    Type
REMARK                         _______ _______ _______ _____ _____    ______ ____
ROOT
ATOM      1  S   UNL     1      35.062 -24.586 -15.028  0.00  0.00    +0.061 S 
ATOM      2  O   UNL     1      33.658 -24.513 -14.644  0.00  0.00    -0.153 OA
ATOM      3  O   UNL     1      35.626 -25.867 -15.429  0.00  0.00    -0.153 OA
ENDROOT
BRANCH   1   5
ATOM      4  S   UNL     1      33.462 -21.716 -19.462  0.00  0.00    -0.087 S 
ATOM      5  C   UNL     1      35.350 -23.449 -16.321  0.00  0.00    +0.122 C 
ATOM      6  C   UNL     1      35.813 -21.611 -18.411  0.00  0.00    +0.007 A 
ATOM      7  C   UNL     1      34.571 -22.228 -18.257  0.00  0.00    +0.031 A 
ATOM      8  C   UNL     1      34.324 -23.148 -17.218  0.00  0.00    +0.026 C 
ATOM      9  C   UNL     1      35.832 -20.706 -19.546  0.00  0.00    +0.006 A 
ATOM     10  C   UNL     1      36.594 -22.851 -16.450  0.00  0.00    +0.020 C 
ATOM     11  C   UNL     1      36.834 -21.940 -17.481  0.00  0.00    +0.002 C 
ATOM     12  C   UNL     1      34.602 -20.673 -20.207  0.00  0.00    +0.029 A 
ATOM     13  C   UNL     1      36.876 -19.889 -20.054  0.00  0.00    +0.001 C 
ATOM     14  C   UNL     1      34.390 -19.862 -21.339  0.00  0.00    +0.006 C 
ATOM     15  C   UNL     1      36.670 -19.082 -21.176  0.00  0.00    +0.000 C 
ATOM     16  C   UNL     1      35.438 -19.070 -21.812  0.00  0.00    +0.001 C 
ENDBRANCH   1   5
BRANCH   1  17
ATOM     17  N   UNL     1      36.009 -23.947 -13.757  0.00  0.00    -0.170 NA
ATOM     18  H   UNL     1      35.481 -23.171 -13.357  0.00  0.00    +0.149 HD
BRANCH  17  19
ATOM     19  C   UNL     1      36.412 -24.809 -12.637  0.00  0.00    +0.174 C 
BRANCH  19  20
ATOM     20  C   UNL     1      37.854 -24.489 -12.198  0.00  0.00    +0.027 C 
ATOM     21  C   UNL     1      38.039 -22.990 -11.934  0.00  0.00    +0.002 C 
ATOM     22  C   UNL     1      38.864 -24.935 -13.262  0.00  0.00    +0.002 C 
ENDBRANCH  19  20
BRANCH  19  24
ATOM     23  O   UNL     1      35.340 -25.027 -10.464  0.00  0.00    -0.249 OA
ATOM     24  C   UNL     1      35.382 -24.500 -11.568  0.00  0.00    +0.330 C 
BRANCH  24  25
ATOM     25  O   UNL     1      34.511 -23.532 -11.956  0.00  0.00    -0.479 OA
ATOM     26  H   UNL     1      34.676 -22.637 -11.734  0.00  0.00    +0.295 HD
ENDBRANCH  24  25
ENDBRANCH  19  24
ENDBRANCH  17  19
ENDBRANCH   1  17
TORSDOF 6
ENDMDL
MODEL 2
REMARK VINA RESULT:      -9.8      3.930      5.832
REMARK  Name = 24794392
REMARK  6 active torsions:
REMARK  status: ('A' for Active; 'I' for Inactive)
REMARK    1  A    between atoms: S_1  and  C_5
REMARK    2  A    between atoms: S_1  and  N_17
REMARK    3  A    between atoms: N_17  and  C_19
REMARK    4  A    between atoms: C_19  and  C_20
REMARK    5  A    between atoms: C_19  and  C_24
REMARK    6  A    between atoms: C_24  and  O_25
REMARK                            x       y       z     vdW  Elec       q    Type
REMARK                         _______ _______ _______ _____ _____    ______ ____
ROOT
ATOM      1  S   UNL     1      37.484 -23.054 -14.715  0.00  0.00    +0.061 S 
ATOM      2  O   UNL     1      37.766 -22.080 -15.761  0.00  0.00    -0.153 OA
ATOM      3  O   UNL     1      37.890 -22.770 -13.346  0.00  0.00    -0.153 OA
ENDROOT
BRANCH   1   5
ATOM      4  S   UNL     1      32.487 -23.036 -17.058  0.00  0.00    -0.087 S 
ATOM      5  C   UNL     1      35.769 -23.384 -14.705  0.00  0.00    +0.122 C 
ATOM      6  C   UNL     1      32.998 -23.917 -14.691  0.00  0.00    +0.007 A 
ATOM      7  C   UNL     1      33.615 -23.341 -15.802  0.00  0.00    +0.031 A 
ATOM      8  C   UNL     1      34.998 -23.068 -15.824  0.00  0.00    +0.026 C 
ATOM      9  C   UNL     1      31.573 -24.102 -14.898  0.00  0.00    +0.006 A 
ATOM     10  C   UNL     1      35.183 -23.958 -13.587  0.00  0.00    +0.020 C 
ATOM     11  C   UNL     1      33.812 -24.226 -13.570  0.00  0.00    +0.002 C 
ATOM     12  C   UNL     1      31.167 -23.659 -16.157  0.00  0.00    +0.029 A 
ATOM     13  C   UNL     1      30.583 -24.645 -14.038  0.00  0.00    +0.001 C 
ATOM     14  C   UNL     1      29.824 -23.742 -16.575  0.00  0.00    +0.006 C 
ATOM     15  C   UNL     1      29.249 -24.730 -14.448  0.00  0.00    +0.000 C 
ATOM     16  C   UNL     1      28.875 -24.282 -15.705  0.00  0.00    +0.001 C 
ENDBRANCH   1   5
BRANCH   1  17
ATOM     17  N   UNL     1      38.145 -24.560 -15.179  0.00  0.00    -0.170 NA
ATOM     18  H   UNL     1      38.857 -24.365 -15.883  0.00  0.00    +0.149 HD
BRANCH  17  19
ATOM     19  C   UNL     1      38.771 -25.428 -14.171  0.00  0.00    +0.174 C 
BRANCH  19  20
ATOM     20  C   UNL     1      37.874 -26.644 -13.871  0.00  0.00    +0.027 C 
ATOM     21  C   UNL     1      36.857 -26.880 -14.994  0.00  0.00    +0.002 C 
ATOM     22  C   UNL     1      37.121 -26.459 -12.548  0.00  0.00    +0.002 C 
ENDBRANCH  19  20
BRANCH  19  24
ATOM     23  O   UNL     1      40.999 -26.402 -14.237  0.00  0.00    -0.249 OA
ATOM     24  C   UNL     1      40.094 -25.807 -14.807  0.00  0.00    +0.330 C 
BRANCH  24  25
ATOM     25  O   UNL     1      40.161 -25.441 -16.113  0.00  0.00    -0.479 OA
ATOM     26  H   UNL     1      40.028 -24.546 -16.356  0.00  0.00    +0.295 HD
ENDBRANCH  24  25
ENDBRANCH  19  24
ENDBRANCH  17  19
ENDBRANCH   1  17
TORSDOF 6
ENDMDL
MODEL 3
REMARK VINA RESULT:      -9.7     10.348     13.720
REMARK  Name = 24794392
REMARK  6 active torsions:
REMARK  status: ('A' for Active; 'I' for Inactive)
REMARK    1  A    between atoms: S_1  and  C_5
REMARK    2  A    between atoms: S_1  and  N_17
REMARK    3  A    between atoms: N_17  and  C_19
REMARK    4  A    between atoms: C_19  and  C_20
REMARK    5  A    between atoms: C_19  and  C_24
REMARK    6  A    between atoms: C_24  and  O_25
REMARK                            x       y       z     vdW  Elec       q    Type
REMARK                         _______ _______ _______ _____ _____    ______ ____
ROOT
ATOM      1  S   UNL     1      31.464 -11.166 -21.221  0.00  0.00    +0.061 S 
ATOM      2  O   UNL     1      30.020 -11.347 -21.294  0.00  0.00    -0.153 OA
ATOM      3  O   UNL     1      32.051 -10.586 -20.021  0.00  0.00    -0.153 OA
ENDROOT
BRANCH   1   5
ATOM      4  S   UNL     1      33.660 -15.008 -24.519  0.00  0.00    -0.087 S 
ATOM      5  C   UNL     1      32.236 -12.707 -21.500  0.00  0.00    +0.122 C 
ATOM      6  C   UNL     1      33.485 -15.196 -21.955  0.00  0.00    +0.007 A 
ATOM      7  C   UNL     1      33.181 -14.339 -23.013  0.00  0.00    +0.031 A 
ATOM      8  C   UNL     1      32.557 -13.093 -22.803  0.00  0.00    +0.026 C 
ATOM      9  C   UNL     1      34.122 -16.418 -22.412  0.00  0.00    +0.006 A 
ATOM     10  C   UNL     1      32.527 -13.538 -20.429  0.00  0.00    +0.020 C 
ATOM     11  C   UNL     1      33.145 -14.772 -20.643  0.00  0.00    +0.002 C 
ATOM     12  C   UNL     1      34.276 -16.438 -23.799  0.00  0.00    +0.029 A 
ATOM     13  C   UNL     1      34.588 -17.541 -21.680  0.00  0.00    +0.001 C 
ATOM     14  C   UNL     1      34.871 -17.528 -24.464  0.00  0.00    +0.006 C 
ATOM     15  C   UNL     1      35.180 -18.625 -22.335  0.00  0.00    +0.000 C 
ATOM     16  C   UNL     1      35.319 -18.617 -23.714  0.00  0.00    +0.001 C 
ENDBRANCH   1   5
BRANCH   1  17
ATOM     17  N   UNL     1      31.969 -10.251 -22.573  0.00  0.00    -0.170 NA
ATOM     18  H   UNL     1      31.123  -9.922 -23.039  0.00  0.00    +0.149 HD
BRANCH  17  19
ATOM     19  C   UNL     1      32.834  -9.077 -22.382  0.00  0.00    +0.174 C 
BRANCH  19  20
ATOM     20  C   UNL     1      33.666  -8.806 -23.649  0.00  0.00    +0.027 C 
ATOM     21  C   UNL     1      34.412 -10.064 -24.109  0.00  0.00    +0.002 C 
ATOM     22  C   UNL     1      34.684  -7.684 -23.409  0.00  0.00    +0.002 C 
ENDBRANCH  19  20
BRANCH  19  24
ATOM     23  O   UNL     1      31.057  -7.487 -22.866  0.00  0.00    -0.249 OA
ATOM     24  C   UNL     1      31.851  -7.966 -22.067  0.00  0.00    +0.330 C 
BRANCH  24  25
ATOM     25  O   UNL     1      31.920  -7.570 -20.769  0.00  0.00    -0.479 OA
ATOM     26  H   UNL     1      31.148  -7.277 -20.327  0.00  0.00    +0.295 HD
ENDBRANCH  24  25
ENDBRANCH  19  24
ENDBRANCH  17  19
ENDBRANCH   1  17
TORSDOF 6
ENDMDL
MODEL 4
REMARK VINA RESULT:      -9.4      1.911      2.830
REMARK  Name = 24794392
REMARK  6 active torsions:
REMARK  status: ('A' for Active; 'I' for Inactive)
REMARK    1  A    between atoms: S_1  and  C_5
REMARK    2  A    between atoms: S_1  and  N_17
REMARK    3  A    between atoms: N_17  and  C_19
REMARK    4  A    between atoms: C_19  and  C_20
REMARK    5  A    between atoms: C_19  and  C_24
REMARK    6  A    between atoms: C_24  and  O_25
REMARK                            x       y       z     vdW  Elec       q    Type
REMARK                         _______ _______ _______ _____ _____    ______ ____
ROOT
ATOM      1  S   UNL     1      36.101 -23.944 -15.231  0.00  0.00    +0.061 S 
ATOM      2  O   UNL     1      36.144 -23.137 -14.019  0.00  0.00    -0.153 OA
ATOM      3  O   UNL     1      35.045 -24.934 -15.392  0.00  0.00    -0.153 OA
ENDROOT
BRANCH   1   5
ATOM      4  S   UNL     1      33.499 -21.594 -19.494  0.00  0.00    -0.087 S 
ATOM      5  C   UNL     1      36.046 -22.878 -16.613  0.00  0.00    +0.122 C 
ATOM      6  C   UNL     1      35.955 -21.155 -18.846  0.00  0.00    +0.007 A 
ATOM      7  C   UNL     1      34.836 -21.892 -18.459  0.00  0.00    +0.031 A 
ATOM      8  C   UNL     1      34.865 -22.757 -17.346  0.00  0.00    +0.026 C 
ATOM      9  C   UNL     1      35.688 -20.338 -20.015  0.00  0.00    +0.006 A 
ATOM     10  C   UNL     1      37.175 -22.158 -16.974  0.00  0.00    +0.020 C 
ATOM     11  C   UNL     1      37.140 -21.302 -18.078  0.00  0.00    +0.002 C 
ATOM     12  C   UNL     1      34.377 -20.488 -20.468  0.00  0.00    +0.029 A 
ATOM     13  C   UNL     1      36.535 -19.450 -20.729  0.00  0.00    +0.001 C 
ATOM     14  C   UNL     1      33.895 -19.788 -21.593  0.00  0.00    +0.006 C 
ATOM     15  C   UNL     1      36.063 -18.753 -21.845  0.00  0.00    +0.000 C 
ATOM     16  C   UNL     1      34.755 -18.923 -22.271  0.00  0.00    +0.001 C 
ENDBRANCH   1   5
BRANCH   1  17
ATOM     17  N   UNL     1      37.611 -24.721 -15.425  0.00  0.00    -0.170 NA
ATOM     18  H   UNL     1      38.146 -24.161 -16.090  0.00  0.00    +0.149 HD
BRANCH  17  19
ATOM     19  C   UNL     1      38.478 -24.940 -14.258  0.00  0.00    +0.174 C 
BRANCH  19  20
ATOM     20  C   UNL     1      38.063 -26.220 -13.508  0.00  0.00    +0.027 C 
ATOM     21  C   UNL     1      37.271 -27.169 -14.416  0.00  0.00    +0.002 C 
ATOM     22  C   UNL     1      37.213 -25.884 -12.277  0.00  0.00    +0.002 C 
ENDBRANCH  19  20
BRANCH  19  24
ATOM     23  O   UNL     1      40.882 -24.579 -14.351  0.00  0.00    -0.249 OA
ATOM     24  C   UNL     1      39.865 -25.028 -14.863  0.00  0.00    +0.330 C 
BRANCH  24  25
ATOM     25  O   UNL     1      39.871 -25.702 -16.043  0.00  0.00    -0.479 OA
ATOM     26  H   UNL     1      39.325 -25.415 -16.748  0.00  0.00    +0.295 HD
ENDBRANCH  24  25
ENDBRANCH  19  24
ENDBRANCH  17  19
ENDBRANCH   1  17
TORSDOF 6
ENDMDL
MODEL 5
REMARK VINA RESULT:      -9.3      1.294      2.068
REMARK  Name = 24794392
REMARK  6 active torsions:
REMARK  status: ('A' for Active; 'I' for Inactive)
REMARK    1  A    between atoms: S_1  and  C_5
REMARK    2  A    between atoms: S_1  and  N_17
REMARK    3  A    between atoms: N_17  and  C_19
REMARK    4  A    between atoms: C_19  and  C_20
REMARK    5  A    between atoms: C_19  and  C_24
REMARK    6  A    between atoms: C_24  and  O_25
REMARK                            x       y       z     vdW  Elec       q    Type
REMARK                         _______ _______ _______ _____ _____    ______ ____
ROOT
ATOM      1  S   UNL     1      34.745 -24.554 -15.019  0.00  0.00    +0.061 S 
ATOM      2  O   UNL     1      33.522 -24.597 -14.228  0.00  0.00    -0.153 OA
ATOM      3  O   UNL     1      35.331 -25.799 -15.496  0.00  0.00    -0.153 OA
ENDROOT
BRANCH   1   5
ATOM      4  S   UNL     1      36.520 -21.229 -19.050  0.00  0.00    -0.087 S 
ATOM      5  C   UNL     1      34.480 -23.525 -16.405  0.00  0.00    +0.122 C 
ATOM      6  C   UNL     1      34.056 -21.862 -18.644  0.00  0.00    +0.007 A 
ATOM      7  C   UNL     1      35.339 -22.080 -18.142  0.00  0.00    +0.031 A 
ATOM      8  C   UNL     1      35.567 -22.907 -17.024  0.00  0.00    +0.026 C 
ATOM      9  C   UNL     1      34.066 -20.977 -19.795  0.00  0.00    +0.006 A 
ATOM     10  C   UNL     1      33.194 -23.327 -16.882  0.00  0.00    +0.020 C 
ATOM     11  C   UNL     1      32.972 -22.506 -17.990  0.00  0.00    +0.002 C 
ATOM     12  C   UNL     1      35.358 -20.560 -20.119  0.00  0.00    +0.029 A 
ATOM     13  C   UNL     1      32.997 -20.500 -20.598  0.00  0.00    +0.001 C 
ATOM     14  C   UNL     1      35.608 -19.695 -21.204  0.00  0.00    +0.006 C 
ATOM     15  C   UNL     1      33.240 -19.643 -21.675  0.00  0.00    +0.000 C 
ATOM     16  C   UNL     1      34.534 -19.245 -21.973  0.00  0.00    +0.001 C 
ENDBRANCH   1   5
BRANCH   1  17
ATOM     17  N   UNL     1      35.932 -23.692 -14.143  0.00  0.00    -0.170 NA
ATOM     18  H   UNL     1      35.464 -22.889 -13.724  0.00  0.00    +0.149 HD
BRANCH  17  19
ATOM     19  C   UNL     1      36.677 -24.360 -13.065  0.00  0.00    +0.174 C 
BRANCH  19  20
ATOM     20  C   UNL     1      38.180 -24.417 -13.400  0.00  0.00    +0.027 C 
ATOM     21  C   UNL     1      38.426 -24.236 -14.903  0.00  0.00    +0.002 C 
ATOM     22  C   UNL     1      38.792 -25.751 -12.954  0.00  0.00    +0.002 C 
ENDBRANCH  19  20
BRANCH  19  24
ATOM     23  O   UNL     1      37.208 -22.907 -11.188  0.00  0.00    -0.249 OA
ATOM     24  C   UNL     1      36.372 -23.509 -11.848  0.00  0.00    +0.330 C 
BRANCH  24  25
ATOM     25  O   UNL     1      35.041 -23.455 -11.578  0.00  0.00    -0.479 OA
ATOM     26  H   UNL     1      34.598 -22.630 -11.571  0.00  0.00    +0.295 HD
ENDBRANCH  24  25
ENDBRANCH  19  24
ENDBRANCH  17  19
ENDBRANCH   1  17
TORSDOF 6
ENDMDL
MODEL 6
REMARK VINA RESULT:      -9.3      5.926      9.640
REMARK  Name = 24794392
REMARK  6 active torsions:
REMARK  status: ('A' for Active; 'I' for Inactive)
REMARK    1  A    between atoms: S_1  and  C_5
REMARK    2  A    between atoms: S_1  and  N_17
REMARK    3  A    between atoms: N_17  and  C_19
REMARK    4  A    between atoms: C_19  and  C_20
REMARK    5  A    between atoms: C_19  and  C_24
REMARK    6  A    between atoms: C_24  and  O_25
REMARK                            x       y       z     vdW  Elec       q    Type
REMARK                         _______ _______ _______ _____ _____    ______ ____
ROOT
ATOM      1  S   UNL     1      35.209 -18.565 -22.833  0.00  0.00    +0.061 S 
ATOM      2  O   UNL     1      36.492 -17.943 -22.532  0.00  0.00    -0.153 OA
ATOM      3  O   UNL     1      35.057 -19.326 -24.065  0.00  0.00    -0.153 OA
ENDROOT
BRANCH   1   5
ATOM      4  S   UNL     1      36.427 -21.668 -18.434  0.00  0.00    -0.087 S 
ATOM      5  C   UNL     1      34.765 -19.608 -21.504  0.00  0.00    +0.122 C 
ATOM      6  C   UNL     1      34.051 -21.292 -19.356  0.00  0.00    +0.007 A 
ATOM      7  C   UNL     1      35.382 -20.947 -19.589  0.00  0.00    +0.031 A 
ATOM      8  C   UNL     1      35.756 -20.107 -20.658  0.00  0.00    +0.026 C 
ATOM      9  C   UNL     1      33.909 -22.164 -18.205  0.00  0.00    +0.006 A 
ATOM     10  C   UNL     1      33.434 -19.933 -21.298  0.00  0.00    +0.020 C 
ATOM     11  C   UNL     1      33.069 -20.766 -20.237  0.00  0.00    +0.002 C 
ATOM     12  C   UNL     1      35.140 -22.445 -17.610  0.00  0.00    +0.029 A 
ATOM     13  C   UNL     1      32.749 -22.743 -17.626  0.00  0.00    +0.001 C 
ATOM     14  C   UNL     1      35.243 -23.273 -16.474  0.00  0.00    +0.006 C 
ATOM     15  C   UNL     1      32.846 -23.564 -16.500  0.00  0.00    +0.000 C 
ATOM     16  C   UNL     1      34.082 -23.826 -15.931  0.00  0.00    +0.001 C 
ENDBRANCH   1   5
BRANCH   1  17
ATOM     17  N   UNL     1      33.994 -17.364 -22.780  0.00  0.00    -0.170 NA
ATOM     18  H   UNL     1      33.377 -17.604 -22.005  0.00  0.00    +0.149 HD
BRANCH  17  19
ATOM     19  C   UNL     1      34.366 -15.952 -22.607  0.00  0.00    +0.174 C 
BRANCH  19  20
ATOM     20  C   UNL     1      33.553 -15.057 -23.561  0.00  0.00    +0.027 C 
ATOM     21  C   UNL     1      33.685 -15.523 -25.016  0.00  0.00    +0.002 C 
ATOM     22  C   UNL     1      34.006 -13.596 -23.464  0.00  0.00    +0.002 C 
ENDBRANCH  19  20
BRANCH  19  24
ATOM     23  O   UNL     1      34.914 -15.527 -20.276  0.00  0.00    -0.249 OA
ATOM     24  C   UNL     1      34.067 -15.688 -21.144  0.00  0.00    +0.330 C 
BRANCH  24  25
ATOM     25  O   UNL     1      32.734 -15.612 -20.896  0.00  0.00    -0.479 OA
ATOM     26  H   UNL     1      32.119 -15.853 -21.561  0.00  0.00    +0.295 HD
ENDBRANCH  24  25
ENDBRANCH  19  24
ENDBRANCH  17  19
ENDBRANCH   1  17
TORSDOF 6
ENDMDL
MODEL 7
REMARK VINA RESULT:      -9.2      6.531      9.183
REMARK  Name = 24794392
REMARK  6 active torsions:
REMARK  status: ('A' for Active; 'I' for Inactive)
REMARK    1  A    between atoms: S_1  and  C_5
REMARK    2  A    between atoms: S_1  and  N_17
REMARK    3  A    between atoms: N_17  and  C_19
REMARK    4  A    between atoms: C_19  and  C_20
REMARK    5  A    between atoms: C_19  and  C_24
REMARK    6  A    between atoms: C_24  and  O_25
REMARK                            x       y       z     vdW  Elec       q    Type
REMARK                         _______ _______ _______ _____ _____    ______ ____
ROOT
ATOM      1  S   UNL     1      35.155 -18.347 -22.142  0.00  0.00    +0.061 S 
ATOM      2  O   UNL     1      34.485 -19.111 -23.186  0.00  0.00    -0.153 OA
ATOM      3  O   UNL     1      36.582 -18.081 -22.256  0.00  0.00    -0.153 OA
ENDROOT
BRANCH   1   5
ATOM      4  S   UNL     1      33.803 -13.291 -23.895  0.00  0.00    -0.087 S 
ATOM      5  C   UNL     1      34.341 -16.812 -21.961  0.00  0.00    +0.122 C 
ATOM      6  C   UNL     1      33.026 -14.333 -21.670  0.00  0.00    +0.007 A 
ATOM      7  C   UNL     1      33.795 -14.612 -22.800  0.00  0.00    +0.031 A 
ATOM      8  C   UNL     1      34.459 -15.845 -22.960  0.00  0.00    +0.026 C 
ATOM      9  C   UNL     1      32.441 -13.006 -21.726  0.00  0.00    +0.006 A 
ATOM     10  C   UNL     1      33.583 -16.564 -20.827  0.00  0.00    +0.020 C 
ATOM     11  C   UNL     1      32.927 -15.339 -20.674  0.00  0.00    +0.002 C 
ATOM     12  C   UNL     1      32.792 -12.331 -22.897  0.00  0.00    +0.029 A 
ATOM     13  C   UNL     1      31.604 -12.330 -20.800  0.00  0.00    +0.001 C 
ATOM     14  C   UNL     1      32.337 -11.024 -23.164  0.00  0.00    +0.006 C 
ATOM     15  C   UNL     1      31.150 -11.034 -21.061  0.00  0.00    +0.000 C 
ATOM     16  C   UNL     1      31.514 -10.389 -22.233  0.00  0.00    +0.001 C 
ENDBRANCH   1   5
BRANCH   1  17
ATOM     17  N   UNL     1      34.859 -19.101 -20.637  0.00  0.00    -0.170 NA
ATOM     18  H   UNL     1      34.148 -18.543 -20.163  0.00  0.00    +0.149 HD
BRANCH  17  19
ATOM     19  C   UNL     1      34.401 -20.497 -20.594  0.00  0.00    +0.174 C 
BRANCH  19  20
ATOM     20  C   UNL     1      35.131 -21.272 -19.481  0.00  0.00    +0.027 C 
ATOM     21  C   UNL     1      36.652 -21.227 -19.672  0.00  0.00    +0.002 C 
ATOM     22  C   UNL     1      34.678 -22.736 -19.442  0.00  0.00    +0.002 C 
ENDBRANCH  19  20
BRANCH  19  24
ATOM     23  O   UNL     1      32.350 -20.629 -19.294  0.00  0.00    -0.249 OA
ATOM     24  C   UNL     1      32.910 -20.371 -20.351  0.00  0.00    +0.330 C 
BRANCH  24  25
ATOM     25  O   UNL     1      32.249 -19.899 -21.440  0.00  0.00    -0.479 OA
ATOM     26  H   UNL     1      32.520 -20.154 -22.300  0.00  0.00    +0.295 HD
ENDBRANCH  24  25
ENDBRANCH  19  24
ENDBRANCH  17  19
ENDBRANCH   1  17
TORSDOF 6
ENDMDL
MODEL 8
REMARK VINA RESULT:      -9.2     10.210     13.785
REMARK  Name = 24794392
REMARK  6 active torsions:
REMARK  status: ('A' for Active; 'I' for Inactive)
REMARK    1  A    between atoms: S_1  and  C_5
REMARK    2  A    between atoms: S_1  and  N_17
REMARK    3  A    between atoms: N_17  and  C_19
REMARK    4  A    between atoms: C_19  and  C_20
REMARK    5  A    between atoms: C_19  and  C_24
REMARK    6  A    between atoms: C_24  and  O_25
REMARK                            x       y       z     vdW  Elec       q    Type
REMARK                         _______ _______ _______ _____ _____    ______ ____
ROOT
ATOM      1  S   UNL     1      31.436 -11.130 -21.113  0.00  0.00    +0.061 S 
ATOM      2  O   UNL     1      30.000 -11.363 -21.023  0.00  0.00    -0.153 OA
ATOM      3  O   UNL     1      32.176 -10.769 -19.912  0.00  0.00    -0.153 OA
ENDROOT
BRANCH   1   5
ATOM      4  S   UNL     1      34.196 -15.890 -20.688  0.00  0.00    -0.087 S 
ATOM      5  C   UNL     1      32.192 -12.546 -21.799  0.00  0.00    +0.122 C 
ATOM      6  C   UNL     1      33.415 -14.836 -22.906  0.00  0.00    +0.007 A 
ATOM      7  C   UNL     1      33.403 -14.621 -21.527  0.00  0.00    +0.031 A 
ATOM      8  C   UNL     1      32.796 -13.483 -20.959  0.00  0.00    +0.026 C 
ATOM      9  C   UNL     1      34.094 -16.070 -23.256  0.00  0.00    +0.006 A 
ATOM     10  C   UNL     1      32.189 -12.733 -23.173  0.00  0.00    +0.020 C 
ATOM     11  C   UNL     1      32.792 -13.863 -23.731  0.00  0.00    +0.002 C 
ATOM     12  C   UNL     1      34.569 -16.742 -22.129  0.00  0.00    +0.029 A 
ATOM     13  C   UNL     1      34.332 -16.660 -24.526  0.00  0.00    +0.001 C 
ATOM     14  C   UNL     1      35.261 -17.965 -22.231  0.00  0.00    +0.006 C 
ATOM     15  C   UNL     1      35.017 -17.873 -24.632  0.00  0.00    +0.000 C 
ATOM     16  C   UNL     1      35.477 -18.518 -23.495  0.00  0.00    +0.001 C 
ENDBRANCH   1   5
BRANCH   1  17
ATOM     17  N   UNL     1      31.723  -9.943 -22.309  0.00  0.00    -0.170 NA
ATOM     18  H   UNL     1      30.849  -9.431 -22.431  0.00  0.00    +0.149 HD
BRANCH  17  19
ATOM     19  C   UNL     1      32.780  -8.940 -22.108  0.00  0.00    +0.174 C 
BRANCH  19  20
ATOM     20  C   UNL     1      33.499  -8.638 -23.436  0.00  0.00    +0.027 C 
ATOM     21  C   UNL     1      34.157  -9.897 -24.015  0.00  0.00    +0.002 C 
ATOM     22  C   UNL     1      34.571  -7.559 -23.247  0.00  0.00    +0.002 C 
ENDBRANCH  19  20
BRANCH  19  24
ATOM     23  O   UNL     1      31.297  -7.015 -22.207  0.00  0.00    -0.249 OA
ATOM     24  C   UNL     1      32.029  -7.746 -21.553  0.00  0.00    +0.330 C 
BRANCH  24  25
ATOM     25  O   UNL     1      32.228  -7.586 -20.219  0.00  0.00    -0.479 OA
ATOM     26  H   UNL     1      32.461  -8.322 -19.689  0.00  0.00    +0.295 HD
ENDBRANCH  24  25
ENDBRANCH  19  24
ENDBRANCH  17  19
ENDBRANCH   1  17
TORSDOF 6
ENDMDL
MODEL 9
REMARK VINA RESULT:      -9.0      2.431      3.458
REMARK  Name = 24794392
REMARK  6 active torsions:
REMARK  status: ('A' for Active; 'I' for Inactive)
REMARK    1  A    between atoms: S_1  and  C_5
REMARK    2  A    between atoms: S_1  and  N_17
REMARK    3  A    between atoms: N_17  and  C_19
REMARK    4  A    between atoms: C_19  and  C_20
REMARK    5  A    between atoms: C_19  and  C_24
REMARK    6  A    between atoms: C_24  and  O_25
REMARK                            x       y       z     vdW  Elec       q    Type
REMARK                         _______ _______ _______ _____ _____    ______ ____
ROOT
ATOM      1  S   UNL     1      35.363 -23.822 -15.479  0.00  0.00    +0.061 S 
ATOM      2  O   UNL     1      36.135 -25.036 -15.711  0.00  0.00    -0.153 OA
ATOM      3  O   UNL     1      35.605 -23.043 -14.273  0.00  0.00    -0.153 OA
ENDROOT
BRANCH   1   5
ATOM      4  S   UNL     1      33.492 -21.252 -19.990  0.00  0.00    -0.087 S 
ATOM      5  C   UNL     1      35.565 -22.759 -16.850  0.00  0.00    +0.122 C 
ATOM      6  C   UNL     1      35.887 -21.041 -19.065  0.00  0.00    +0.007 A 
ATOM      7  C   UNL     1      34.668 -21.670 -18.813  0.00  0.00    +0.031 A 
ATOM      8  C   UNL     1      34.491 -22.532 -17.711  0.00  0.00    +0.026 C 
ATOM      9  C   UNL     1      35.832 -20.205 -20.250  0.00  0.00    +0.006 A 
ATOM     10  C   UNL     1      36.788 -22.147 -17.074  0.00  0.00    +0.020 C 
ATOM     11  C   UNL     1      36.959 -21.295 -18.168  0.00  0.00    +0.002 C 
ATOM     12  C   UNL     1      34.572 -20.235 -20.850  0.00  0.00    +0.029 A 
ATOM     13  C   UNL     1      36.833 -19.401 -20.856  0.00  0.00    +0.001 C 
ATOM     14  C   UNL     1      34.288 -19.497 -22.016  0.00  0.00    +0.006 C 
ATOM     15  C   UNL     1      36.556 -18.667 -22.012  0.00  0.00    +0.000 C 
ATOM     16  C   UNL     1      35.295 -18.716 -22.586  0.00  0.00    +0.001 C 
ENDBRANCH   1   5
BRANCH   1  17
ATOM     17  N   UNL     1      33.700 -24.209 -15.555  0.00  0.00    -0.170 NA
ATOM     18  H   UNL     1      33.610 -25.180 -15.259  0.00  0.00    +0.149 HD
BRANCH  17  19
ATOM     19  C   UNL     1      32.730 -23.432 -14.769  0.00  0.00    +0.174 C 
BRANCH  19  20
ATOM     20  C   UNL     1      31.339 -23.477 -15.429  0.00  0.00    +0.027 C 
ATOM     21  C   UNL     1      31.363 -22.854 -16.830  0.00  0.00    +0.002 C 
ATOM     22  C   UNL     1      30.302 -22.738 -14.575  0.00  0.00    +0.002 C 
ENDBRANCH  19  20
BRANCH  19  24
ATOM     23  O   UNL     1      32.216 -25.161 -13.137  0.00  0.00    -0.249 OA
ATOM     24  C   UNL     1      32.765 -24.101 -13.409  0.00  0.00    +0.330 C 
BRANCH  24  25
ATOM     25  O   UNL     1      33.513 -23.407 -12.512  0.00  0.00    -0.479 OA
ATOM     26  H   UNL     1      33.347 -22.496 -12.370  0.00  0.00    +0.295 HD
ENDBRANCH  24  25
ENDBRANCH  19  24
ENDBRANCH  17  19
ENDBRANCH   1  17
TORSDOF 6
ENDMDL
