MODEL 1
REMARK VINA RESULT:     -10.5      0.000      0.000
REMARK  Name = 5287969
REMARK  5 active torsions:
REMARK  status: ('A' for Active; 'I' for Inactive)
REMARK    1  A    between atoms: C_3  and  C_13
REMARK    2  A    between atoms: C_5  and  O_29
REMARK    3  A    between atoms: C_8  and  O_31
REMARK    4  A    between atoms: C_10  and  C_23
REMARK    5  A    between atoms: C_14  and  O_20
REMARK                            x       y       z     vdW  Elec       q    Type
REMARK                         _______ _______ _______ _____ _____    ______ ____
ROOT
ATOM      1  O   UNL     1      34.740 -22.707 -16.701  0.00  0.00    -0.453 OA
ATOM      2  O   UNL     1      38.696 -22.929 -15.750  0.00  0.00    -0.286 OA
ATOM      3  C   UNL     1      34.124 -23.847 -14.727  0.00  0.00    +0.048 C 
ATOM      4  C   UNL     1      35.130 -23.320 -15.537  0.00  0.00    +0.150 C 
ATOM      5  C   UNL     1      34.459 -24.482 -13.531  0.00  0.00    +0.136 C 
ATOM      6  C   UNL     1      36.464 -23.429 -15.151  0.00  0.00    +0.107 C 
ATOM      7  C   UNL     1      35.796 -24.590 -13.145  0.00  0.00    +0.073 C 
ATOM      8  C   UNL     1      36.804 -24.064 -13.954  0.00  0.00    +0.143 C 
ATOM      9  C   UNL     1      37.505 -22.866 -16.025  0.00  0.00    +0.205 C 
ATOM     10  C   UNL     1      35.717 -22.168 -17.524  0.00  0.00    +0.149 C 
ATOM     11  C   UNL     1      37.034 -22.216 -17.264  0.00  0.00    +0.080 C 
ENDROOT
BRANCH   3  13
ATOM     12  N   UNL     1      29.755 -23.721 -14.784  0.00  0.00    +0.387 N 
ATOM     13  C   UNL     1      32.666 -23.736 -15.139  0.00  0.00    +0.051 C 
ATOM     14  C   UNL     1      31.941 -22.581 -14.420  0.00  0.00    +0.094 C 
ATOM     15  C   UNL     1      31.846 -25.030 -15.003  0.00  0.00    -0.016 C 
ATOM     16  C   UNL     1      30.494 -22.454 -14.921  0.00  0.00    -0.047 C 
ATOM     17  C   UNL     1      30.415 -24.815 -15.508  0.00  0.00    -0.077 C 
ATOM     18  C   UNL     1      28.376 -23.562 -15.243  0.00  0.00    -0.101 C 
ATOM     19  H   UNL     1      29.746 -23.968 -13.795  0.00  0.00    -0.080 HD
BRANCH  14  20
ATOM     20  O   UNL     1      31.896 -22.791 -13.008  0.00  0.00    -0.386 OA
ATOM     21  H   UNL     1      31.324 -22.122 -12.600  0.00  0.00    +0.210 HD
ENDBRANCH  14  20
ENDBRANCH   3  13
BRANCH  10  23
ATOM     22 CL   UNL     1      32.677 -22.423 -18.118  0.00  0.00    -0.082 Cl
ATOM     23  C   UNL     1      35.188 -21.539 -18.751  0.00  0.00    +0.045 C 
ATOM     24  C   UNL     1      33.836 -21.600 -19.104  0.00  0.00    +0.061 C 
ATOM     25  C   UNL     1      36.086 -20.861 -19.582  0.00  0.00    +0.004 C 
ATOM     26  C   UNL     1      33.386 -20.989 -20.275  0.00  0.00    +0.011 C 
ATOM     27  C   UNL     1      35.636 -20.250 -20.754  0.00  0.00    +0.000 C 
ATOM     28  C   UNL     1      34.287 -20.315 -21.100  0.00  0.00    +0.001 C 
ENDBRANCH  10  23
BRANCH   5  29
ATOM     29  O   UNL     1      33.492 -25.003 -12.723  0.00  0.00    -0.506 OA
ATOM     30  H   UNL     1      33.696 -25.233 -11.838  0.00  0.00    +0.292 HD
ENDBRANCH   5  29
BRANCH   8  31
ATOM     31  O   UNL     1      38.092 -24.198 -13.533  0.00  0.00    -0.505 OA
ATOM     32  H   UNL     1      38.281 -24.659 -12.740  0.00  0.00    +0.292 HD
ENDBRANCH   8  31
TORSDOF 5
ENDMDL
MODEL 2
REMARK VINA RESULT:     -10.1      1.122      1.444
REMARK  Name = 5287969
REMARK  5 active torsions:
REMARK  status: ('A' for Active; 'I' for Inactive)
REMARK    1  A    between atoms: C_3  and  C_13
REMARK    2  A    between atoms: C_5  and  O_29
REMARK    3  A    between atoms: C_8  and  O_31
REMARK    4  A    between atoms: C_10  and  C_23
REMARK    5  A    between atoms: C_14  and  O_20
REMARK                            x       y       z     vdW  Elec       q    Type
REMARK                         _______ _______ _______ _____ _____    ______ ____
ROOT
ATOM      1  O   UNL     1      34.400 -22.553 -17.044  0.00  0.00    -0.453 OA
ATOM      2  O   UNL     1      38.374 -22.687 -16.154  0.00  0.00    -0.286 OA
ATOM      3  C   UNL     1      33.846 -23.767 -15.097  0.00  0.00    +0.048 C 
ATOM      4  C   UNL     1      34.824 -23.187 -15.905  0.00  0.00    +0.150 C 
ATOM      5  C   UNL     1      34.216 -24.427 -13.925  0.00  0.00    +0.136 C 
ATOM      6  C   UNL     1      36.167 -23.269 -15.540  0.00  0.00    +0.107 C 
ATOM      7  C   UNL     1      35.560 -24.508 -13.561  0.00  0.00    +0.073 C 
ATOM      8  C   UNL     1      36.541 -23.929 -14.368  0.00  0.00    +0.143 C 
ATOM      9  C   UNL     1      37.178 -22.651 -16.411  0.00  0.00    +0.205 C 
ATOM     10  C   UNL     1      35.349 -21.962 -17.864  0.00  0.00    +0.149 C 
ATOM     11  C   UNL     1      36.670 -21.979 -17.624  0.00  0.00    +0.080 C 
ENDROOT
BRANCH   3  13
ATOM     12  N   UNL     1      29.475 -23.692 -15.078  0.00  0.00    +0.387 N 
ATOM     13  C   UNL     1      32.379 -23.686 -15.485  0.00  0.00    +0.051 C 
ATOM     14  C   UNL     1      31.653 -22.516 -14.793  0.00  0.00    +0.094 C 
ATOM     15  C   UNL     1      31.577 -24.984 -15.290  0.00  0.00    -0.016 C 
ATOM     16  C   UNL     1      30.197 -22.422 -15.271  0.00  0.00    -0.047 C 
ATOM     17  C   UNL     1      30.135 -24.803 -15.776  0.00  0.00    -0.077 C 
ATOM     18  C   UNL     1      28.086 -23.564 -15.517  0.00  0.00    -0.101 C 
ATOM     19  H   UNL     1      29.487 -23.905 -14.081  0.00  0.00    -0.080 HD
BRANCH  14  20
ATOM     20  O   UNL     1      31.636 -22.678 -13.374  0.00  0.00    -0.386 OA
ATOM     21  H   UNL     1      31.364 -21.845 -12.957  0.00  0.00    +0.210 HD
ENDBRANCH  14  20
ENDBRANCH   3  13
BRANCH  10  23
ATOM     22 CL   UNL     1      37.308 -20.638 -19.881  0.00  0.00    -0.082 Cl
ATOM     23  C   UNL     1      34.785 -21.313 -19.065  0.00  0.00    +0.045 C 
ATOM     24  C   UNL     1      35.586 -20.691 -20.029  0.00  0.00    +0.061 C 
ATOM     25  C   UNL     1      33.396 -21.329 -19.230  0.00  0.00    +0.004 C 
ATOM     26  C   UNL     1      35.004 -20.091 -21.146  0.00  0.00    +0.011 C 
ATOM     27  C   UNL     1      32.814 -20.729 -20.348  0.00  0.00    +0.000 C 
ATOM     28  C   UNL     1      33.617 -20.110 -21.305  0.00  0.00    +0.001 C 
ENDBRANCH  10  23
BRANCH   5  29
ATOM     29  O   UNL     1      33.276 -24.999 -13.120  0.00  0.00    -0.506 OA
ATOM     30  H   UNL     1      33.141 -25.926 -13.144  0.00  0.00    +0.292 HD
ENDBRANCH   5  29
BRANCH   8  31
ATOM     31  O   UNL     1      37.839 -24.037 -13.968  0.00  0.00    -0.505 OA
ATOM     32  H   UNL     1      38.183 -24.870 -13.712  0.00  0.00    +0.292 HD
ENDBRANCH   8  31
TORSDOF 5
ENDMDL
MODEL 3
REMARK VINA RESULT:     -10.1      2.495      5.158
REMARK  Name = 5287969
REMARK  5 active torsions:
REMARK  status: ('A' for Active; 'I' for Inactive)
REMARK    1  A    between atoms: C_3  and  C_13
REMARK    2  A    between atoms: C_5  and  O_29
REMARK    3  A    between atoms: C_8  and  O_31
REMARK    4  A    between atoms: C_10  and  C_23
REMARK    5  A    between atoms: C_14  and  O_20
REMARK                            x       y       z     vdW  Elec       q    Type
REMARK                         _______ _______ _______ _____ _____    ______ ____
ROOT
ATOM      1  O   UNL     1      34.304 -22.925 -16.556  0.00  0.00    -0.453 OA
ATOM      2  O   UNL     1      30.246 -22.870 -16.914  0.00  0.00    -0.286 OA
ATOM      3  C   UNL     1      34.180 -24.018 -14.467  0.00  0.00    +0.048 C 
ATOM      4  C   UNL     1      33.523 -23.467 -15.567  0.00  0.00    +0.150 C 
ATOM      5  C   UNL     1      33.439 -24.584 -13.429  0.00  0.00    +0.136 C 
ATOM      6  C   UNL     1      32.131 -23.483 -15.626  0.00  0.00    +0.107 C 
ATOM      7  C   UNL     1      32.045 -24.599 -13.490  0.00  0.00    +0.073 C 
ATOM      8  C   UNL     1      31.385 -24.048 -14.589  0.00  0.00    +0.143 C 
ATOM      9  C   UNL     1      31.464 -22.893 -16.798  0.00  0.00    +0.205 C 
ATOM     10  C   UNL     1      33.680 -22.376 -17.665  0.00  0.00    +0.149 C 
ATOM     11  C   UNL     1      32.348 -22.325 -17.835  0.00  0.00    +0.080 C 
ENDROOT
BRANCH   3  13
ATOM     12  N   UNL     1      38.370 -24.959 -13.652  0.00  0.00    +0.387 N 
ATOM     13  C   UNL     1      35.697 -24.005 -14.389  0.00  0.00    +0.051 C 
ATOM     14  C   UNL     1      36.328 -25.246 -15.051  0.00  0.00    +0.094 C 
ATOM     15  C   UNL     1      36.280 -23.815 -12.979  0.00  0.00    -0.016 C 
ATOM     16  C   UNL     1      37.861 -25.157 -15.020  0.00  0.00    -0.047 C 
ATOM     17  C   UNL     1      37.810 -23.750 -13.034  0.00  0.00    -0.077 C 
ATOM     18  C   UNL     1      39.832 -24.905 -13.652  0.00  0.00    -0.101 C 
ATOM     19  H   UNL     1      38.071 -25.758 -13.093  0.00  0.00    -0.080 HD
BRANCH  14  20
ATOM     20  O   UNL     1      35.949 -26.447 -14.377  0.00  0.00    -0.386 OA
ATOM     21  H   UNL     1      35.561 -26.226 -13.516  0.00  0.00    +0.210 HD
ENDBRANCH  14  20
ENDBRANCH   3  13
BRANCH  10  23
ATOM     22 CL   UNL     1      36.710 -22.317 -16.980  0.00  0.00    -0.082 Cl
ATOM     23  C   UNL     1      34.613 -21.817 -18.664  0.00  0.00    +0.045 C 
ATOM     24  C   UNL     1      35.993 -21.747 -18.446  0.00  0.00    +0.061 C 
ATOM     25  C   UNL     1      34.081 -21.342 -19.867  0.00  0.00    +0.004 C 
ATOM     26  C   UNL     1      36.833 -21.209 -19.422  0.00  0.00    +0.011 C 
ATOM     27  C   UNL     1      34.921 -20.803 -20.843  0.00  0.00    +0.000 C 
ATOM     28  C   UNL     1      36.296 -20.736 -20.620  0.00  0.00    +0.001 C 
ENDBRANCH  10  23
BRANCH   5  29
ATOM     29  O   UNL     1      34.060 -25.129 -12.344  0.00  0.00    -0.506 OA
ATOM     30  H   UNL     1      34.848 -25.625 -12.457  0.00  0.00    +0.292 HD
ENDBRANCH   5  29
BRANCH   8  31
ATOM     31  O   UNL     1      30.024 -24.087 -14.600  0.00  0.00    -0.505 OA
ATOM     32  H   UNL     1      29.578 -24.806 -15.003  0.00  0.00    +0.292 HD
ENDBRANCH   8  31
TORSDOF 5
ENDMDL
MODEL 4
REMARK VINA RESULT:      -9.8      1.325      1.702
REMARK  Name = 5287969
REMARK  5 active torsions:
REMARK  status: ('A' for Active; 'I' for Inactive)
REMARK    1  A    between atoms: C_3  and  C_13
REMARK    2  A    between atoms: C_5  and  O_29
REMARK    3  A    between atoms: C_8  and  O_31
REMARK    4  A    between atoms: C_10  and  C_23
REMARK    5  A    between atoms: C_14  and  O_20
REMARK                            x       y       z     vdW  Elec       q    Type
REMARK                         _______ _______ _______ _____ _____    ______ ____
ROOT
ATOM      1  O   UNL     1      34.667 -22.487 -16.699  0.00  0.00    -0.453 OA
ATOM      2  O   UNL     1      38.704 -22.862 -16.286  0.00  0.00    -0.286 OA
ATOM      3  C   UNL     1      34.283 -23.514 -14.608  0.00  0.00    +0.048 C 
ATOM      4  C   UNL     1      35.188 -23.070 -15.572  0.00  0.00    +0.150 C 
ATOM      5  C   UNL     1      34.752 -24.116 -13.441  0.00  0.00    +0.136 C 
ATOM      6  C   UNL     1      36.557 -23.228 -15.366  0.00  0.00    +0.107 C 
ATOM      7  C   UNL     1      36.123 -24.273 -13.236  0.00  0.00    +0.073 C 
ATOM      8  C   UNL     1      37.031 -23.830 -14.198  0.00  0.00    +0.143 C 
ATOM      9  C   UNL     1      37.490 -22.753 -16.399  0.00  0.00    +0.205 C 
ATOM     10  C   UNL     1      35.544 -22.030 -17.672  0.00  0.00    +0.149 C 
ATOM     11  C   UNL     1      36.881 -22.131 -17.592  0.00  0.00    +0.080 C 
ENDROOT
BRANCH   3  13
ATOM     12  N   UNL     1      30.062 -24.144 -15.556  0.00  0.00    +0.387 N 
ATOM     13  C   UNL     1      32.788 -23.349 -14.822  0.00  0.00    +0.051 C 
ATOM     14  C   UNL     1      31.960 -24.314 -13.951  0.00  0.00    +0.094 C 
ATOM     15  C   UNL     1      32.321 -23.439 -16.285  0.00  0.00    -0.016 C 
ATOM     16  C   UNL     1      30.457 -24.062 -14.139  0.00  0.00    -0.047 C 
ATOM     17  C   UNL     1      30.812 -23.191 -16.385  0.00  0.00    -0.077 C 
ATOM     18  C   UNL     1      28.623 -23.927 -15.700  0.00  0.00    -0.101 C 
ATOM     19  H   UNL     1      30.287 -25.083 -15.885  0.00  0.00    -0.080 HD
BRANCH  14  20
ATOM     20  O   UNL     1      32.219 -25.677 -14.291  0.00  0.00    -0.386 OA
ATOM     21  H   UNL     1      32.527 -25.728 -15.209  0.00  0.00    +0.210 HD
ENDBRANCH  14  20
ENDBRANCH   3  13
BRANCH  10  23
ATOM     22 CL   UNL     1      37.275 -20.403 -19.675  0.00  0.00    -0.082 Cl
ATOM     23  C   UNL     1      34.878 -21.427 -18.844  0.00  0.00    +0.045 C 
ATOM     24  C   UNL     1      35.573 -20.677 -19.799  0.00  0.00    +0.061 C 
ATOM     25  C   UNL     1      33.500 -21.620 -18.990  0.00  0.00    +0.004 C 
ATOM     26  C   UNL     1      34.897 -20.128 -20.890  0.00  0.00    +0.011 C 
ATOM     27  C   UNL     1      32.824 -21.070 -20.080  0.00  0.00    +0.000 C 
ATOM     28  C   UNL     1      33.522 -20.324 -21.029  0.00  0.00    +0.001 C 
ENDBRANCH  10  23
BRANCH   5  29
ATOM     29  O   UNL     1      33.885 -24.556 -12.485  0.00  0.00    -0.506 OA
ATOM     30  H   UNL     1      34.088 -25.324 -11.987  0.00  0.00    +0.292 HD
ENDBRANCH   5  29
BRANCH   8  31
ATOM     31  O   UNL     1      38.359 -24.009 -13.951  0.00  0.00    -0.505 OA
ATOM     32  H   UNL     1      38.648 -24.746 -13.450  0.00  0.00    +0.292 HD
ENDBRANCH   8  31
TORSDOF 5
ENDMDL
MODEL 5
REMARK VINA RESULT:      -9.2     12.740     15.619
REMARK  Name = 5287969
REMARK  5 active torsions:
REMARK  status: ('A' for Active; 'I' for Inactive)
REMARK    1  A    between atoms: C_3  and  C_13
REMARK    2  A    between atoms: C_5  and  O_29
REMARK    3  A    between atoms: C_8  and  O_31
REMARK    4  A    between atoms: C_10  and  C_23
REMARK    5  A    between atoms: C_14  and  O_20
REMARK                            x       y       z     vdW  Elec       q    Type
REMARK                         _______ _______ _______ _____ _____    ______ ____
ROOT
ATOM      1  O   UNL     1      32.699  -9.108 -23.003  0.00  0.00    -0.453 OA
ATOM      2  O   UNL     1      32.165  -7.635 -19.241  0.00  0.00    -0.286 OA
ATOM      3  C   UNL     1      32.244 -11.311 -22.285  0.00  0.00    +0.048 C 
ATOM      4  C   UNL     1      32.374  -9.957 -21.975  0.00  0.00    +0.150 C 
ATOM      5  C   UNL     1      31.916 -12.223 -21.282  0.00  0.00    +0.136 C 
ATOM      6  C   UNL     1      32.176  -9.520 -20.667  0.00  0.00    +0.107 C 
ATOM      7  C   UNL     1      31.718 -11.784 -19.973  0.00  0.00    +0.073 C 
ATOM      8  C   UNL     1      31.848 -10.431 -19.660  0.00  0.00    +0.143 C 
ATOM      9  C   UNL     1      32.321  -8.087 -20.368  0.00  0.00    +0.205 C 
ATOM     10  C   UNL     1      32.828  -7.755 -22.726  0.00  0.00    +0.149 C 
ATOM     11  C   UNL     1      32.669  -7.215 -21.507  0.00  0.00    +0.080 C 
ENDROOT
BRANCH   3  13
ATOM     12  N   UNL     1      33.938 -12.898 -25.989  0.00  0.00    +0.387 N 
ATOM     13  C   UNL     1      32.459 -11.799 -23.708  0.00  0.00    +0.051 C 
ATOM     14  C   UNL     1      32.890 -13.278 -23.761  0.00  0.00    +0.094 C 
ATOM     15  C   UNL     1      33.419 -10.947 -24.555  0.00  0.00    -0.016 C 
ATOM     16  C   UNL     1      33.022 -13.753 -25.215  0.00  0.00    -0.047 C 
ATOM     17  C   UNL     1      33.505 -11.495 -25.984  0.00  0.00    -0.077 C 
ATOM     18  C   UNL     1      34.063 -13.391 -27.361  0.00  0.00    -0.101 C 
ATOM     19  H   UNL     1      34.852 -12.940 -25.540  0.00  0.00    -0.080 HD
BRANCH  14  20
ATOM     20  O   UNL     1      34.152 -13.477 -23.122  0.00  0.00    -0.386 OA
ATOM     21  H   UNL     1      34.387 -14.418 -23.157  0.00  0.00    +0.210 HD
ENDBRANCH  14  20
ENDBRANCH   3  13
BRANCH  10  23
ATOM     22 CL   UNL     1      30.694  -5.802 -23.862  0.00  0.00    -0.082 Cl
ATOM     23  C   UNL     1      33.185  -6.934 -23.900  0.00  0.00    +0.045 C 
ATOM     24  C   UNL     1      32.292  -6.028 -24.482  0.00  0.00    +0.061 C 
ATOM     25  C   UNL     1      34.467  -7.080 -24.440  0.00  0.00    +0.004 C 
ATOM     26  C   UNL     1      32.678  -5.274 -25.592  0.00  0.00    +0.011 C 
ATOM     27  C   UNL     1      34.853  -6.326 -25.550  0.00  0.00    +0.000 C 
ATOM     28  C   UNL     1      33.959  -5.425 -26.126  0.00  0.00    +0.001 C 
ENDBRANCH  10  23
BRANCH   5  29
ATOM     29  O   UNL     1      31.783 -13.551 -21.563  0.00  0.00    -0.506 OA
ATOM     30  H   UNL     1      31.905 -13.858 -22.440  0.00  0.00    +0.292 HD
ENDBRANCH   5  29
BRANCH   8  31
ATOM     31  O   UNL     1      31.645 -10.054 -18.367  0.00  0.00    -0.505 OA
ATOM     32  H   UNL     1      32.354 -10.080 -17.754  0.00  0.00    +0.292 HD
ENDBRANCH   8  31
TORSDOF 5
ENDMDL
MODEL 6
REMARK VINA RESULT:      -9.0      2.268      6.068
REMARK  Name = 5287969
REMARK  5 active torsions:
REMARK  status: ('A' for Active; 'I' for Inactive)
REMARK    1  A    between atoms: C_3  and  C_13
REMARK    2  A    between atoms: C_5  and  O_29
REMARK    3  A    between atoms: C_8  and  O_31
REMARK    4  A    between atoms: C_10  and  C_23
REMARK    5  A    between atoms: C_14  and  O_20
REMARK                            x       y       z     vdW  Elec       q    Type
REMARK                         _______ _______ _______ _____ _____    ______ ____
ROOT
ATOM      1  O   UNL     1      33.859 -23.264 -16.009  0.00  0.00    -0.453 OA
ATOM      2  O   UNL     1      32.890 -21.785 -19.680  0.00  0.00    -0.286 OA
ATOM      3  C   UNL     1      36.139 -22.736 -16.316  0.00  0.00    +0.048 C 
ATOM      4  C   UNL     1      34.836 -22.735 -16.813  0.00  0.00    +0.150 C 
ATOM      5  C   UNL     1      37.177 -22.212 -17.088  0.00  0.00    +0.136 C 
ATOM      6  C   UNL     1      34.574 -22.211 -18.078  0.00  0.00    +0.107 C 
ATOM      7  C   UNL     1      36.912 -21.688 -18.354  0.00  0.00    +0.073 C 
ATOM      8  C   UNL     1      35.610 -21.686 -18.854  0.00  0.00    +0.143 C 
ATOM      9  C   UNL     1      33.191 -22.225 -18.579  0.00  0.00    +0.205 C 
ATOM     10  C   UNL     1      32.553 -23.270 -16.475  0.00  0.00    +0.149 C 
ATOM     11  C   UNL     1      32.176 -22.802 -17.676  0.00  0.00    +0.080 C 
ENDROOT
BRANCH   3  13
ATOM     12  N   UNL     1      36.122 -25.080 -12.626  0.00  0.00    +0.387 N 
ATOM     13  C   UNL     1      36.438 -23.305 -14.939  0.00  0.00    +0.051 C 
ATOM     14  C   UNL     1      36.841 -24.792 -14.995  0.00  0.00    +0.094 C 
ATOM     15  C   UNL     1      35.328 -23.106 -13.893  0.00  0.00    -0.016 C 
ATOM     16  C   UNL     1      37.208 -25.307 -13.596  0.00  0.00    -0.047 C 
ATOM     17  C   UNL     1      35.767 -23.659 -12.532  0.00  0.00    -0.077 C 
ATOM     18  C   UNL     1      36.491 -25.605 -11.312  0.00  0.00    -0.101 C 
ATOM     19  H   UNL     1      35.300 -25.582 -12.962  0.00  0.00    -0.080 HD
BRANCH  14  20
ATOM     20  O   UNL     1      35.776 -25.604 -15.491  0.00  0.00    -0.386 OA
ATOM     21  H   UNL     1      34.972 -25.067 -15.575  0.00  0.00    +0.210 HD
ENDBRANCH  14  20
ENDBRANCH   3  13
BRANCH  10  23
ATOM     22 CL   UNL     1      29.528 -22.716 -16.925  0.00  0.00    -0.082 Cl
ATOM     23  C   UNL     1      31.583 -23.867 -15.534  0.00  0.00    +0.045 C 
ATOM     24  C   UNL     1      30.203 -23.674 -15.654  0.00  0.00    +0.061 C 
ATOM     25  C   UNL     1      32.080 -24.651 -14.487  0.00  0.00    +0.004 C 
ATOM     26  C   UNL     1      29.328 -24.260 -14.738  0.00  0.00    +0.011 C 
ATOM     27  C   UNL     1      31.205 -25.237 -13.571  0.00  0.00    +0.000 C 
ATOM     28  C   UNL     1      29.830 -25.041 -13.696  0.00  0.00    +0.001 C 
ENDBRANCH  10  23
BRANCH   5  29
ATOM     29  O   UNL     1      38.457 -22.201 -16.621  0.00  0.00    -0.506 OA
ATOM     30  H   UNL     1      39.043 -22.897 -16.846  0.00  0.00    +0.292 HD
ENDBRANCH   5  29
BRANCH   8  31
ATOM     31  O   UNL     1      35.405 -21.164 -20.095  0.00  0.00    -0.505 OA
ATOM     32  H   UNL     1      35.694 -21.632 -20.854  0.00  0.00    +0.292 HD
ENDBRANCH   8  31
TORSDOF 5
ENDMDL
MODEL 7
REMARK VINA RESULT:      -9.0      2.329      4.964
REMARK  Name = 5287969
REMARK  5 active torsions:
REMARK  status: ('A' for Active; 'I' for Inactive)
REMARK    1  A    between atoms: C_3  and  C_13
REMARK    2  A    between atoms: C_5  and  O_29
REMARK    3  A    between atoms: C_8  and  O_31
REMARK    4  A    between atoms: C_10  and  C_23
REMARK    5  A    between atoms: C_14  and  O_20
REMARK                            x       y       z     vdW  Elec       q    Type
REMARK                         _______ _______ _______ _____ _____    ______ ____
ROOT
ATOM      1  O   UNL     1      33.577 -23.209 -16.447  0.00  0.00    -0.453 OA
ATOM      2  O   UNL     1      29.696 -22.305 -17.300  0.00  0.00    -0.286 OA
ATOM      3  C   UNL     1      32.949 -24.434 -14.529  0.00  0.00    +0.048 C 
ATOM      4  C   UNL     1      32.573 -23.667 -15.632  0.00  0.00    +0.150 C 
ATOM      5  C   UNL     1      31.972 -24.928 -13.663  0.00  0.00    +0.136 C 
ATOM      6  C   UNL     1      31.226 -23.397 -15.866  0.00  0.00    +0.107 C 
ATOM      7  C   UNL     1      30.624 -24.656 -13.899  0.00  0.00    +0.073 C 
ATOM      8  C   UNL     1      30.246 -23.889 -15.002  0.00  0.00    +0.143 C 
ATOM      9  C   UNL     1      30.859 -22.584 -17.036  0.00  0.00    +0.205 C 
ATOM     10  C   UNL     1      33.234 -22.449 -17.555  0.00  0.00    +0.149 C 
ATOM     11  C   UNL     1      31.974 -22.117 -17.882  0.00  0.00    +0.080 C 
ENDROOT
BRANCH   3  13
ATOM     12  N   UNL     1      37.319 -24.387 -14.459  0.00  0.00    +0.387 N 
ATOM     13  C   UNL     1      34.414 -24.734 -14.262  0.00  0.00    +0.051 C 
ATOM     14  C   UNL     1      35.139 -23.556 -13.583  0.00  0.00    +0.094 C 
ATOM     15  C   UNL     1      35.219 -25.205 -15.485  0.00  0.00    -0.016 C 
ATOM     16  C   UNL     1      36.594 -23.928 -13.261  0.00  0.00    -0.047 C 
ATOM     17  C   UNL     1      36.660 -25.541 -15.083  0.00  0.00    -0.077 C 
ATOM     18  C   UNL     1      38.707 -24.707 -14.126  0.00  0.00    -0.101 C 
ATOM     19  H   UNL     1      37.311 -23.624 -15.135  0.00  0.00    -0.080 HD
BRANCH  14  20
ATOM     20  O   UNL     1      35.161 -22.402 -14.423  0.00  0.00    -0.386 OA
ATOM     21  H   UNL     1      34.582 -21.719 -14.050  0.00  0.00    +0.210 HD
ENDBRANCH  14  20
ENDBRANCH   3  13
BRANCH  10  23
ATOM     22 CL   UNL     1      32.686 -21.069 -20.285  0.00  0.00    -0.082 Cl
ATOM     23  C   UNL     1      34.390 -22.003 -18.358  0.00  0.00    +0.045 C 
ATOM     24  C   UNL     1      34.244 -21.373 -19.599  0.00  0.00    +0.061 C 
ATOM     25  C   UNL     1      35.672 -22.227 -17.847  0.00  0.00    +0.004 C 
ATOM     26  C   UNL     1      35.369 -20.971 -20.320  0.00  0.00    +0.011 C 
ATOM     27  C   UNL     1      36.798 -21.825 -18.568  0.00  0.00    +0.000 C 
ATOM     28  C   UNL     1      36.646 -21.198 -19.804  0.00  0.00    +0.001 C 
ENDBRANCH  10  23
BRANCH   5  29
ATOM     29  O   UNL     1      32.317 -25.681 -12.580  0.00  0.00    -0.506 OA
ATOM     30  H   UNL     1      32.829 -25.303 -11.892  0.00  0.00    +0.292 HD
ENDBRANCH   5  29
BRANCH   8  31
ATOM     31  O   UNL     1      28.918 -23.652 -15.187  0.00  0.00    -0.505 OA
ATOM     32  H   UNL     1      28.486 -22.986 -14.687  0.00  0.00    +0.292 HD
ENDBRANCH   8  31
TORSDOF 5
ENDMDL
MODEL 8
REMARK VINA RESULT:      -8.8      2.234      5.507
REMARK  Name = 5287969
REMARK  5 active torsions:
REMARK  status: ('A' for Active; 'I' for Inactive)
REMARK    1  A    between atoms: C_3  and  C_13
REMARK    2  A    between atoms: C_5  and  O_29
REMARK    3  A    between atoms: C_8  and  O_31
REMARK    4  A    between atoms: C_10  and  C_23
REMARK    5  A    between atoms: C_14  and  O_20
REMARK                            x       y       z     vdW  Elec       q    Type
REMARK                         _______ _______ _______ _____ _____    ______ ____
ROOT
ATOM      1  O   UNL     1      34.058 -23.509 -15.358  0.00  0.00    -0.453 OA
ATOM      2  O   UNL     1      34.696 -24.816 -11.552  0.00  0.00    -0.286 OA
ATOM      3  C   UNL     1      36.377 -23.379 -15.782  0.00  0.00    +0.048 C 
ATOM      4  C   UNL     1      35.340 -23.676 -14.899  0.00  0.00    +0.150 C 
ATOM      5  C   UNL     1      37.702 -23.529 -15.371  0.00  0.00    +0.136 C 
ATOM      6  C   UNL     1      35.629 -24.121 -13.609  0.00  0.00    +0.107 C 
ATOM      7  C   UNL     1      37.990 -23.974 -14.081  0.00  0.00    +0.073 C 
ATOM      8  C   UNL     1      36.954 -24.271 -13.195  0.00  0.00    +0.143 C 
ATOM      9  C   UNL     1      34.515 -24.425 -12.698  0.00  0.00    +0.205 C 
ATOM     10  C   UNL     1      33.006 -23.803 -14.504  0.00  0.00    +0.149 C 
ATOM     11  C   UNL     1      33.156 -24.231 -13.240  0.00  0.00    +0.080 C 
ENDROOT
BRANCH   3  13
ATOM     12  N   UNL     1      35.378 -20.964 -19.286  0.00  0.00    +0.387 N 
ATOM     13  C   UNL     1      36.075 -22.892 -17.189  0.00  0.00    +0.051 C 
ATOM     14  C   UNL     1      37.066 -21.810 -17.661  0.00  0.00    +0.094 C 
ATOM     15  C   UNL     1      34.632 -22.410 -17.420  0.00  0.00    -0.016 C 
ATOM     16  C   UNL     1      36.774 -21.402 -19.112  0.00  0.00    -0.047 C 
ATOM     17  C   UNL     1      34.427 -22.008 -18.885  0.00  0.00    -0.077 C 
ATOM     18  C   UNL     1      35.138 -20.557 -20.670  0.00  0.00    -0.101 C 
ATOM     19  H   UNL     1      35.229 -20.160 -18.676  0.00  0.00    -0.080 HD
BRANCH  14  20
ATOM     20  O   UNL     1      36.982 -20.636 -16.853  0.00  0.00    -0.386 OA
ATOM     21  H   UNL     1      37.708 -20.633 -16.210  0.00  0.00    +0.210 HD
ENDBRANCH  14  20
ENDBRANCH   3  13
BRANCH  10  23
ATOM     22 CL   UNL     1      30.527 -24.953 -13.025  0.00  0.00    -0.082 Cl
ATOM     23  C   UNL     1      31.672 -23.582 -15.098  0.00  0.00    +0.045 C 
ATOM     24  C   UNL     1      30.498 -24.062 -14.506  0.00  0.00    +0.061 C 
ATOM     25  C   UNL     1      31.595 -22.866 -16.297  0.00  0.00    +0.004 C 
ATOM     26  C   UNL     1      29.261 -23.827 -15.107  0.00  0.00    +0.011 C 
ATOM     27  C   UNL     1      30.358 -22.632 -16.898  0.00  0.00    +0.000 C 
ATOM     28  C   UNL     1      29.191 -23.112 -16.304  0.00  0.00    +0.001 C 
ENDBRANCH  10  23
BRANCH   5  29
ATOM     29  O   UNL     1      38.731 -23.245 -16.219  0.00  0.00    -0.506 OA
ATOM     30  H   UNL     1      38.627 -22.586 -16.878  0.00  0.00    +0.292 HD
ENDBRANCH   5  29
BRANCH   8  31
ATOM     31  O   UNL     1      37.288 -24.701 -11.946  0.00  0.00    -0.505 OA
ATOM     32  H   UNL     1      37.506 -24.080 -11.279  0.00  0.00    +0.292 HD
ENDBRANCH   8  31
TORSDOF 5
ENDMDL
MODEL 9
REMARK VINA RESULT:      -8.5     12.042     15.190
REMARK  Name = 5287969
REMARK  5 active torsions:
REMARK  status: ('A' for Active; 'I' for Inactive)
REMARK    1  A    between atoms: C_3  and  C_13
REMARK    2  A    between atoms: C_5  and  O_29
REMARK    3  A    between atoms: C_8  and  O_31
REMARK    4  A    between atoms: C_10  and  C_23
REMARK    5  A    between atoms: C_14  and  O_20
REMARK                            x       y       z     vdW  Elec       q    Type
REMARK                         _______ _______ _______ _____ _____    ______ ____
ROOT
ATOM      1  O   UNL     1      32.567 -11.337 -23.259  0.00  0.00    -0.453 OA
ATOM      2  O   UNL     1      32.163 -13.972 -20.177  0.00  0.00    -0.286 OA
ATOM      3  C   UNL     1      32.075  -9.504 -21.855  0.00  0.00    +0.048 C 
ATOM      4  C   UNL     1      32.249 -10.880 -22.005  0.00  0.00    +0.150 C 
ATOM      5  C   UNL     1      31.750  -8.979 -20.604  0.00  0.00    +0.136 C 
ATOM      6  C   UNL     1      32.097 -11.725 -20.908  0.00  0.00    +0.107 C 
ATOM      7  C   UNL     1      31.598  -9.827 -19.506  0.00  0.00    +0.073 C 
ATOM      8  C   UNL     1      31.770 -11.204 -19.654  0.00  0.00    +0.143 C 
ATOM      9  C   UNL     1      32.284 -13.172 -21.096  0.00  0.00    +0.205 C 
ATOM     10  C   UNL     1      32.753 -12.700 -23.438  0.00  0.00    +0.149 C 
ATOM     11  C   UNL     1      32.628 -13.614 -22.462  0.00  0.00    +0.080 C 
ENDROOT
BRANCH   3  13
ATOM     12  N   UNL     1      32.697  -6.037 -24.444  0.00  0.00    +0.387 N 
ATOM     13  C   UNL     1      32.236  -8.573 -23.044  0.00  0.00    +0.051 C 
ATOM     14  C   UNL     1      33.626  -7.907 -23.083  0.00  0.00    +0.094 C 
ATOM     15  C   UNL     1      31.142  -7.501 -23.190  0.00  0.00    -0.016 C 
ATOM     16  C   UNL     1      33.775  -7.036 -24.339  0.00  0.00    -0.047 C 
ATOM     17  C   UNL     1      31.371  -6.669 -24.457  0.00  0.00    -0.077 C 
ATOM     18  C   UNL     1      32.882  -5.207 -25.633  0.00  0.00    -0.101 C 
ATOM     19  H   UNL     1      32.747  -5.443 -23.617  0.00  0.00    -0.080 HD
BRANCH  14  20
ATOM     20  O   UNL     1      33.836  -7.070 -21.946  0.00  0.00    -0.386 OA
ATOM     21  H   UNL     1      34.788  -6.982 -21.780  0.00  0.00    +0.210 HD
ENDBRANCH  14  20
ENDBRANCH   3  13
BRANCH  10  23
ATOM     22 CL   UNL     1      34.397 -10.706 -25.163  0.00  0.00    -0.082 Cl
ATOM     23  C   UNL     1      33.086 -13.083 -24.824  0.00  0.00    +0.045 C 
ATOM     24  C   UNL     1      33.821 -12.253 -25.677  0.00  0.00    +0.061 C 
ATOM     25  C   UNL     1      32.642 -14.326 -25.288  0.00  0.00    +0.004 C 
ATOM     26  C   UNL     1      34.110 -12.662 -26.980  0.00  0.00    +0.011 C 
ATOM     27  C   UNL     1      32.931 -14.735 -26.591  0.00  0.00    +0.000 C 
ATOM     28  C   UNL     1      33.663 -13.902 -27.437  0.00  0.00    +0.001 C 
ENDBRANCH  10  23
BRANCH   5  29
ATOM     29  O   UNL     1      31.576  -7.638 -20.434  0.00  0.00    -0.506 OA
ATOM     30  H   UNL     1      31.820  -7.044 -21.117  0.00  0.00    +0.292 HD
ENDBRANCH   5  29
BRANCH   8  31
ATOM     31  O   UNL     1      31.610 -11.988 -18.552  0.00  0.00    -0.505 OA
ATOM     32  H   UNL     1      31.550 -11.596 -17.702  0.00  0.00    +0.292 HD
ENDBRANCH   8  31
TORSDOF 5
ENDMDL
