MODEL 1
REMARK VINA RESULT:      -5.4      0.000      0.000
REMARK  Name = 304271
REMARK  2 active torsions:
REMARK  status: ('A' for Active; 'I' for Inactive)
REMARK    1  A    between atoms: C_3  and  C_7
REMARK    2  A    between atoms: C_7  and  O_8
REMARK                            x       y       z     vdW  Elec       q    Type
REMARK                         _______ _______ _______ _____ _____    ______ ____
ROOT
ATOM      1  S   UNK     1      36.437 -25.250 -13.859  0.00  0.00    -0.108 S 
ATOM      2  N   UNK     1      38.301 -26.847 -14.671  0.00  0.00    -0.255 NA
ATOM      3  C   UNK     1      38.839 -25.576 -14.604  0.00  0.00    +0.141 C 
ATOM      4  C   UNK     1      37.981 -24.581 -14.184  0.00  0.00    +0.111 C 
ATOM      5  C   UNK     1      37.041 -26.794 -14.300  0.00  0.00    +0.183 C 
ENDROOT
BRANCH   3   7
ATOM      6  O   UNK     1      41.023 -24.638 -14.336  0.00  0.00    -0.244 OA
ATOM      7  C   UNK     1      40.213 -25.351 -14.957  0.00  0.00    +0.352 C 
BRANCH   7   8
ATOM      8  O   UNK     1      40.592 -26.016 -16.092  0.00  0.00    -0.476 OA
ATOM      9  H   UNK     1      40.261 -25.747 -16.926  0.00  0.00    +0.295 HD
ENDBRANCH   7   8
ENDBRANCH   3   7
TORSDOF 2
ENDMDL
MODEL 2
REMARK VINA RESULT:      -5.2      1.507      1.752
REMARK  Name = 304271
REMARK  2 active torsions:
REMARK  status: ('A' for Active; 'I' for Inactive)
REMARK    1  A    between atoms: C_3  and  C_7
REMARK    2  A    between atoms: C_7  and  O_8
REMARK                            x       y       z     vdW  Elec       q    Type
REMARK                         _______ _______ _______ _____ _____    ______ ____
ROOT
ATOM      1  S   UNK     1      37.073 -24.816 -12.781  0.00  0.00    -0.108 S 
ATOM      2  N   UNK     1      38.546 -24.255 -14.830  0.00  0.00    -0.255 NA
ATOM      3  C   UNK     1      39.104 -25.351 -14.202  0.00  0.00    +0.141 C 
ATOM      4  C   UNK     1      38.446 -25.800 -13.076  0.00  0.00    +0.111 C 
ATOM      5  C   UNK     1      37.471 -23.888 -14.168  0.00  0.00    +0.183 C 
ENDROOT
BRANCH   3   7
ATOM      6  O   UNK     1      41.188 -26.518 -14.061  0.00  0.00    -0.244 OA
ATOM      7  C   UNK     1      40.297 -25.957 -14.726  0.00  0.00    +0.352 C 
BRANCH   7   8
ATOM      8  O   UNK     1      40.392 -25.868 -16.088  0.00  0.00    -0.476 OA
ATOM      9  H   UNK     1      40.403 -26.646 -16.610  0.00  0.00    +0.295 HD
ENDBRANCH   7   8
ENDBRANCH   3   7
TORSDOF 2
ENDMDL
MODEL 3
REMARK VINA RESULT:      -4.8      4.097      4.625
REMARK  Name = 304271
REMARK  2 active torsions:
REMARK  status: ('A' for Active; 'I' for Inactive)
REMARK    1  A    between atoms: C_3  and  C_7
REMARK    2  A    between atoms: C_7  and  O_8
REMARK                            x       y       z     vdW  Elec       q    Type
REMARK                         _______ _______ _______ _____ _____    ______ ____
ROOT
ATOM      1  S   UNK     1      37.944 -25.215 -14.529  0.00  0.00    -0.108 S 
ATOM      2  N   UNK     1      37.713 -25.483 -11.969  0.00  0.00    -0.255 NA
ATOM      3  C   UNK     1      36.547 -24.907 -12.436  0.00  0.00    +0.141 C 
ATOM      4  C   UNK     1      36.488 -24.686 -13.796  0.00  0.00    +0.111 C 
ATOM      5  C   UNK     1      38.521 -25.690 -12.985  0.00  0.00    +0.183 C 
ENDROOT
BRANCH   3   7
ATOM      6  O   UNK     1      35.305 -25.078 -10.399  0.00  0.00    -0.244 OA
ATOM      7  C   UNK     1      35.487 -24.578 -11.525  0.00  0.00    +0.352 C 
BRANCH   7   8
ATOM      8  O   UNK     1      34.639 -23.619 -12.010  0.00  0.00    -0.476 OA
ATOM      9  H   UNK     1      34.799 -22.714 -11.826  0.00  0.00    +0.295 HD
ENDBRANCH   7   8
ENDBRANCH   3   7
TORSDOF 2
ENDMDL
MODEL 4
REMARK VINA RESULT:      -4.8      2.889      3.542
REMARK  Name = 304271
REMARK  2 active torsions:
REMARK  status: ('A' for Active; 'I' for Inactive)
REMARK    1  A    between atoms: C_3  and  C_7
REMARK    2  A    between atoms: C_7  and  O_8
REMARK                            x       y       z     vdW  Elec       q    Type
REMARK                         _______ _______ _______ _____ _____    ______ ____
ROOT
ATOM      1  S   UNK     1      37.517 -26.573 -14.609  0.00  0.00    -0.108 S 
ATOM      2  N   UNK     1      39.113 -24.757 -13.693  0.00  0.00    -0.255 NA
ATOM      3  C   UNK     1      37.985 -24.764 -12.894  0.00  0.00    +0.141 C 
ATOM      4  C   UNK     1      37.012 -25.680 -13.235  0.00  0.00    +0.111 C 
ATOM      5  C   UNK     1      38.976 -25.670 -14.628  0.00  0.00    +0.183 C 
ENDROOT
BRANCH   3   7
ATOM      6  O   UNK     1      38.511 -22.794 -11.642  0.00  0.00    -0.244 OA
ATOM      7  C   UNK     1      37.877 -23.857 -11.786  0.00  0.00    +0.352 C 
BRANCH   7   8
ATOM      8  O   UNK     1      36.974 -24.265 -10.842  0.00  0.00    -0.476 OA
ATOM      9  H   UNK     1      36.554 -23.635 -10.290  0.00  0.00    +0.295 HD
ENDBRANCH   7   8
ENDBRANCH   3   7
TORSDOF 2
ENDMDL
MODEL 5
REMARK VINA RESULT:      -4.8      8.227      8.597
REMARK  Name = 304271
REMARK  2 active torsions:
REMARK  status: ('A' for Active; 'I' for Inactive)
REMARK    1  A    between atoms: C_3  and  C_7
REMARK    2  A    between atoms: C_7  and  O_8
REMARK                            x       y       z     vdW  Elec       q    Type
REMARK                         _______ _______ _______ _____ _____    ______ ____
ROOT
ATOM      1  S   UNK     1      34.239 -19.219 -21.188  0.00  0.00    -0.108 S 
ATOM      2  N   UNK     1      32.835 -20.935 -19.859  0.00  0.00    -0.255 NA
ATOM      3  C   UNK     1      34.165 -21.285 -19.720  0.00  0.00    +0.141 C 
ATOM      4  C   UNK     1      35.072 -20.473 -20.368  0.00  0.00    +0.111 C 
ATOM      5  C   UNK     1      32.756 -19.861 -20.612  0.00  0.00    +0.183 C 
ENDROOT
BRANCH   3   7
ATOM      6  O   UNK     1      35.350 -22.445 -17.996  0.00  0.00    -0.244 OA
ATOM      7  C   UNK     1      34.534 -22.431 -18.938  0.00  0.00    +0.352 C 
BRANCH   7   8
ATOM      8  O   UNK     1      33.889 -23.576 -19.321  0.00  0.00    -0.476 OA
ATOM      9  H   UNK     1      33.348 -24.037 -18.711  0.00  0.00    +0.295 HD
ENDBRANCH   7   8
ENDBRANCH   3   7
TORSDOF 2
ENDMDL
MODEL 6
REMARK VINA RESULT:      -4.6      9.704     10.236
REMARK  Name = 304271
REMARK  2 active torsions:
REMARK  status: ('A' for Active; 'I' for Inactive)
REMARK    1  A    between atoms: C_3  and  C_7
REMARK    2  A    between atoms: C_7  and  O_8
REMARK                            x       y       z     vdW  Elec       q    Type
REMARK                         _______ _______ _______ _____ _____    ______ ____
ROOT
ATOM      1  S   UNK     1      31.814 -23.583 -15.410  0.00  0.00    -0.108 S 
ATOM      2  N   UNK     1      29.322 -24.224 -15.160  0.00  0.00    -0.255 NA
ATOM      3  C   UNK     1      29.420 -23.326 -16.204  0.00  0.00    +0.141 C 
ATOM      4  C   UNK     1      30.689 -22.868 -16.489  0.00  0.00    +0.111 C 
ATOM      5  C   UNK     1      30.523 -24.434 -14.667  0.00  0.00    +0.183 C 
ENDROOT
BRANCH   3   7
ATOM      6  O   UNK     1      27.781 -21.768 -16.987  0.00  0.00    -0.244 OA
ATOM      7  C   UNK     1      28.245 -22.923 -16.925  0.00  0.00    +0.352 C 
BRANCH   7   8
ATOM      8  O   UNK     1      27.632 -23.958 -17.578  0.00  0.00    -0.476 OA
ATOM      9  H   UNK     1      27.845 -24.843 -17.357  0.00  0.00    +0.295 HD
ENDBRANCH   7   8
ENDBRANCH   3   7
TORSDOF 2
ENDMDL
MODEL 7
REMARK VINA RESULT:      -4.6     14.762     15.151
REMARK  Name = 304271
REMARK  2 active torsions:
REMARK  status: ('A' for Active; 'I' for Inactive)
REMARK    1  A    between atoms: C_3  and  C_7
REMARK    2  A    between atoms: C_7  and  O_8
REMARK                            x       y       z     vdW  Elec       q    Type
REMARK                         _______ _______ _______ _____ _____    ______ ____
ROOT
ATOM      1  S   UNK     1      33.066 -13.766 -24.600  0.00  0.00    -0.108 S 
ATOM      2  N   UNK     1      33.539 -15.679 -26.273  0.00  0.00    -0.255 NA
ATOM      3  C   UNK     1      34.029 -16.070 -25.042  0.00  0.00    +0.141 C 
ATOM      4  C   UNK     1      33.864 -15.166 -24.014  0.00  0.00    +0.111 C 
ATOM      5  C   UNK     1      33.010 -14.481 -26.158  0.00  0.00    +0.183 C 
ENDROOT
BRANCH   3   7
ATOM      6  O   UNK     1      34.400 -18.381 -25.535  0.00  0.00    -0.244 OA
ATOM      7  C   UNK     1      34.662 -17.350 -24.887  0.00  0.00    +0.352 C 
BRANCH   7   8
ATOM      8  O   UNK     1      35.630 -17.358 -23.920  0.00  0.00    -0.476 OA
ATOM      9  H   UNK     1      35.513 -16.861 -23.135  0.00  0.00    +0.295 HD
ENDBRANCH   7   8
ENDBRANCH   3   7
TORSDOF 2
ENDMDL
MODEL 8
REMARK VINA RESULT:      -4.6      3.644      4.156
REMARK  Name = 304271
REMARK  2 active torsions:
REMARK  status: ('A' for Active; 'I' for Inactive)
REMARK    1  A    between atoms: C_3  and  C_7
REMARK    2  A    between atoms: C_7  and  O_8
REMARK                            x       y       z     vdW  Elec       q    Type
REMARK                         _______ _______ _______ _____ _____    ______ ____
ROOT
ATOM      1  S   UNK     1      35.445 -24.372 -15.002  0.00  0.00    -0.108 S 
ATOM      2  N   UNK     1      37.581 -23.263 -14.059  0.00  0.00    -0.255 NA
ATOM      3  C   UNK     1      36.804 -23.653 -12.985  0.00  0.00    +0.141 C 
ATOM      4  C   UNK     1      35.612 -24.272 -13.298  0.00  0.00    +0.111 C 
ATOM      5  C   UNK     1      36.963 -23.592 -15.171  0.00  0.00    +0.183 C 
ENDROOT
BRANCH   3   7
ATOM      6  O   UNK     1      36.721 -23.848 -10.602  0.00  0.00    -0.244 OA
ATOM      7  C   UNK     1      37.251 -23.412 -11.642  0.00  0.00    +0.352 C 
BRANCH   7   8
ATOM      8  O   UNK     1      38.367 -22.621 -11.580  0.00  0.00    -0.476 OA
ATOM      9  H   UNK     1      38.470 -21.907 -12.178  0.00  0.00    +0.295 HD
ENDBRANCH   7   8
ENDBRANCH   3   7
TORSDOF 2
ENDMDL
MODEL 9
REMARK VINA RESULT:      -4.5     11.827     12.115
REMARK  Name = 304271
REMARK  2 active torsions:
REMARK  status: ('A' for Active; 'I' for Inactive)
REMARK    1  A    between atoms: C_3  and  C_7
REMARK    2  A    between atoms: C_7  and  O_8
REMARK                            x       y       z     vdW  Elec       q    Type
REMARK                         _______ _______ _______ _____ _____    ______ ____
ROOT
ATOM      1  S   UNK     1      34.606 -17.062 -24.992  0.00  0.00    -0.108 S 
ATOM      2  N   UNK     1      34.852 -18.859 -23.149  0.00  0.00    -0.255 NA
ATOM      3  C   UNK     1      35.040 -17.624 -22.558  0.00  0.00    +0.141 C 
ATOM      4  C   UNK     1      34.943 -16.534 -23.396  0.00  0.00    +0.111 C 
ATOM      5  C   UNK     1      34.616 -18.683 -24.430  0.00  0.00    +0.183 C 
ENDROOT
BRANCH   3   7
ATOM      6  O   UNK     1      35.122 -16.532 -20.431  0.00  0.00    -0.244 OA
ATOM      7  C   UNK     1      35.315 -17.530 -21.151  0.00  0.00    +0.352 C 
BRANCH   7   8
ATOM      8  O   UNK     1      35.834 -18.682 -20.625  0.00  0.00    -0.476 OA
ATOM      9  H   UNK     1      36.040 -18.730 -19.712  0.00  0.00    +0.295 HD
ENDBRANCH   7   8
ENDBRANCH   3   7
TORSDOF 2
ENDMDL
