MODEL 1
REMARK VINA RESULT:      -8.6      0.000      0.000
REMARK  Name = 4170
REMARK  3 active torsions:
REMARK  status: ('A' for Active; 'I' for Inactive)
REMARK    1  A    between atoms: N_3  and  C_15
REMARK    2  A    between atoms: C_12  and  S_22
REMARK    3  A    between atoms: S_22  and  N_25
REMARK                            x       y       z     vdW  Elec       q    Type
REMARK                         _______ _______ _______ _____ _____    ______ ____
ROOT
ATOM      1 CL   UNL     1      33.722 -11.883 -24.944  0.00  0.00    -0.081 Cl
ATOM      2  O   UNL     1      33.461 -16.827 -20.479  0.00  0.00    -0.269 OA
ATOM      3  N   UNL     1      34.806 -17.891 -22.092  0.00  0.00    -0.240 N 
ATOM      4  N   UNL     1      35.311 -16.653 -24.103  0.00  0.00    -0.318 N 
ATOM      5  C   UNL     1      35.036 -17.968 -23.549  0.00  0.00    +0.153 C 
ATOM      6  C   UNL     1      34.573 -15.573 -23.651  0.00  0.00    +0.051 C 
ATOM      7  C   UNL     1      33.885 -15.633 -22.433  0.00  0.00    +0.068 C 
ATOM      8  C   UNL     1      34.022 -16.838 -21.572  0.00  0.00    +0.255 C 
ATOM      9  C   UNL     1      33.844 -18.587 -24.287  0.00  0.00    +0.044 C 
ATOM     10  C   UNL     1      33.127 -14.542 -21.990  0.00  0.00    +0.027 C 
ATOM     11  C   UNL     1      34.515 -14.390 -24.400  0.00  0.00    +0.027 C 
ATOM     12  C   UNL     1      33.061 -13.380 -22.759  0.00  0.00    +0.132 C 
ATOM     13  C   UNL     1      33.760 -13.302 -23.960  0.00  0.00    +0.077 C 
ATOM     14  H   UNL     1      36.010 -16.533 -24.788  0.00  0.00    +0.148 HD
ENDROOT
BRANCH   3  15
ATOM     15  C   UNL     1      35.274 -18.969 -21.248  0.00  0.00    +0.052 C 
ATOM     16  C   UNL     1      34.387 -19.925 -20.761  0.00  0.00    -0.008 C 
ATOM     17  C   UNL     1      36.628 -19.037 -20.930  0.00  0.00    +0.015 C 
ATOM     18  C   UNL     1      34.858 -20.957 -19.949  0.00  0.00    -0.003 C 
ATOM     19  C   UNL     1      32.930 -19.874 -21.089  0.00  0.00    +0.032 C 
ATOM     20  C   UNL     1      37.098 -20.070 -20.119  0.00  0.00    +0.001 C 
ATOM     21  C   UNL     1      36.213 -21.029 -19.628  0.00  0.00    -0.000 C 
ENDBRANCH   3  15
BRANCH  12  22
ATOM     22  S   UNL     1      32.097 -12.048 -22.154  0.00  0.00    +0.058 S 
ATOM     23  O   UNL     1      32.906 -10.846 -22.342  0.00  0.00    -0.153 OA
ATOM     24  O   UNL     1      30.804 -12.178 -22.816  0.00  0.00    -0.153 OA
BRANCH  22  25
ATOM     25  N   UNL     1      31.861 -12.255 -20.464  0.00  0.00    -0.203 NA
ATOM     26  H   UNL     1      32.678 -11.908 -19.962  0.00  0.00    +0.144 HD
ATOM     27  H   UNL     1      31.729 -13.245 -20.258  0.00  0.00    +0.144 HD
ENDBRANCH  22  25
ENDBRANCH  12  22
TORSDOF 3
ENDMDL
MODEL 2
REMARK VINA RESULT:      -8.6     10.007     12.401
REMARK  Name = 4170
REMARK  3 active torsions:
REMARK  status: ('A' for Active; 'I' for Inactive)
REMARK    1  A    between atoms: N_3  and  C_15
REMARK    2  A    between atoms: C_12  and  S_22
REMARK    3  A    between atoms: S_22  and  N_25
REMARK                            x       y       z     vdW  Elec       q    Type
REMARK                         _______ _______ _______ _____ _____    ______ ____
ROOT
ATOM      1 CL   UNL     1      38.379 -25.372 -13.766  0.00  0.00    -0.081 Cl
ATOM      2  O   UNL     1      32.195 -22.909 -13.390  0.00  0.00    -0.269 OA
ATOM      3  N   UNL     1      32.152 -23.608 -15.638  0.00  0.00    -0.240 N 
ATOM      4  N   UNL     1      34.161 -24.610 -16.526  0.00  0.00    -0.318 N 
ATOM      5  C   UNL     1      33.016 -23.767 -16.825  0.00  0.00    +0.153 C 
ATOM      6  C   UNL     1      34.805 -24.450 -15.310  0.00  0.00    +0.051 C 
ATOM      7  C   UNL     1      34.165 -23.819 -14.237  0.00  0.00    +0.068 C 
ATOM      8  C   UNL     1      32.745 -23.395 -14.375  0.00  0.00    +0.255 C 
ATOM      9  C   UNL     1      33.507 -22.420 -17.363  0.00  0.00    +0.044 C 
ATOM     10  C   UNL     1      34.828 -23.647 -13.015  0.00  0.00    +0.027 C 
ATOM     11  C   UNL     1      36.107 -24.934 -15.128  0.00  0.00    +0.027 C 
ATOM     12  C   UNL     1      36.132 -24.114 -12.858  0.00  0.00    +0.132 C 
ATOM     13  C   UNL     1      36.769 -24.763 -13.911  0.00  0.00    +0.077 C 
ATOM     14  H   UNL     1      34.474 -25.281 -17.175  0.00  0.00    +0.148 HD
ENDROOT
BRANCH   3  15
ATOM     15  C   UNL     1      30.717 -23.536 -15.817  0.00  0.00    +0.052 C 
ATOM     16  C   UNL     1      29.889 -24.536 -15.314  0.00  0.00    -0.008 C 
ATOM     17  C   UNL     1      30.176 -22.451 -16.500  0.00  0.00    +0.015 C 
ATOM     18  C   UNL     1      28.508 -24.449 -15.496  0.00  0.00    -0.003 C 
ATOM     19  C   UNL     1      30.446 -25.710 -14.576  0.00  0.00    +0.032 C 
ATOM     20  C   UNL     1      28.796 -22.364 -16.682  0.00  0.00    +0.001 C 
ATOM     21  C   UNL     1      27.963 -23.363 -16.181  0.00  0.00    -0.000 C 
ENDBRANCH   3  15
BRANCH  12  22
ATOM     22  S   UNL     1      36.912 -23.870 -11.307  0.00  0.00    +0.058 S 
ATOM     23  O   UNL     1      37.955 -24.887 -11.215  0.00  0.00    -0.153 OA
ATOM     24  O   UNL     1      37.258 -22.453 -11.270  0.00  0.00    -0.153 OA
BRANCH  22  25
ATOM     25  N   UNL     1      35.772 -24.179 -10.058  0.00  0.00    -0.203 NA
ATOM     26  H   UNL     1      36.233 -24.668  -9.291  0.00  0.00    +0.144 HD
ATOM     27  H   UNL     1      35.015 -24.756 -10.424  0.00  0.00    +0.144 HD
ENDBRANCH  22  25
ENDBRANCH  12  22
TORSDOF 3
ENDMDL
MODEL 3
REMARK VINA RESULT:      -8.1      6.011      8.901
REMARK  Name = 4170
REMARK  3 active torsions:
REMARK  status: ('A' for Active; 'I' for Inactive)
REMARK    1  A    between atoms: N_3  and  C_15
REMARK    2  A    between atoms: C_12  and  S_22
REMARK    3  A    between atoms: S_22  and  N_25
REMARK                            x       y       z     vdW  Elec       q    Type
REMARK                         _______ _______ _______ _____ _____    ______ ____
ROOT
ATOM      1 CL   UNL     1      32.685 -20.578 -21.006  0.00  0.00    -0.081 Cl
ATOM      2  O   UNL     1      37.329 -22.635 -16.687  0.00  0.00    -0.269 OA
ATOM      3  N   UNL     1      35.498 -23.837 -15.823  0.00  0.00    -0.240 N 
ATOM      4  N   UNL     1      33.365 -23.543 -16.915  0.00  0.00    -0.318 N 
ATOM      5  C   UNL     1      34.034 -23.760 -15.644  0.00  0.00    +0.153 C 
ATOM      6  C   UNL     1      33.924 -22.655 -17.818  0.00  0.00    +0.051 C 
ATOM      7  C   UNL     1      35.272 -22.288 -17.723  0.00  0.00    +0.068 C 
ATOM      8  C   UNL     1      36.136 -22.929 -16.695  0.00  0.00    +0.255 C 
ATOM      9  C   UNL     1      33.632 -22.651 -14.666  0.00  0.00    +0.044 C 
ATOM     10  C   UNL     1      35.827 -21.377 -18.631  0.00  0.00    +0.027 C 
ATOM     11  C   UNL     1      33.152 -22.118 -18.857  0.00  0.00    +0.027 C 
ATOM     12  C   UNL     1      35.038 -20.834 -19.644  0.00  0.00    +0.132 C 
ATOM     13  C   UNL     1      33.703 -21.210 -19.762  0.00  0.00    +0.077 C 
ATOM     14  H   UNL     1      32.529 -24.018 -17.130  0.00  0.00    +0.148 HD
ENDROOT
BRANCH   3  15
ATOM     15  C   UNL     1      36.261 -24.750 -14.998  0.00  0.00    +0.052 C 
ATOM     16  C   UNL     1      36.859 -24.312 -13.821  0.00  0.00    -0.008 C 
ATOM     17  C   UNL     1      36.387 -26.077 -15.402  0.00  0.00    +0.015 C 
ATOM     18  C   UNL     1      37.589 -25.208 -13.039  0.00  0.00    -0.003 C 
ATOM     19  C   UNL     1      36.737 -22.894 -13.367  0.00  0.00    +0.032 C 
ATOM     20  C   UNL     1      37.117 -26.972 -14.620  0.00  0.00    +0.001 C 
ATOM     21  C   UNL     1      37.718 -26.537 -13.440  0.00  0.00    -0.000 C 
ENDBRANCH   3  15
BRANCH  12  22
ATOM     22  S   UNL     1      35.786 -19.699 -20.750  0.00  0.00    +0.058 S 
ATOM     23  O   UNL     1      37.157 -19.519 -20.279  0.00  0.00    -0.153 OA
ATOM     24  O   UNL     1      35.529 -20.236 -22.083  0.00  0.00    -0.153 OA
BRANCH  22  25
ATOM     25  N   UNL     1      34.987 -18.183 -20.616  0.00  0.00    -0.203 NA
ATOM     26  H   UNL     1      34.149 -18.291 -20.046  0.00  0.00    +0.144 HD
ATOM     27  H   UNL     1      34.728 -17.853 -21.545  0.00  0.00    +0.144 HD
ENDBRANCH  22  25
ENDBRANCH  12  22
TORSDOF 3
ENDMDL
MODEL 4
REMARK VINA RESULT:      -8.0      3.342      4.950
REMARK  Name = 4170
REMARK  3 active torsions:
REMARK  status: ('A' for Active; 'I' for Inactive)
REMARK    1  A    between atoms: N_3  and  C_15
REMARK    2  A    between atoms: C_12  and  S_22
REMARK    3  A    between atoms: S_22  and  N_25
REMARK                            x       y       z     vdW  Elec       q    Type
REMARK                         _______ _______ _______ _____ _____    ______ ____
ROOT
ATOM      1 CL   UNL     1      33.916  -7.106 -23.368  0.00  0.00    -0.081 Cl
ATOM      2  O   UNL     1      32.409 -13.559 -22.626  0.00  0.00    -0.269 OA
ATOM      3  N   UNL     1      33.762 -13.739 -24.544  0.00  0.00    -0.240 N 
ATOM      4  N   UNL     1      34.676 -11.696 -25.451  0.00  0.00    -0.318 N 
ATOM      5  C   UNL     1      34.147 -13.011 -25.770  0.00  0.00    +0.153 C 
ATOM      6  C   UNL     1      34.057 -10.953 -24.461  0.00  0.00    +0.051 C 
ATOM      7  C   UNL     1      33.230 -11.567 -23.513  0.00  0.00    +0.068 C 
ATOM      8  C   UNL     1      33.086 -13.048 -23.515  0.00  0.00    +0.255 C 
ATOM      9  C   UNL     1      32.973 -12.861 -26.742  0.00  0.00    +0.044 C 
ATOM     10  C   UNL     1      32.594 -10.806 -22.524  0.00  0.00    +0.027 C 
ATOM     11  C   UNL     1      34.262  -9.569 -24.380  0.00  0.00    +0.027 C 
ATOM     12  C   UNL     1      32.790  -9.427 -22.472  0.00  0.00    +0.132 C 
ATOM     13  C   UNL     1      33.629  -8.809 -23.395  0.00  0.00    +0.077 C 
ATOM     14  H   UNL     1      35.460 -11.340 -25.930  0.00  0.00    +0.148 HD
ENDROOT
BRANCH   3  15
ATOM     15  C   UNL     1      33.964 -15.171 -24.483  0.00  0.00    +0.052 C 
ATOM     16  C   UNL     1      34.497 -15.764 -23.342  0.00  0.00    -0.008 C 
ATOM     17  C   UNL     1      33.616 -15.948 -25.584  0.00  0.00    +0.015 C 
ATOM     18  C   UNL     1      34.684 -17.146 -23.302  0.00  0.00    -0.003 C 
ATOM     19  C   UNL     1      34.878 -14.951 -22.147  0.00  0.00    +0.032 C 
ATOM     20  C   UNL     1      33.803 -17.330 -25.543  0.00  0.00    +0.001 C 
ATOM     21  C   UNL     1      34.338 -17.928 -24.403  0.00  0.00    -0.000 C 
ENDBRANCH   3  15
BRANCH  12  22
ATOM     22  S   UNL     1      31.969  -8.527 -21.213  0.00  0.00    +0.058 S 
ATOM     23  O   UNL     1      31.241  -7.456 -21.889  0.00  0.00    -0.153 OA
ATOM     24  O   UNL     1      31.250  -9.528 -20.432  0.00  0.00    -0.153 OA
BRANCH  22  25
ATOM     25  N   UNL     1      33.145  -7.793 -20.196  0.00  0.00    -0.203 NA
ATOM     26  H   UNL     1      33.992  -7.611 -20.733  0.00  0.00    +0.144 HD
ATOM     27  H   UNL     1      33.361  -8.419 -19.420  0.00  0.00    +0.144 HD
ENDBRANCH  22  25
ENDBRANCH  12  22
TORSDOF 3
ENDMDL
MODEL 5
REMARK VINA RESULT:      -7.9      3.951      6.058
REMARK  Name = 4170
REMARK  3 active torsions:
REMARK  status: ('A' for Active; 'I' for Inactive)
REMARK    1  A    between atoms: N_3  and  C_15
REMARK    2  A    between atoms: C_12  and  S_22
REMARK    3  A    between atoms: S_22  and  N_25
REMARK                            x       y       z     vdW  Elec       q    Type
REMARK                         _______ _______ _______ _____ _____    ______ ____
ROOT
ATOM      1 CL   UNL     1      30.435  -7.104 -22.645  0.00  0.00    -0.081 Cl
ATOM      2  O   UNL     1      34.830 -11.836 -24.303  0.00  0.00    -0.269 OA
ATOM      3  N   UNL     1      33.178 -13.217 -23.350  0.00  0.00    -0.240 N 
ATOM      4  N   UNL     1      31.211 -12.139 -22.458  0.00  0.00    -0.318 N 
ATOM      5  C   UNL     1      32.145 -13.240 -22.295  0.00  0.00    +0.153 C 
ATOM      6  C   UNL     1      31.704 -10.895 -22.812  0.00  0.00    +0.051 C 
ATOM      7  C   UNL     1      32.969 -10.765 -23.398  0.00  0.00    +0.068 C 
ATOM      8  C   UNL     1      33.755 -11.985 -23.726  0.00  0.00    +0.255 C 
ATOM      9  C   UNL     1      32.755 -13.181 -20.891  0.00  0.00    +0.044 C 
ATOM     10  C   UNL     1      33.469  -9.502 -23.739  0.00  0.00    +0.027 C 
ATOM     11  C   UNL     1      30.936  -9.741 -22.605  0.00  0.00    +0.027 C 
ATOM     12  C   UNL     1      32.701  -8.362 -23.505  0.00  0.00    +0.132 C 
ATOM     13  C   UNL     1      31.433  -8.482 -22.945  0.00  0.00    +0.077 C 
ATOM     14  H   UNL     1      30.245 -12.275 -22.318  0.00  0.00    +0.148 HD
ENDROOT
BRANCH   3  15
ATOM     15  C   UNL     1      33.672 -14.472 -23.878  0.00  0.00    +0.052 C 
ATOM     16  C   UNL     1      33.362 -14.867 -25.176  0.00  0.00    -0.008 C 
ATOM     17  C   UNL     1      34.465 -15.279 -23.066  0.00  0.00    +0.015 C 
ATOM     18  C   UNL     1      33.848 -16.080 -25.666  0.00  0.00    -0.003 C 
ATOM     19  C   UNL     1      32.514 -14.018 -26.066  0.00  0.00    +0.032 C 
ATOM     20  C   UNL     1      34.951 -16.490 -23.557  0.00  0.00    +0.001 C 
ATOM     21  C   UNL     1      34.642 -16.891 -24.856  0.00  0.00    -0.000 C 
ENDBRANCH   3  15
BRANCH  12  22
ATOM     22  S   UNL     1      33.378  -6.808 -23.952  0.00  0.00    +0.058 S 
ATOM     23  O   UNL     1      33.049  -5.895 -22.861  0.00  0.00    -0.153 OA
ATOM     24  O   UNL     1      34.770  -7.080 -24.292  0.00  0.00    -0.153 OA
BRANCH  22  25
ATOM     25  N   UNL     1      32.579  -6.240 -25.365  0.00  0.00    -0.203 NA
ATOM     26  H   UNL     1      33.271  -5.917 -26.039  0.00  0.00    +0.144 HD
ATOM     27  H   UNL     1      31.958  -5.470 -25.117  0.00  0.00    +0.144 HD
ENDBRANCH  22  25
ENDBRANCH  12  22
TORSDOF 3
ENDMDL
MODEL 6
REMARK VINA RESULT:      -7.8      7.628     11.522
REMARK  Name = 4170
REMARK  3 active torsions:
REMARK  status: ('A' for Active; 'I' for Inactive)
REMARK    1  A    between atoms: N_3  and  C_15
REMARK    2  A    between atoms: C_12  and  S_22
REMARK    3  A    between atoms: S_22  and  N_25
REMARK                            x       y       z     vdW  Elec       q    Type
REMARK                         _______ _______ _______ _____ _____    ______ ____
ROOT
ATOM      1 CL   UNL     1      32.179 -10.001 -18.480  0.00  0.00    -0.081 Cl
ATOM      2  O   UNL     1      31.552  -7.906 -24.778  0.00  0.00    -0.269 OA
ATOM      3  N   UNL     1      32.062  -5.838 -23.776  0.00  0.00    -0.240 N 
ATOM      4  N   UNL     1      32.402  -5.818 -21.385  0.00  0.00    -0.318 N 
ATOM      5  C   UNL     1      31.887  -5.076 -22.523  0.00  0.00    +0.153 C 
ATOM      6  C   UNL     1      32.164  -7.181 -21.318  0.00  0.00    +0.051 C 
ATOM      7  C   UNL     1      31.817  -7.906 -22.464  0.00  0.00    +0.068 C 
ATOM      8  C   UNL     1      31.791  -7.223 -23.785  0.00  0.00    +0.255 C 
ATOM      9  C   UNL     1      30.420  -4.716 -22.270  0.00  0.00    +0.044 C 
ATOM     10  C   UNL     1      31.561  -9.281 -22.385  0.00  0.00    +0.027 C 
ATOM     11  C   UNL     1      32.282  -7.862 -20.099  0.00  0.00    +0.027 C 
ATOM     12  C   UNL     1      31.661  -9.940 -21.160  0.00  0.00    +0.132 C 
ATOM     13  C   UNL     1      32.028  -9.232 -20.019  0.00  0.00    +0.077 C 
ATOM     14  H   UNL     1      32.910  -5.362 -20.676  0.00  0.00    +0.148 HD
ENDROOT
BRANCH   3  15
ATOM     15  C   UNL     1      32.376  -5.124 -24.996  0.00  0.00    +0.052 C 
ATOM     16  C   UNL     1      33.553  -5.389 -25.691  0.00  0.00    -0.008 C 
ATOM     17  C   UNL     1      31.481  -4.167 -25.466  0.00  0.00    +0.015 C 
ATOM     18  C   UNL     1      33.837  -4.691 -26.865  0.00  0.00    -0.003 C 
ATOM     19  C   UNL     1      34.528  -6.413 -25.207  0.00  0.00    +0.032 C 
ATOM     20  C   UNL     1      31.765  -3.470 -26.639  0.00  0.00    +0.001 C 
ATOM     21  C   UNL     1      32.943  -3.731 -27.338  0.00  0.00    -0.000 C 
ENDBRANCH   3  15
BRANCH  12  22
ATOM     22  S   UNL     1      31.330 -11.660 -21.122  0.00  0.00    +0.058 S 
ATOM     23  O   UNL     1      32.215 -12.220 -20.103  0.00  0.00    -0.153 OA
ATOM     24  O   UNL     1      29.882 -11.769 -20.982  0.00  0.00    -0.153 OA
BRANCH  22  25
ATOM     25  N   UNL     1      31.779 -12.346 -22.633  0.00  0.00    -0.203 NA
ATOM     26  H   UNL     1      32.285 -11.653 -23.183  0.00  0.00    +0.144 HD
ATOM     27  H   UNL     1      30.941 -12.636 -23.137  0.00  0.00    +0.144 HD
ENDBRANCH  22  25
ENDBRANCH  12  22
TORSDOF 3
ENDMDL
MODEL 7
REMARK VINA RESULT:      -7.8      3.637      7.425
REMARK  Name = 4170
REMARK  3 active torsions:
REMARK  status: ('A' for Active; 'I' for Inactive)
REMARK    1  A    between atoms: N_3  and  C_15
REMARK    2  A    between atoms: C_12  and  S_22
REMARK    3  A    between atoms: S_22  and  N_25
REMARK                            x       y       z     vdW  Elec       q    Type
REMARK                         _______ _______ _______ _____ _____    ______ ____
ROOT
ATOM      1 CL   UNL     1      34.026 -18.632 -25.368  0.00  0.00    -0.081 Cl
ATOM      2  O   UNL     1      34.363 -12.951 -21.893  0.00  0.00    -0.269 OA
ATOM      3  N   UNL     1      33.424 -12.090 -23.873  0.00  0.00    -0.240 N 
ATOM      4  N   UNL     1      33.034 -13.641 -25.681  0.00  0.00    -0.318 N 
ATOM      5  C   UNL     1      33.414 -12.282 -25.337  0.00  0.00    +0.153 C 
ATOM      6  C   UNL     1      33.539 -14.685 -24.925  0.00  0.00    +0.051 C 
ATOM      7  C   UNL     1      34.051 -14.459 -23.642  0.00  0.00    +0.068 C 
ATOM      8  C   UNL     1      33.968 -13.097 -23.048  0.00  0.00    +0.255 C 
ATOM      9  C   UNL     1      34.773 -11.963 -25.968  0.00  0.00    +0.044 C 
ATOM     10  C   UNL     1      34.575 -15.517 -22.889  0.00  0.00    +0.027 C 
ATOM     11  C   UNL     1      33.532 -15.993 -25.426  0.00  0.00    +0.027 C 
ATOM     12  C   UNL     1      34.582 -16.809 -23.412  0.00  0.00    +0.132 C 
ATOM     13  C   UNL     1      34.054 -17.049 -24.677  0.00  0.00    +0.077 C 
ATOM     14  H   UNL     1      32.429 -13.817 -26.438  0.00  0.00    +0.148 HD
ENDROOT
BRANCH   3  15
ATOM     15  C   UNL     1      33.001 -10.817 -23.328  0.00  0.00    +0.052 C 
ATOM     16  C   UNL     1      31.946 -10.748 -22.423  0.00  0.00    -0.008 C 
ATOM     17  C   UNL     1      33.669  -9.660 -23.722  0.00  0.00    +0.015 C 
ATOM     18  C   UNL     1      31.554  -9.512 -21.909  0.00  0.00    -0.003 C 
ATOM     19  C   UNL     1      31.215 -11.976 -21.985  0.00  0.00    +0.032 C 
ATOM     20  C   UNL     1      33.276  -8.425 -23.207  0.00  0.00    +0.001 C 
ATOM     21  C   UNL     1      32.218  -8.351 -22.302  0.00  0.00    -0.000 C 
ENDBRANCH   3  15
BRANCH  12  22
ATOM     22  S   UNL     1      35.251 -18.093 -22.424  0.00  0.00    +0.058 S 
ATOM     23  O   UNL     1      34.248 -19.155 -22.409  0.00  0.00    -0.153 OA
ATOM     24  O   UNL     1      36.581 -18.343 -22.969  0.00  0.00    -0.153 OA
BRANCH  22  25
ATOM     25  N   UNL     1      35.426 -17.521 -20.813  0.00  0.00    -0.203 NA
ATOM     26  H   UNL     1      35.521 -16.506 -20.821  0.00  0.00    +0.144 HD
ATOM     27  H   UNL     1      36.257 -17.937 -20.393  0.00  0.00    +0.144 HD
ENDBRANCH  22  25
ENDBRANCH  12  22
TORSDOF 3
ENDMDL
MODEL 8
REMARK VINA RESULT:      -7.7      3.615      7.476
REMARK  Name = 4170
REMARK  3 active torsions:
REMARK  status: ('A' for Active; 'I' for Inactive)
REMARK    1  A    between atoms: N_3  and  C_15
REMARK    2  A    between atoms: C_12  and  S_22
REMARK    3  A    between atoms: S_22  and  N_25
REMARK                            x       y       z     vdW  Elec       q    Type
REMARK                         _______ _______ _______ _____ _____    ______ ____
ROOT
ATOM      1 CL   UNL     1      34.411 -19.151 -25.203  0.00  0.00    -0.081 Cl
ATOM      2  O   UNL     1      34.359 -13.368 -21.886  0.00  0.00    -0.269 OA
ATOM      3  N   UNL     1      33.277 -12.649 -23.849  0.00  0.00    -0.240 N 
ATOM      4  N   UNL     1      32.963 -14.280 -25.602  0.00  0.00    -0.318 N 
ATOM      5  C   UNL     1      33.232 -12.883 -25.307  0.00  0.00    +0.153 C 
ATOM      6  C   UNL     1      33.587 -15.253 -24.840  0.00  0.00    +0.051 C 
ATOM      7  C   UNL     1      34.122 -14.946 -23.583  0.00  0.00    +0.068 C 
ATOM      8  C   UNL     1      33.938 -13.580 -23.021  0.00  0.00    +0.255 C 
ATOM      9  C   UNL     1      34.534 -12.462 -25.997  0.00  0.00    +0.044 C 
ATOM     10  C   UNL     1      34.766 -15.931 -22.825  0.00  0.00    +0.027 C 
ATOM     11  C   UNL     1      33.680 -16.570 -25.308  0.00  0.00    +0.027 C 
ATOM     12  C   UNL     1      34.870 -17.232 -23.316  0.00  0.00    +0.132 C 
ATOM     13  C   UNL     1      34.321 -17.553 -24.553  0.00  0.00    +0.077 C 
ATOM     14  H   UNL     1      32.349 -14.530 -26.331  0.00  0.00    +0.148 HD
ENDROOT
BRANCH   3  15
ATOM     15  C   UNL     1      32.761 -11.404 -23.320  0.00  0.00    +0.052 C 
ATOM     16  C   UNL     1      33.443 -10.208 -23.528  0.00  0.00    -0.008 C 
ATOM     17  C   UNL     1      31.570 -11.420 -22.599  0.00  0.00    +0.015 C 
ATOM     18  C   UNL     1      32.929  -9.019 -23.010  0.00  0.00    -0.003 C 
ATOM     19  C   UNL     1      34.722 -10.166 -24.299  0.00  0.00    +0.032 C 
ATOM     20  C   UNL     1      31.057 -10.231 -22.082  0.00  0.00    +0.001 C 
ATOM     21  C   UNL     1      31.737  -9.031 -22.287  0.00  0.00    -0.000 C 
ENDBRANCH   3  15
BRANCH  12  22
ATOM     22  S   UNL     1      35.686 -18.423 -22.322  0.00  0.00    +0.058 S 
ATOM     23  O   UNL     1      34.891 -19.645 -22.420  0.00  0.00    -0.153 OA
ATOM     24  O   UNL     1      37.074 -18.409 -22.769  0.00  0.00    -0.153 OA
BRANCH  22  25
ATOM     25  N   UNL     1      35.642 -17.905 -20.684  0.00  0.00    -0.203 NA
ATOM     26  H   UNL     1      36.518 -18.153 -20.225  0.00  0.00    +0.144 HD
ATOM     27  H   UNL     1      34.865 -18.360 -20.204  0.00  0.00    +0.144 HD
ENDBRANCH  22  25
ENDBRANCH  12  22
TORSDOF 3
ENDMDL
MODEL 9
REMARK VINA RESULT:      -7.7      8.134     10.888
REMARK  Name = 4170
REMARK  3 active torsions:
REMARK  status: ('A' for Active; 'I' for Inactive)
REMARK    1  A    between atoms: N_3  and  C_15
REMARK    2  A    between atoms: C_12  and  S_22
REMARK    3  A    between atoms: S_22  and  N_25
REMARK                            x       y       z     vdW  Elec       q    Type
REMARK                         _______ _______ _______ _____ _____    ______ ____
ROOT
ATOM      1 CL   UNL     1      31.929  -2.666 -27.650  0.00  0.00    -0.081 Cl
ATOM      2  O   UNL     1      33.893  -7.740 -23.797  0.00  0.00    -0.269 OA
ATOM      3  N   UNL     1      31.791  -7.351 -22.810  0.00  0.00    -0.240 N 
ATOM      4  N   UNL     1      30.462  -5.546 -23.708  0.00  0.00    -0.318 N 
ATOM      5  C   UNL     1      30.829  -6.272 -22.505  0.00  0.00    +0.153 C 
ATOM      6  C   UNL     1      31.449  -5.249 -24.633  0.00  0.00    +0.051 C 
ATOM      7  C   UNL     1      32.657  -5.956 -24.644  0.00  0.00    +0.068 C 
ATOM      8  C   UNL     1      32.848  -7.099 -23.710  0.00  0.00    +0.255 C 
ATOM      9  C   UNL     1      31.380  -5.287 -21.468  0.00  0.00    +0.044 C 
ATOM     10  C   UNL     1      33.657  -5.640 -25.573  0.00  0.00    +0.027 C 
ATOM     11  C   UNL     1      31.247  -4.244 -25.588  0.00  0.00    +0.027 C 
ATOM     12  C   UNL     1      33.449  -4.621 -26.501  0.00  0.00    +0.132 C 
ATOM     13  C   UNL     1      32.243  -3.928 -26.514  0.00  0.00    +0.077 C 
ATOM     14  H   UNL     1      29.529  -5.269 -23.863  0.00  0.00    +0.148 HD
ENDROOT
BRANCH   3  15
ATOM     15  C   UNL     1      31.707  -8.596 -22.076  0.00  0.00    +0.052 C 
ATOM     16  C   UNL     1      32.207  -8.691 -20.781  0.00  0.00    -0.008 C 
ATOM     17  C   UNL     1      31.118  -9.700 -22.688  0.00  0.00    +0.015 C 
ATOM     18  C   UNL     1      32.117  -9.901 -20.091  0.00  0.00    -0.003 C 
ATOM     19  C   UNL     1      32.843  -7.521 -20.104  0.00  0.00    +0.032 C 
ATOM     20  C   UNL     1      31.028 -10.908 -21.997  0.00  0.00    +0.001 C 
ATOM     21  C   UNL     1      31.528 -11.008 -20.699  0.00  0.00    -0.000 C 
ENDBRANCH   3  15
BRANCH  12  22
ATOM     22  S   UNL     1      34.736  -4.270 -27.638  0.00  0.00    +0.058 S 
ATOM     23  O   UNL     1      35.872  -5.094 -27.231  0.00  0.00    -0.153 OA
ATOM     24  O   UNL     1      34.138  -4.440 -28.958  0.00  0.00    -0.153 OA
BRANCH  22  25
ATOM     25  N   UNL     1      35.199  -2.624 -27.463  0.00  0.00    -0.203 NA
ATOM     26  H   UNL     1      34.417  -2.022 -27.721  0.00  0.00    +0.144 HD
ATOM     27  H   UNL     1      35.995  -2.428 -28.071  0.00  0.00    +0.144 HD
ENDBRANCH  22  25
ENDBRANCH  12  22
TORSDOF 3
ENDMDL
