MODEL 1
REMARK VINA RESULT:      -4.8      0.000      0.000
REMARK  Name = 10430
REMARK  3 active torsions:
REMARK  status: ('A' for Active; 'I' for Inactive)
REMARK    1  A    between atoms: C_1  and  C_2
REMARK    2  A    between atoms: C_1  and  C_6
REMARK    3  A    between atoms: C_6  and  O_7
REMARK                            x       y       z     vdW  Elec       q    Type
REMARK                         _______ _______ _______ _____ _____    ______ ____
ROOT
ATOM      1  C   UNL     1      41.374 -14.235 -15.694  0.00  0.00    +0.109 C 
ENDROOT
BRANCH   1   2
ATOM      2  C   UNL     1      42.056 -13.859 -17.018  0.00  0.00    +0.011 C 
ATOM      3  C   UNL     1      42.299 -12.349 -17.072  0.00  0.00    +0.001 C 
ATOM      4  C   UNL     1      41.216 -14.291 -18.223  0.00  0.00    +0.001 C 
ENDBRANCH   1   2
BRANCH   1   6
ATOM      5  O   UNL     1      42.191 -16.532 -15.576  0.00  0.00    -0.250 OA
ATOM      6  C   UNL     1      41.276 -15.728 -15.481  0.00  0.00    +0.314 C 
BRANCH   6   7
ATOM      7  O   UNL     1      40.010 -16.066 -15.126  0.00  0.00    -0.480 OA
ATOM      8  H   UNL     1      39.281 -15.718 -15.601  0.00  0.00    +0.295 HD
ENDBRANCH   6   7
ENDBRANCH   1   6
TORSDOF 3
ENDMDL
MODEL 2
REMARK VINA RESULT:      -4.7     11.295     12.133
REMARK  Name = 10430
REMARK  3 active torsions:
REMARK  status: ('A' for Active; 'I' for Inactive)
REMARK    1  A    between atoms: C_1  and  C_2
REMARK    2  A    between atoms: C_1  and  C_6
REMARK    3  A    between atoms: C_6  and  O_7
REMARK                            x       y       z     vdW  Elec       q    Type
REMARK                         _______ _______ _______ _____ _____    ______ ____
ROOT
ATOM      1  C   UNL     1      39.072 -25.313 -14.282  0.00  0.00    +0.109 C 
ENDROOT
BRANCH   1   2
ATOM      2  C   UNL     1      37.947 -26.313 -13.974  0.00  0.00    +0.011 C 
ATOM      3  C   UNL     1      36.874 -26.245 -15.063  0.00  0.00    +0.001 C 
ATOM      4  C   UNL     1      37.316 -26.041 -12.607  0.00  0.00    +0.001 C 
ENDBRANCH   1   2
BRANCH   1   6
ATOM      5  O   UNL     1      41.175 -26.531 -14.060  0.00  0.00    -0.250 OA
ATOM      6  C   UNL     1      40.341 -25.978 -14.761  0.00  0.00    +0.314 C 
BRANCH   6   7
ATOM      7  O   UNL     1      40.422 -25.910 -16.115  0.00  0.00    -0.480 OA
ATOM      8  H   UNL     1      40.374 -25.080 -16.546  0.00  0.00    +0.295 HD
ENDBRANCH   6   7
ENDBRANCH   1   6
TORSDOF 3
ENDMDL
MODEL 3
REMARK VINA RESULT:      -4.6     14.266     15.526
REMARK  Name = 10430
REMARK  3 active torsions:
REMARK  status: ('A' for Active; 'I' for Inactive)
REMARK    1  A    between atoms: C_1  and  C_2
REMARK    2  A    between atoms: C_1  and  C_6
REMARK    3  A    between atoms: C_6  and  O_7
REMARK                            x       y       z     vdW  Elec       q    Type
REMARK                         _______ _______ _______ _____ _____    ______ ____
ROOT
ATOM      1  C   UNL     1      28.678 -23.024 -15.658  0.00  0.00    +0.109 C 
ENDROOT
BRANCH   1   2
ATOM      2  C   UNL     1      29.862 -23.952 -15.968  0.00  0.00    +0.011 C 
ATOM      3  C   UNL     1      29.961 -25.047 -14.904  0.00  0.00    +0.001 C 
ATOM      4  C   UNL     1      31.179 -23.175 -16.036  0.00  0.00    +0.001 C 
ENDBRANCH   1   2
BRANCH   1   6
ATOM      5  O   UNL     1      27.430 -21.578 -17.177  0.00  0.00    -0.250 OA
ATOM      6  C   UNL     1      27.855 -22.684 -16.879  0.00  0.00    +0.314 C 
BRANCH   6   7
ATOM      7  O   UNL     1      27.672 -23.791 -17.642  0.00  0.00    -0.480 OA
ATOM      8  H   UNL     1      27.021 -24.422 -17.405  0.00  0.00    +0.295 HD
ENDBRANCH   6   7
ENDBRANCH   1   6
TORSDOF 3
ENDMDL
MODEL 4
REMARK VINA RESULT:      -4.5      9.521     10.366
REMARK  Name = 10430
REMARK  3 active torsions:
REMARK  status: ('A' for Active; 'I' for Inactive)
REMARK    1  A    between atoms: C_1  and  C_2
REMARK    2  A    between atoms: C_1  and  C_6
REMARK    3  A    between atoms: C_6  and  O_7
REMARK                            x       y       z     vdW  Elec       q    Type
REMARK                         _______ _______ _______ _____ _____    ______ ____
ROOT
ATOM      1  C   UNL     1      34.433 -21.293 -19.595  0.00  0.00    +0.109 C 
ENDROOT
BRANCH   1   2
ATOM      2  C   UNL     1      35.962 -21.436 -19.640  0.00  0.00    +0.011 C 
ATOM      3  C   UNL     1      36.512 -21.624 -18.224  0.00  0.00    +0.001 C 
ATOM      4  C   UNL     1      36.620 -20.218 -20.293  0.00  0.00    +0.001 C 
ENDBRANCH   1   2
BRANCH   1   6
ATOM      5  O   UNL     1      34.077 -23.707 -19.569  0.00  0.00    -0.250 OA
ATOM      6  C   UNL     1      33.727 -22.582 -19.246  0.00  0.00    +0.314 C 
BRANCH   6   7
ATOM      7  O   UNL     1      32.639 -22.325 -18.475  0.00  0.00    -0.480 OA
ATOM      8  H   UNL     1      32.181 -21.513 -18.567  0.00  0.00    +0.295 HD
ENDBRANCH   6   7
ENDBRANCH   1   6
TORSDOF 3
ENDMDL
MODEL 5
REMARK VINA RESULT:      -4.4      8.882      9.945
REMARK  Name = 10430
REMARK  3 active torsions:
REMARK  status: ('A' for Active; 'I' for Inactive)
REMARK    1  A    between atoms: C_1  and  C_2
REMARK    2  A    between atoms: C_1  and  C_6
REMARK    3  A    between atoms: C_6  and  O_7
REMARK                            x       y       z     vdW  Elec       q    Type
REMARK                         _______ _______ _______ _____ _____    ______ ____
ROOT
ATOM      1  C   UNL     1      34.832 -19.281 -21.840  0.00  0.00    +0.109 C 
ENDROOT
BRANCH   1   2
ATOM      2  C   UNL     1      34.314 -19.858 -20.514  0.00  0.00    +0.011 C 
ATOM      3  C   UNL     1      35.203 -21.019 -20.064  0.00  0.00    +0.001 C 
ATOM      4  C   UNL     1      32.865 -20.334 -20.639  0.00  0.00    +0.001 C 
ENDBRANCH   1   2
BRANCH   1   6
ATOM      5  O   UNL     1      35.294 -17.169 -20.710  0.00  0.00    -0.250 OA
ATOM      6  C   UNL     1      35.346 -17.867 -21.711  0.00  0.00    +0.314 C 
BRANCH   6   7
ATOM      7  O   UNL     1      35.922 -17.471 -22.875  0.00  0.00    -0.480 OA
ATOM      8  H   UNL     1      36.245 -16.596 -22.965  0.00  0.00    +0.295 HD
ENDBRANCH   6   7
ENDBRANCH   1   6
TORSDOF 3
ENDMDL
MODEL 6
REMARK VINA RESULT:      -4.4      9.992     10.806
REMARK  Name = 10430
REMARK  3 active torsions:
REMARK  status: ('A' for Active; 'I' for Inactive)
REMARK    1  A    between atoms: C_1  and  C_2
REMARK    2  A    between atoms: C_1  and  C_6
REMARK    3  A    between atoms: C_6  and  O_7
REMARK                            x       y       z     vdW  Elec       q    Type
REMARK                         _______ _______ _______ _____ _____    ______ ____
ROOT
ATOM      1  C   UNL     1      34.574 -21.337 -19.358  0.00  0.00    +0.109 C 
ENDROOT
BRANCH   1   2
ATOM      2  C   UNL     1      34.182 -20.582 -20.638  0.00  0.00    +0.011 C 
ATOM      3  C   UNL     1      35.239 -19.527 -20.968  0.00  0.00    +0.001 C 
ATOM      4  C   UNL     1      32.811 -19.915 -20.496  0.00  0.00    +0.001 C 
ENDBRANCH   1   2
BRANCH   1   6
ATOM      5  O   UNL     1      32.629 -22.419 -18.358  0.00  0.00    -0.250 OA
ATOM      6  C   UNL     1      33.643 -22.482 -19.036  0.00  0.00    +0.314 C 
BRANCH   6   7
ATOM      7  O   UNL     1      34.073 -23.618 -19.644  0.00  0.00    -0.480 OA
ATOM      8  H   UNL     1      33.485 -24.114 -20.180  0.00  0.00    +0.295 HD
ENDBRANCH   6   7
ENDBRANCH   1   6
TORSDOF 3
ENDMDL
MODEL 7
REMARK VINA RESULT:      -4.4     14.141     15.296
REMARK  Name = 10430
REMARK  3 active torsions:
REMARK  status: ('A' for Active; 'I' for Inactive)
REMARK    1  A    between atoms: C_1  and  C_2
REMARK    2  A    between atoms: C_1  and  C_6
REMARK    3  A    between atoms: C_6  and  O_7
REMARK                            x       y       z     vdW  Elec       q    Type
REMARK                         _______ _______ _______ _____ _____    ______ ____
ROOT
ATOM      1  C   UNL     1      29.537 -22.763 -16.525  0.00  0.00    +0.109 C 
ENDROOT
BRANCH   1   2
ATOM      2  C   UNL     1      29.782 -23.166 -15.062  0.00  0.00    +0.011 C 
ATOM      3  C   UNL     1      31.216 -22.818 -14.657  0.00  0.00    +0.001 C 
ATOM      4  C   UNL     1      29.530 -24.660 -14.844  0.00  0.00    +0.001 C 
ENDBRANCH   1   2
BRANCH   1   6
ATOM      5  O   UNL     1      27.571 -23.621 -17.689  0.00  0.00    -0.250 OA
ATOM      6  C   UNL     1      28.079 -22.820 -16.919  0.00  0.00    +0.314 C 
BRANCH   6   7
ATOM      7  O   UNL     1      27.380 -21.860 -16.261  0.00  0.00    -0.480 OA
ATOM      8  H   UNL     1      27.666 -20.969 -16.289  0.00  0.00    +0.295 HD
ENDBRANCH   6   7
ENDBRANCH   1   6
TORSDOF 3
ENDMDL
MODEL 8
REMARK VINA RESULT:      -4.4      9.544     10.658
REMARK  Name = 10430
REMARK  3 active torsions:
REMARK  status: ('A' for Active; 'I' for Inactive)
REMARK    1  A    between atoms: C_1  and  C_2
REMARK    2  A    between atoms: C_1  and  C_6
REMARK    3  A    between atoms: C_6  and  O_7
REMARK                            x       y       z     vdW  Elec       q    Type
REMARK                         _______ _______ _______ _____ _____    ______ ____
ROOT
ATOM      1  C   UNL     1      35.146 -18.888 -23.595  0.00  0.00    +0.109 C 
ENDROOT
BRANCH   1   2
ATOM      2  C   UNL     1      34.945 -18.579 -22.103  0.00  0.00    +0.011 C 
ATOM      3  C   UNL     1      36.273 -18.719 -21.357  0.00  0.00    +0.001 C 
ATOM      4  C   UNL     1      33.899 -19.503 -21.476  0.00  0.00    +0.001 C 
ENDBRANCH   1   2
BRANCH   1   6
ATOM      5  O   UNL     1      34.287 -17.686 -25.536  0.00  0.00    -0.250 OA
ATOM      6  C   UNL     1      34.910 -17.691 -24.485  0.00  0.00    +0.314 C 
BRANCH   6   7
ATOM      7  O   UNL     1      35.466 -16.582 -23.935  0.00  0.00    -0.480 OA
ATOM      8  H   UNL     1      36.376 -16.575 -23.712  0.00  0.00    +0.295 HD
ENDBRANCH   6   7
ENDBRANCH   1   6
TORSDOF 3
ENDMDL
MODEL 9
REMARK VINA RESULT:      -4.3      9.211     10.032
REMARK  Name = 10430
REMARK  3 active torsions:
REMARK  status: ('A' for Active; 'I' for Inactive)
REMARK    1  A    between atoms: C_1  and  C_2
REMARK    2  A    between atoms: C_1  and  C_6
REMARK    3  A    between atoms: C_6  and  O_7
REMARK                            x       y       z     vdW  Elec       q    Type
REMARK                         _______ _______ _______ _____ _____    ______ ____
ROOT
ATOM      1  C   UNL     1      33.552 -19.659 -21.095  0.00  0.00    +0.109 C 
ENDROOT
BRANCH   1   2
ATOM      2  C   UNL     1      34.888 -19.254 -21.738  0.00  0.00    +0.011 C 
ATOM      3  C   UNL     1      35.340 -17.898 -21.194  0.00  0.00    +0.001 C 
ATOM      4  C   UNL     1      34.778 -19.190 -23.263  0.00  0.00    +0.001 C 
ENDBRANCH   1   2
BRANCH   1   6
ATOM      5  O   UNL     1      34.743 -21.271 -19.703  0.00  0.00    -0.250 OA
ATOM      6  C   UNL     1      33.708 -20.698 -20.010  0.00  0.00    +0.314 C 
BRANCH   6   7
ATOM      7  O   UNL     1      32.523 -20.895 -19.377  0.00  0.00    -0.480 OA
ATOM      8  H   UNL     1      32.173 -20.229 -18.820  0.00  0.00    +0.295 HD
ENDBRANCH   6   7
ENDBRANCH   1   6
TORSDOF 3
ENDMDL
