MODEL 1
REMARK VINA RESULT:      -9.0      0.000      0.000
REMARK  Name = 444450
REMARK  8 active torsions:
REMARK  status: ('A' for Active; 'I' for Inactive)
REMARK    1  A    between atoms: C_2  and  O_15
REMARK    2  A    between atoms: C_3  and  O_17
REMARK    3  A    between atoms: C_4  and  N_6
REMARK    4  A    between atoms: C_5  and  C_19
REMARK    5  A    between atoms: C_19  and  O_20
REMARK    6  A    between atoms: O_20  and  P_21
REMARK    7  A    between atoms: P_21  and  O_23
REMARK    8  A    between atoms: P_21  and  O_25
REMARK                            x       y       z     vdW  Elec       q    Type
REMARK                         _______ _______ _______ _____ _____    ______ ____
ROOT
ATOM      1  O   UNL     1      36.625 -23.185 -14.242  0.00  0.00    -0.333 OA
ATOM      2  C   UNL     1      35.491 -24.800 -12.933  0.00  0.00    +0.187 C 
ATOM      3  C   UNL     1      36.933 -24.744 -12.469  0.00  0.00    +0.171 C 
ATOM      4  C   UNL     1      35.347 -23.460 -13.637  0.00  0.00    +0.225 C 
ATOM      5  C   UNL     1      37.622 -24.039 -13.634  0.00  0.00    +0.176 C 
ENDROOT
BRANCH   4   6
ATOM      6  N   UNL     1      34.302 -23.433 -14.658  0.00  0.00    -0.247 N 
ATOM      7  N   UNL     1      33.361 -23.330 -16.679  0.00  0.00    -0.247 NA
ATOM      8  N   UNL     1      32.308 -23.625 -13.282  0.00  0.00    -0.208 NA
ATOM      9  N   UNL     1      30.285 -23.621 -14.646  0.00  0.00    -0.243 NA
ATOM     10  C   UNL     1      32.952 -23.510 -14.453  0.00  0.00    +0.152 C 
ATOM     11  C   UNL     1      34.496 -23.325 -16.011  0.00  0.00    +0.223 C 
ATOM     12  C   UNL     1      32.388 -23.445 -15.718  0.00  0.00    +0.112 C 
ATOM     13  C   UNL     1      31.001 -23.504 -15.790  0.00  0.00    +0.175 C 
ATOM     14  C   UNL     1      30.973 -23.673 -13.480  0.00  0.00    +0.196 C 
ENDBRANCH   4   6
BRANCH   2  15
ATOM     15  O   UNL     1      34.572 -24.939 -11.869  0.00  0.00    -0.378 OA
ATOM     16  H   UNL     1      33.832 -24.326 -12.000  0.00  0.00    +0.211 HD
ENDBRANCH   2  15
BRANCH   3  17
ATOM     17  O   UNL     1      37.028 -23.918 -11.309  0.00  0.00    -0.379 OA
ATOM     18  H   UNL     1      37.855 -24.113 -10.841  0.00  0.00    +0.211 HD
ENDBRANCH   3  17
BRANCH   5  19
ATOM     19  C   UNL     1      38.136 -25.004 -14.693  0.00  0.00    +0.186 C 
BRANCH  19  20
ATOM     20  O   UNL     1      38.988 -25.948 -14.068  0.00  0.00    -0.271 OA
BRANCH  20  21
ATOM     21  P   UNL     1      40.553 -25.969 -14.485  0.00  0.00    +0.473 P 
ATOM     22  O   UNL     1      41.362 -27.063 -13.852  0.00  0.00    -0.227 OA
BRANCH  21  23
ATOM     23  O   UNL     1      41.055 -24.465 -14.167  0.00  0.00    -0.303 OA
ATOM     24  H   UNL     1      41.353 -24.043 -14.988  0.00  0.00    +0.222 HD
ENDBRANCH  21  23
BRANCH  21  25
ATOM     25  O   UNL     1      40.497 -26.009 -16.101  0.00  0.00    -0.303 OA
ATOM     26  H   UNL     1      39.729 -25.503 -16.410  0.00  0.00    +0.222 HD
ENDBRANCH  21  25
ENDBRANCH  20  21
ENDBRANCH  19  20
ENDBRANCH   5  19
TORSDOF 8
ENDMDL
MODEL 2
REMARK VINA RESULT:      -9.0      5.343      8.099
REMARK  Name = 444450
REMARK  8 active torsions:
REMARK  status: ('A' for Active; 'I' for Inactive)
REMARK    1  A    between atoms: C_2  and  O_15
REMARK    2  A    between atoms: C_3  and  O_17
REMARK    3  A    between atoms: C_4  and  N_6
REMARK    4  A    between atoms: C_5  and  C_19
REMARK    5  A    between atoms: C_19  and  O_20
REMARK    6  A    between atoms: O_20  and  P_21
REMARK    7  A    between atoms: P_21  and  O_23
REMARK    8  A    between atoms: P_21  and  O_25
REMARK                            x       y       z     vdW  Elec       q    Type
REMARK                         _______ _______ _______ _____ _____    ______ ____
ROOT
ATOM      1  O   UNL     1      31.527 -24.284 -16.029  0.00  0.00    -0.333 OA
ATOM      2  C   UNL     1      31.856 -22.921 -14.121  0.00  0.00    +0.187 C 
ATOM      3  C   UNL     1      30.406 -23.363 -14.141  0.00  0.00    +0.171 C 
ATOM      4  C   UNL     1      32.503 -23.963 -15.019  0.00  0.00    +0.225 C 
ATOM      5  C   UNL     1      30.229 -23.828 -15.584  0.00  0.00    +0.176 C 
ENDROOT
BRANCH   4   6
ATOM      6  N   UNL     1      33.741 -23.515 -15.654  0.00  0.00    -0.247 N 
ATOM      7  N   UNL     1      35.122 -22.779 -17.245  0.00  0.00    -0.247 NA
ATOM      8  N   UNL     1      35.295 -23.662 -13.792  0.00  0.00    -0.208 NA
ATOM      9  N   UNL     1      37.541 -22.977 -14.454  0.00  0.00    -0.243 NA
ATOM     10  C   UNL     1      34.969 -23.396 -15.066  0.00  0.00    +0.152 C 
ATOM     11  C   UNL     1      33.885 -23.133 -16.963  0.00  0.00    +0.223 C 
ATOM     12  C   UNL     1      35.810 -22.937 -16.068  0.00  0.00    +0.112 C 
ATOM     13  C   UNL     1      37.141 -22.729 -15.724  0.00  0.00    +0.175 C 
ATOM     14  C   UNL     1      36.606 -23.422 -13.580  0.00  0.00    +0.196 C 
ENDBRANCH   4   6
BRANCH   2  15
ATOM     15  O   UNL     1      32.416 -22.921 -12.824  0.00  0.00    -0.378 OA
ATOM     16  H   UNL     1      33.272 -22.464 -12.841  0.00  0.00    +0.211 HD
ENDBRANCH   2  15
BRANCH   3  17
ATOM     17  O   UNL     1      30.238 -24.482 -13.272  0.00  0.00    -0.379 OA
ATOM     18  H   UNL     1      29.372 -24.428 -12.838  0.00  0.00    +0.211 HD
ENDBRANCH   3  17
BRANCH   5  19
ATOM     19  C   UNL     1      29.767 -22.715 -16.514  0.00  0.00    +0.186 C 
BRANCH  19  20
ATOM     20  O   UNL     1      28.684 -22.035 -15.902  0.00  0.00    -0.271 OA
BRANCH  20  21
ATOM     21  P   UNL     1      27.189 -22.306 -16.461  0.00  0.00    +0.473 P 
ATOM     22  O   UNL     1      26.130 -22.425 -15.405  0.00  0.00    -0.227 OA
BRANCH  21  23
ATOM     23  O   UNL     1      27.364 -23.600 -17.415  0.00  0.00    -0.303 OA
ATOM     24  H   UNL     1      27.325 -23.324 -18.345  0.00  0.00    +0.222 HD
ENDBRANCH  21  23
BRANCH  21  25
ATOM     25  O   UNL     1      26.971 -21.096 -17.512  0.00  0.00    -0.303 OA
ATOM     26  H   UNL     1      27.798 -20.931 -17.992  0.00  0.00    +0.222 HD
ENDBRANCH  21  25
ENDBRANCH  20  21
ENDBRANCH  19  20
ENDBRANCH   5  19
TORSDOF 8
ENDMDL
MODEL 3
REMARK VINA RESULT:      -8.9      1.543      2.023
REMARK  Name = 444450
REMARK  8 active torsions:
REMARK  status: ('A' for Active; 'I' for Inactive)
REMARK    1  A    between atoms: C_2  and  O_15
REMARK    2  A    between atoms: C_3  and  O_17
REMARK    3  A    between atoms: C_4  and  N_6
REMARK    4  A    between atoms: C_5  and  C_19
REMARK    5  A    between atoms: C_19  and  O_20
REMARK    6  A    between atoms: O_20  and  P_21
REMARK    7  A    between atoms: P_21  and  O_23
REMARK    8  A    between atoms: P_21  and  O_25
REMARK                            x       y       z     vdW  Elec       q    Type
REMARK                         _______ _______ _______ _____ _____    ______ ____
ROOT
ATOM      1  O   UNL     1      37.058 -23.323 -12.944  0.00  0.00    -0.333 OA
ATOM      2  C   UNL     1      35.175 -24.755 -12.835  0.00  0.00    +0.187 C 
ATOM      3  C   UNL     1      35.988 -24.946 -11.570  0.00  0.00    +0.171 C 
ATOM      4  C   UNL     1      35.667 -23.395 -13.308  0.00  0.00    +0.225 C 
ATOM      5  C   UNL     1      37.336 -24.341 -11.955  0.00  0.00    +0.176 C 
ENDROOT
BRANCH   4   6
ATOM      6  N   UNL     1      35.521 -23.176 -14.745  0.00  0.00    -0.247 N 
ATOM      7  N   UNL     1      36.094 -22.773 -16.864  0.00  0.00    -0.247 NA
ATOM      8  N   UNL     1      33.113 -23.380 -15.000  0.00  0.00    -0.208 NA
ATOM      9  N   UNL     1      32.437 -23.072 -17.324  0.00  0.00    -0.243 NA
ATOM     10  C   UNL     1      34.356 -23.178 -15.461  0.00  0.00    +0.152 C 
ATOM     11  C   UNL     1      36.536 -22.927 -15.633  0.00  0.00    +0.223 C 
ATOM     12  C   UNL     1      34.734 -22.928 -16.771  0.00  0.00    +0.112 C 
ATOM     13  C   UNL     1      33.718 -22.877 -17.719  0.00  0.00    +0.175 C 
ATOM     14  C   UNL     1      32.217 -23.308 -16.008  0.00  0.00    +0.196 C 
ENDBRANCH   4   6
BRANCH   2  15
ATOM     15  O   UNL     1      33.782 -24.760 -12.604  0.00  0.00    -0.378 OA
ATOM     16  H   UNL     1      33.554 -25.500 -12.019  0.00  0.00    +0.211 HD
ENDBRANCH   2  15
BRANCH   3  17
ATOM     17  O   UNL     1      35.419 -24.171 -10.516  0.00  0.00    -0.379 OA
ATOM     18  H   UNL     1      35.440 -24.681  -9.691  0.00  0.00    +0.211 HD
ENDBRANCH   3  17
BRANCH   5  19
ATOM     19  C   UNL     1      38.290 -25.357 -12.567  0.00  0.00    +0.186 C 
BRANCH  19  20
ATOM     20  O   UNL     1      39.221 -24.669 -13.383  0.00  0.00    -0.271 OA
BRANCH  20  21
ATOM     21  P   UNL     1      39.704 -25.367 -14.762  0.00  0.00    +0.473 P 
ATOM     22  O   UNL     1      40.983 -26.145 -14.664  0.00  0.00    -0.227 OA
BRANCH  21  23
ATOM     23  O   UNL     1      39.713 -24.150 -15.826  0.00  0.00    -0.303 OA
ATOM     24  H   UNL     1      40.557 -23.674 -15.765  0.00  0.00    +0.222 HD
ENDBRANCH  21  23
BRANCH  21  25
ATOM     25  O   UNL     1      38.410 -26.234 -15.200  0.00  0.00    -0.303 OA
ATOM     26  H   UNL     1      38.663 -26.864 -15.893  0.00  0.00    +0.222 HD
ENDBRANCH  21  25
ENDBRANCH  20  21
ENDBRANCH  19  20
ENDBRANCH   5  19
TORSDOF 8
ENDMDL
MODEL 4
REMARK VINA RESULT:      -8.8      2.027      3.289
REMARK  Name = 444450
REMARK  8 active torsions:
REMARK  status: ('A' for Active; 'I' for Inactive)
REMARK    1  A    between atoms: C_2  and  O_15
REMARK    2  A    between atoms: C_3  and  O_17
REMARK    3  A    between atoms: C_4  and  N_6
REMARK    4  A    between atoms: C_5  and  C_19
REMARK    5  A    between atoms: C_19  and  O_20
REMARK    6  A    between atoms: O_20  and  P_21
REMARK    7  A    between atoms: P_21  and  O_23
REMARK    8  A    between atoms: P_21  and  O_25
REMARK                            x       y       z     vdW  Elec       q    Type
REMARK                         _______ _______ _______ _____ _____    ______ ____
ROOT
ATOM      1  O   UNL     1      37.769 -23.546 -13.671  0.00  0.00    -0.333 OA
ATOM      2  C   UNL     1      35.774 -24.089 -12.516  0.00  0.00    +0.187 C 
ATOM      3  C   UNL     1      36.941 -24.313 -11.575  0.00  0.00    +0.171 C 
ATOM      4  C   UNL     1      36.390 -23.151 -13.543  0.00  0.00    +0.225 C 
ATOM      5  C   UNL     1      38.127 -24.366 -12.534  0.00  0.00    +0.176 C 
ENDROOT
BRANCH   4   6
ATOM      6  N   UNL     1      35.741 -23.194 -14.852  0.00  0.00    -0.247 N 
ATOM      7  N   UNL     1      34.288 -23.774 -16.443  0.00  0.00    -0.247 NA
ATOM      8  N   UNL     1      37.127 -21.640 -16.105  0.00  0.00    -0.208 NA
ATOM      9  N   UNL     1      36.354 -21.420 -18.408  0.00  0.00    -0.243 NA
ATOM     10  C   UNL     1      36.106 -22.500 -15.972  0.00  0.00    +0.152 C 
ATOM     11  C   UNL     1      34.645 -23.946 -15.187  0.00  0.00    +0.223 C 
ATOM     12  C   UNL     1      35.192 -22.873 -16.945  0.00  0.00    +0.112 C 
ATOM     13  C   UNL     1      35.344 -22.298 -18.202  0.00  0.00    +0.175 C 
ATOM     14  C   UNL     1      37.171 -21.149 -17.362  0.00  0.00    +0.196 C 
ENDBRANCH   4   6
BRANCH   2  15
ATOM     15  O   UNL     1      34.653 -23.511 -11.880  0.00  0.00    -0.378 OA
ATOM     16  H   UNL     1      34.694 -23.690 -10.927  0.00  0.00    +0.211 HD
ENDBRANCH   2  15
BRANCH   3  17
ATOM     17  O   UNL     1      37.088 -23.179 -10.721  0.00  0.00    -0.379 OA
ATOM     18  H   UNL     1      36.261 -22.673 -10.708  0.00  0.00    +0.211 HD
ENDBRANCH   3  17
BRANCH   5  19
ATOM     19  C   UNL     1      38.426 -25.773 -13.032  0.00  0.00    +0.186 C 
BRANCH  19  20
ATOM     20  O   UNL     1      38.827 -25.697 -14.388  0.00  0.00    -0.271 OA
BRANCH  20  21
ATOM     21  P   UNL     1      40.409 -25.589 -14.720  0.00  0.00    +0.473 P 
ATOM     22  O   UNL     1      41.047 -24.284 -14.347  0.00  0.00    -0.227 OA
BRANCH  21  23
ATOM     23  O   UNL     1      40.499 -25.980 -16.287  0.00  0.00    -0.303 OA
ATOM     24  H   UNL     1      39.987 -26.788 -16.449  0.00  0.00    +0.222 HD
ENDBRANCH  21  23
BRANCH  21  25
ATOM     25  O   UNL     1      41.023 -26.887 -13.977  0.00  0.00    -0.303 OA
ATOM     26  H   UNL     1      40.761 -27.689 -14.456  0.00  0.00    +0.222 HD
ENDBRANCH  21  25
ENDBRANCH  20  21
ENDBRANCH  19  20
ENDBRANCH   5  19
TORSDOF 8
ENDMDL
MODEL 5
REMARK VINA RESULT:      -8.6      3.142      5.108
REMARK  Name = 444450
REMARK  8 active torsions:
REMARK  status: ('A' for Active; 'I' for Inactive)
REMARK    1  A    between atoms: C_2  and  O_15
REMARK    2  A    between atoms: C_3  and  O_17
REMARK    3  A    between atoms: C_4  and  N_6
REMARK    4  A    between atoms: C_5  and  C_19
REMARK    5  A    between atoms: C_19  and  O_20
REMARK    6  A    between atoms: O_20  and  P_21
REMARK    7  A    between atoms: P_21  and  O_23
REMARK    8  A    between atoms: P_21  and  O_25
REMARK                            x       y       z     vdW  Elec       q    Type
REMARK                         _______ _______ _______ _____ _____    ______ ____
ROOT
ATOM      1  O   UNL     1      35.495 -24.186 -16.217  0.00  0.00    -0.333 OA
ATOM      2  C   UNL     1      36.451 -22.026 -16.056  0.00  0.00    +0.187 C 
ATOM      3  C   UNL     1      37.125 -22.917 -15.033  0.00  0.00    +0.171 C 
ATOM      4  C   UNL     1      35.874 -23.052 -17.020  0.00  0.00    +0.225 C 
ATOM      5  C   UNL     1      36.152 -24.089 -14.932  0.00  0.00    +0.176 C 
ENDROOT
BRANCH   4   6
ATOM      6  N   UNL     1      34.719 -22.575 -17.776  0.00  0.00    -0.247 N 
ATOM      7  N   UNL     1      32.592 -22.336 -18.407  0.00  0.00    -0.247 NA
ATOM      8  N   UNL     1      35.793 -21.087 -19.369  0.00  0.00    -0.208 NA
ATOM      9  N   UNL     1      34.160 -20.055 -20.860  0.00  0.00    -0.243 NA
ATOM     10  C   UNL     1      34.729 -21.694 -18.821  0.00  0.00    +0.152 C 
ATOM     11  C   UNL     1      33.412 -22.932 -17.566  0.00  0.00    +0.223 C 
ATOM     12  C   UNL     1      33.401 -21.559 -19.197  0.00  0.00    +0.112 C 
ATOM     13  C   UNL     1      33.133 -20.702 -20.259  0.00  0.00    +0.175 C 
ATOM     14  C   UNL     1      35.408 -20.285 -20.384  0.00  0.00    +0.196 C 
ENDBRANCH   4   6
BRANCH   2  15
ATOM     15  O   UNL     1      37.349 -21.145 -16.700  0.00  0.00    -0.378 OA
ATOM     16  H   UNL     1      36.851 -20.528 -17.259  0.00  0.00    +0.211 HD
ENDBRANCH   2  15
BRANCH   3  17
ATOM     17  O   UNL     1      38.365 -23.391 -15.557  0.00  0.00    -0.379 OA
ATOM     18  H   UNL     1      38.623 -22.848 -16.319  0.00  0.00    +0.211 HD
ENDBRANCH   3  17
BRANCH   5  19
ATOM     19  C   UNL     1      35.088 -23.887 -13.863  0.00  0.00    +0.186 C 
BRANCH  19  20
ATOM     20  O   UNL     1      35.723 -23.482 -12.663  0.00  0.00    -0.271 OA
BRANCH  20  21
ATOM     21  P   UNL     1      36.161 -24.622 -11.599  0.00  0.00    +0.473 P 
ATOM     22  O   UNL     1      35.222 -24.805 -10.444  0.00  0.00    -0.227 OA
BRANCH  21  23
ATOM     23  O   UNL     1      37.675 -24.216 -11.202  0.00  0.00    -0.303 OA
ATOM     24  H   UNL     1      37.656 -23.507 -10.539  0.00  0.00    +0.222 HD
ENDBRANCH  21  23
BRANCH  21  25
ATOM     25  O   UNL     1      36.359 -25.930 -12.531  0.00  0.00    -0.303 OA
ATOM     26  H   UNL     1      35.491 -26.284 -12.779  0.00  0.00    +0.222 HD
ENDBRANCH  21  25
ENDBRANCH  20  21
ENDBRANCH  19  20
ENDBRANCH   5  19
TORSDOF 8
ENDMDL
MODEL 6
REMARK VINA RESULT:      -8.4      2.299      3.667
REMARK  Name = 444450
REMARK  8 active torsions:
REMARK  status: ('A' for Active; 'I' for Inactive)
REMARK    1  A    between atoms: C_2  and  O_15
REMARK    2  A    between atoms: C_3  and  O_17
REMARK    3  A    between atoms: C_4  and  N_6
REMARK    4  A    between atoms: C_5  and  C_19
REMARK    5  A    between atoms: C_19  and  O_20
REMARK    6  A    between atoms: O_20  and  P_21
REMARK    7  A    between atoms: P_21  and  O_23
REMARK    8  A    between atoms: P_21  and  O_25
REMARK                            x       y       z     vdW  Elec       q    Type
REMARK                         _______ _______ _______ _____ _____    ______ ____
ROOT
ATOM      1  O   UNL     1      35.744 -24.976 -15.756  0.00  0.00    -0.333 OA
ATOM      2  C   UNL     1      36.273 -22.704 -15.352  0.00  0.00    +0.187 C 
ATOM      3  C   UNL     1      37.409 -23.555 -14.820  0.00  0.00    +0.171 C 
ATOM      4  C   UNL     1      35.608 -23.662 -16.329  0.00  0.00    +0.225 C 
ATOM      5  C   UNL     1      36.766 -24.937 -14.734  0.00  0.00    +0.176 C 
ENDROOT
BRANCH   4   6
ATOM      6  N   UNL     1      34.197 -23.375 -16.576  0.00  0.00    -0.247 N 
ATOM      7  N   UNL     1      32.347 -22.802 -17.685  0.00  0.00    -0.247 NA
ATOM      8  N   UNL     1      33.251 -23.779 -14.375  0.00  0.00    -0.208 NA
ATOM      9  N   UNL     1      30.840 -23.401 -14.362  0.00  0.00    -0.243 NA
ATOM     10  C   UNL     1      33.175 -23.440 -15.671  0.00  0.00    +0.152 C 
ATOM     11  C   UNL     1      33.649 -22.986 -17.771  0.00  0.00    +0.223 C 
ATOM     12  C   UNL     1      32.038 -23.083 -16.379  0.00  0.00    +0.112 C 
ATOM     13  C   UNL     1      30.839 -23.070 -15.675  0.00  0.00    +0.175 C 
ATOM     14  C   UNL     1      32.030 -23.730 -13.802  0.00  0.00    +0.196 C 
ENDBRANCH   4   6
BRANCH   2  15
ATOM     15  O   UNL     1      36.717 -21.524 -15.990  0.00  0.00    -0.378 OA
ATOM     16  H   UNL     1      37.184 -20.966 -15.349  0.00  0.00    +0.211 HD
ENDBRANCH   2  15
BRANCH   3  17
ATOM     17  O   UNL     1      38.463 -23.596 -15.780  0.00  0.00    -0.379 OA
ATOM     18  H   UNL     1      39.285 -23.283 -15.372  0.00  0.00    +0.211 HD
ENDBRANCH   3  17
BRANCH   5  19
ATOM     19  C   UNL     1      36.109 -25.203 -13.387  0.00  0.00    +0.186 C 
BRANCH  19  20
ATOM     20  O   UNL     1      36.940 -24.679 -12.366  0.00  0.00    -0.271 OA
BRANCH  20  21
ATOM     21  P   UNL     1      36.282 -23.687 -11.268  0.00  0.00    +0.473 P 
ATOM     22  O   UNL     1      36.213 -24.241  -9.875  0.00  0.00    -0.227 OA
BRANCH  21  23
ATOM     23  O   UNL     1      34.860 -23.281 -11.922  0.00  0.00    -0.303 OA
ATOM     24  H   UNL     1      34.919 -22.387 -12.295  0.00  0.00    +0.222 HD
ENDBRANCH  21  23
BRANCH  21  25
ATOM     25  O   UNL     1      37.162 -22.339 -11.424  0.00  0.00    -0.303 OA
ATOM     26  H   UNL     1      36.893 -21.869 -12.230  0.00  0.00    +0.222 HD
ENDBRANCH  21  25
ENDBRANCH  20  21
ENDBRANCH  19  20
ENDBRANCH   5  19
TORSDOF 8
ENDMDL
MODEL 7
REMARK VINA RESULT:      -8.4      9.146     11.397
REMARK  Name = 444450
REMARK  8 active torsions:
REMARK  status: ('A' for Active; 'I' for Inactive)
REMARK    1  A    between atoms: C_2  and  O_15
REMARK    2  A    between atoms: C_3  and  O_17
REMARK    3  A    between atoms: C_4  and  N_6
REMARK    4  A    between atoms: C_5  and  C_19
REMARK    5  A    between atoms: C_19  and  O_20
REMARK    6  A    between atoms: O_20  and  P_21
REMARK    7  A    between atoms: P_21  and  O_23
REMARK    8  A    between atoms: P_21  and  O_25
REMARK                            x       y       z     vdW  Elec       q    Type
REMARK                         _______ _______ _______ _____ _____    ______ ____
ROOT
ATOM      1  O   UNL     1      35.024 -17.497 -20.636  0.00  0.00    -0.333 OA
ATOM      2  C   UNL     1      34.282 -18.245 -22.756  0.00  0.00    +0.187 C 
ATOM      3  C   UNL     1      34.750 -16.810 -22.899  0.00  0.00    +0.171 C 
ATOM      4  C   UNL     1      34.985 -18.666 -21.475  0.00  0.00    +0.225 C 
ATOM      5  C   UNL     1      34.769 -16.329 -21.451  0.00  0.00    +0.176 C 
ENDROOT
BRANCH   4   6
ATOM      6  N   UNL     1      34.323 -19.759 -20.765  0.00  0.00    -0.247 N 
ATOM      7  N   UNL     1      32.696 -21.137 -20.106  0.00  0.00    -0.247 NA
ATOM      8  N   UNL     1      36.176 -20.662 -19.478  0.00  0.00    -0.208 NA
ATOM      9  N   UNL     1      35.470 -22.561 -18.119  0.00  0.00    -0.243 NA
ATOM     10  C   UNL     1      34.896 -20.629 -19.880  0.00  0.00    +0.152 C 
ATOM     11  C   UNL     1      33.000 -20.106 -20.866  0.00  0.00    +0.223 C 
ATOM     12  C   UNL     1      33.871 -21.474 -19.484  0.00  0.00    +0.112 C 
ATOM     13  C   UNL     1      34.196 -22.468 -18.568  0.00  0.00    +0.175 C 
ATOM     14  C   UNL     1      36.368 -21.665 -18.595  0.00  0.00    +0.196 C 
ENDBRANCH   4   6
BRANCH   2  15
ATOM     15  O   UNL     1      34.650 -19.059 -23.851  0.00  0.00    -0.378 OA
ATOM     16  H   UNL     1      35.415 -19.602 -23.607  0.00  0.00    +0.211 HD
ENDBRANCH   2  15
BRANCH   3  17
ATOM     17  O   UNL     1      36.083 -16.793 -23.408  0.00  0.00    -0.379 OA
ATOM     18  H   UNL     1      36.060 -16.821 -24.377  0.00  0.00    +0.211 HD
ENDBRANCH   3  17
BRANCH   5  19
ATOM     19  C   UNL     1      33.446 -15.717 -21.011  0.00  0.00    +0.186 C 
BRANCH  19  20
ATOM     20  O   UNL     1      32.784 -15.204 -22.153  0.00  0.00    -0.271 OA
BRANCH  20  21
ATOM     21  P   UNL     1      32.724 -13.598 -22.354  0.00  0.00    +0.473 P 
ATOM     22  O   UNL     1      32.288 -12.824 -21.144  0.00  0.00    -0.227 OA
BRANCH  21  23
ATOM     23  O   UNL     1      31.798 -13.409 -23.666  0.00  0.00    -0.303 OA
ATOM     24  H   UNL     1      31.022 -13.988 -23.600  0.00  0.00    +0.222 HD
ENDBRANCH  21  23
BRANCH  21  25
ATOM     25  O   UNL     1      34.208 -13.244 -22.891  0.00  0.00    -0.303 OA
ATOM     26  H   UNL     1      34.410 -12.315 -22.695  0.00  0.00    +0.222 HD
ENDBRANCH  21  25
ENDBRANCH  20  21
ENDBRANCH  19  20
ENDBRANCH   5  19
TORSDOF 8
ENDMDL
MODEL 8
REMARK VINA RESULT:      -8.3      4.075      6.404
REMARK  Name = 444450
REMARK  8 active torsions:
REMARK  status: ('A' for Active; 'I' for Inactive)
REMARK    1  A    between atoms: C_2  and  O_15
REMARK    2  A    between atoms: C_3  and  O_17
REMARK    3  A    between atoms: C_4  and  N_6
REMARK    4  A    between atoms: C_5  and  C_19
REMARK    5  A    between atoms: C_19  and  O_20
REMARK    6  A    between atoms: O_20  and  P_21
REMARK    7  A    between atoms: P_21  and  O_23
REMARK    8  A    between atoms: P_21  and  O_25
REMARK                            x       y       z     vdW  Elec       q    Type
REMARK                         _______ _______ _______ _____ _____    ______ ____
ROOT
ATOM      1  O   UNL     1      35.417 -23.753 -16.745  0.00  0.00    -0.333 OA
ATOM      2  C   UNL     1      36.419 -21.621 -16.494  0.00  0.00    +0.187 C 
ATOM      3  C   UNL     1      36.982 -22.537 -15.425  0.00  0.00    +0.171 C 
ATOM      4  C   UNL     1      35.893 -22.627 -17.507  0.00  0.00    +0.225 C 
ATOM      5  C   UNL     1      35.971 -23.680 -15.411  0.00  0.00    +0.176 C 
ENDROOT
BRANCH   4   6
ATOM      6  N   UNL     1      34.816 -22.113 -18.351  0.00  0.00    -0.247 N 
ATOM      7  N   UNL     1      32.761 -21.836 -19.174  0.00  0.00    -0.247 NA
ATOM      8  N   UNL     1      36.041 -20.566 -19.770  0.00  0.00    -0.208 NA
ATOM      9  N   UNL     1      34.562 -19.465 -21.367  0.00  0.00    -0.243 NA
ATOM     10  C   UNL     1      34.929 -21.190 -19.353  0.00  0.00    +0.152 C 
ATOM     11  C   UNL     1      33.495 -22.471 -18.284  0.00  0.00    +0.223 C 
ATOM     12  C   UNL     1      33.644 -21.032 -19.849  0.00  0.00    +0.112 C 
ATOM     13  C   UNL     1      33.481 -20.131 -20.896  0.00  0.00    +0.175 C 
ATOM     14  C   UNL     1      35.758 -19.721 -20.784  0.00  0.00    +0.196 C 
ENDBRANCH   4   6
BRANCH   2  15
ATOM     15  O   UNL     1      37.391 -20.765 -17.057  0.00  0.00    -0.378 OA
ATOM     16  H   UNL     1      38.275 -21.131 -16.898  0.00  0.00    +0.211 HD
ENDBRANCH   2  15
BRANCH   3  17
ATOM     17  O   UNL     1      38.246 -23.045 -15.851  0.00  0.00    -0.379 OA
ATOM     18  H   UNL     1      38.956 -22.491 -15.490  0.00  0.00    +0.211 HD
ENDBRANCH   3  17
BRANCH   5  19
ATOM     19  C   UNL     1      34.830 -23.451 -14.430  0.00  0.00    +0.186 C 
BRANCH  19  20
ATOM     20  O   UNL     1      33.624 -23.895 -15.027  0.00  0.00    -0.271 OA
BRANCH  20  21
ATOM     21  P   UNL     1      32.281 -23.926 -14.123  0.00  0.00    +0.473 P 
ATOM     22  O   UNL     1      31.062 -23.350 -14.779  0.00  0.00    -0.227 OA
BRANCH  21  23
ATOM     23  O   UNL     1      32.729 -23.208 -12.745  0.00  0.00    -0.303 OA
ATOM     24  H   UNL     1      32.202 -23.560 -12.010  0.00  0.00    +0.222 HD
ENDBRANCH  21  23
BRANCH  21  25
ATOM     25  O   UNL     1      32.161 -25.485 -13.707  0.00  0.00    -0.303 OA
ATOM     26  H   UNL     1      32.451 -25.598 -12.788  0.00  0.00    +0.222 HD
ENDBRANCH  21  25
ENDBRANCH  20  21
ENDBRANCH  19  20
ENDBRANCH   5  19
TORSDOF 8
ENDMDL
MODEL 9
REMARK VINA RESULT:      -7.8      2.265      3.573
REMARK  Name = 444450
REMARK  8 active torsions:
REMARK  status: ('A' for Active; 'I' for Inactive)
REMARK    1  A    between atoms: C_2  and  O_15
REMARK    2  A    between atoms: C_3  and  O_17
REMARK    3  A    between atoms: C_4  and  N_6
REMARK    4  A    between atoms: C_5  and  C_19
REMARK    5  A    between atoms: C_19  and  O_20
REMARK    6  A    between atoms: O_20  and  P_21
REMARK    7  A    between atoms: P_21  and  O_23
REMARK    8  A    between atoms: P_21  and  O_25
REMARK                            x       y       z     vdW  Elec       q    Type
REMARK                         _______ _______ _______ _____ _____    ______ ____
ROOT
ATOM      1  O   UNL     1      37.516 -23.248 -14.173  0.00  0.00    -0.333 OA
ATOM      2  C   UNL     1      35.859 -23.958 -12.639  0.00  0.00    +0.187 C 
ATOM      3  C   UNL     1      37.212 -24.101 -11.971  0.00  0.00    +0.171 C 
ATOM      4  C   UNL     1      36.170 -22.964 -13.747  0.00  0.00    +0.225 C 
ATOM      5  C   UNL     1      38.168 -24.049 -13.160  0.00  0.00    +0.176 C 
ENDROOT
BRANCH   4   6
ATOM      6  N   UNL     1      35.264 -23.043 -14.890  0.00  0.00    -0.247 N 
ATOM      7  N   UNL     1      33.409 -23.465 -16.057  0.00  0.00    -0.247 NA
ATOM      8  N   UNL     1      36.665 -22.132 -16.654  0.00  0.00    -0.208 NA
ATOM      9  N   UNL     1      35.486 -22.088 -18.790  0.00  0.00    -0.243 NA
ATOM     10  C   UNL     1      35.528 -22.659 -16.175  0.00  0.00    +0.152 C 
ATOM     11  C   UNL     1      33.979 -23.521 -14.871  0.00  0.00    +0.223 C 
ATOM     12  C   UNL     1      34.366 -22.928 -16.881  0.00  0.00    +0.112 C 
ATOM     13  C   UNL     1      34.371 -22.623 -18.238  0.00  0.00    +0.175 C 
ATOM     14  C   UNL     1      36.549 -21.880 -17.975  0.00  0.00    +0.196 C 
ENDBRANCH   4   6
BRANCH   2  15
ATOM     15  O   UNL     1      34.858 -23.477 -11.765  0.00  0.00    -0.378 OA
ATOM     16  H   UNL     1      34.782 -22.515 -11.859  0.00  0.00    +0.211 HD
ENDBRANCH   2  15
BRANCH   3  17
ATOM     17  O   UNL     1      37.453 -22.968 -11.137  0.00  0.00    -0.379 OA
ATOM     18  H   UNL     1      36.612 -22.529 -10.936  0.00  0.00    +0.211 HD
ENDBRANCH   3  17
BRANCH   5  19
ATOM     19  C   UNL     1      38.458 -25.422 -13.748  0.00  0.00    +0.186 C 
BRANCH  19  20
ATOM     20  O   UNL     1      37.774 -25.539 -14.983  0.00  0.00    -0.271 OA
BRANCH  20  21
ATOM     21  P   UNL     1      36.750 -26.778 -15.183  0.00  0.00    +0.473 P 
ATOM     22  O   UNL     1      36.959 -27.577 -16.436  0.00  0.00    -0.227 OA
BRANCH  21  23
ATOM     23  O   UNL     1      35.290 -26.097 -15.033  0.00  0.00    -0.303 OA
ATOM     24  H   UNL     1      35.277 -25.532 -14.244  0.00  0.00    +0.222 HD
ENDBRANCH  21  23
BRANCH  21  25
ATOM     25  O   UNL     1      36.915 -27.610 -13.807  0.00  0.00    -0.303 OA
ATOM     26  H   UNL     1      36.508 -27.115 -13.078  0.00  0.00    +0.222 HD
ENDBRANCH  21  25
ENDBRANCH  20  21
ENDBRANCH  19  20
ENDBRANCH   5  19
TORSDOF 8
ENDMDL
