MODEL 1
REMARK VINA RESULT:      -4.8      0.000      0.000
REMARK  Name = 449593
REMARK  6 active torsions:
REMARK  status: ('A' for Active; 'I' for Inactive)
REMARK    1  A    between atoms: C_1  and  C_2
REMARK    2  A    between atoms: C_1  and  C_8
REMARK    3  A    between atoms: C_2  and  C_3
REMARK    4  A    between atoms: C_3  and  C_5
REMARK    5  A    between atoms: C_5  and  O_6
REMARK    6  A    between atoms: C_8  and  N_9
REMARK                            x       y       z     vdW  Elec       q    Type
REMARK                         _______ _______ _______ _____ _____    ______ ____
ROOT
ATOM      1  C   UNL     1      37.231 -25.836 -13.366  0.00  0.00    -0.023 C 
ENDROOT
BRANCH   1   2
ATOM      2  C   UNL     1      38.696 -25.628 -12.979  0.00  0.00    +0.009 C 
BRANCH   2   3
ATOM      3  C   UNL     1      39.491 -25.002 -14.124  0.00  0.00    +0.109 C 
BRANCH   3   5
ATOM      4  O   UNL     1      41.229 -26.707 -14.095  0.00  0.00    -0.250 OA
ATOM      5  C   UNL     1      40.477 -25.977 -14.726  0.00  0.00    +0.314 C 
BRANCH   5   6
ATOM      6  O   UNL     1      40.433 -25.952 -16.084  0.00  0.00    -0.480 OA
ATOM      7  H   UNL     1      39.910 -25.311 -16.523  0.00  0.00    +0.295 HD
ENDBRANCH   5   6
ENDBRANCH   3   5
ENDBRANCH   2   3
ENDBRANCH   1   2
BRANCH   1   8
ATOM      8  C   UNL     1      37.073 -27.040 -14.282  0.00  0.00    -0.086 C 
BRANCH   8   9
ATOM      9  N   UNL     1      36.031 -26.745 -15.296  0.00  0.00    +0.380 N 
ATOM     10  H   UNL     1      35.675 -27.620 -15.680  0.00  0.00    -0.089 HD
ATOM     11  H   UNL     1      36.436 -26.184 -16.045  0.00  0.00    -0.089 HD
ATOM     12  H   UNL     1      35.268 -26.230 -14.858  0.00  0.00    -0.089 HD
ENDBRANCH   8   9
ENDBRANCH   1   8
TORSDOF 6
ENDMDL
MODEL 2
REMARK VINA RESULT:      -4.7     12.644     13.232
REMARK  Name = 449593
REMARK  6 active torsions:
REMARK  status: ('A' for Active; 'I' for Inactive)
REMARK    1  A    between atoms: C_1  and  C_2
REMARK    2  A    between atoms: C_1  and  C_8
REMARK    3  A    between atoms: C_2  and  C_3
REMARK    4  A    between atoms: C_3  and  C_5
REMARK    5  A    between atoms: C_5  and  O_6
REMARK    6  A    between atoms: C_8  and  N_9
REMARK                            x       y       z     vdW  Elec       q    Type
REMARK                         _______ _______ _______ _____ _____    ______ ____
ROOT
ATOM      1  C   UNL     1      34.552 -19.367 -22.155  0.00  0.00    -0.023 C 
ENDROOT
BRANCH   1   2
ATOM      2  C   UNL     1      35.427 -18.840 -23.294  0.00  0.00    +0.009 C 
BRANCH   2   3
ATOM      3  C   UNL     1      34.579 -18.374 -24.477  0.00  0.00    +0.109 C 
BRANCH   3   5
ATOM      4  O   UNL     1      34.509 -16.380 -25.871  0.00  0.00    -0.250 OA
ATOM      5  C   UNL     1      34.862 -16.935 -24.841  0.00  0.00    +0.314 C 
BRANCH   5   6
ATOM      6  O   UNL     1      35.573 -16.308 -23.866  0.00  0.00    -0.480 OA
ATOM      7  H   UNL     1      35.127 -15.877 -23.165  0.00  0.00    +0.295 HD
ENDBRANCH   5   6
ENDBRANCH   3   5
ENDBRANCH   2   3
ENDBRANCH   1   2
BRANCH   1   8
ATOM      8  C   UNL     1      34.114 -18.238 -21.235  0.00  0.00    -0.086 C 
BRANCH   8   9
ATOM      9  N   UNL     1      35.298 -17.430 -20.859  0.00  0.00    +0.380 N 
ATOM     10  H   UNL     1      35.565 -16.834 -21.642  0.00  0.00    -0.089 HD
ATOM     11  H   UNL     1      36.073 -18.050 -20.625  0.00  0.00    -0.089 HD
ATOM     12  H   UNL     1      35.071 -16.850 -20.052  0.00  0.00    -0.089 HD
ENDBRANCH   8   9
ENDBRANCH   1   8
TORSDOF 6
ENDMDL
MODEL 3
REMARK VINA RESULT:      -4.6      9.595     10.243
REMARK  Name = 449593
REMARK  6 active torsions:
REMARK  status: ('A' for Active; 'I' for Inactive)
REMARK    1  A    between atoms: C_1  and  C_2
REMARK    2  A    between atoms: C_1  and  C_8
REMARK    3  A    between atoms: C_2  and  C_3
REMARK    4  A    between atoms: C_3  and  C_5
REMARK    5  A    between atoms: C_5  and  O_6
REMARK    6  A    between atoms: C_8  and  N_9
REMARK                            x       y       z     vdW  Elec       q    Type
REMARK                         _______ _______ _______ _____ _____    ______ ____
ROOT
ATOM      1  C   UNL     1      34.617 -18.391 -21.171  0.00  0.00    -0.023 C 
ENDROOT
BRANCH   1   2
ATOM      2  C   UNL     1      33.923 -19.723 -21.460  0.00  0.00    +0.009 C 
BRANCH   2   3
ATOM      3  C   UNL     1      32.957 -20.102 -20.339  0.00  0.00    +0.109 C 
BRANCH   3   5
ATOM      4  O   UNL     1      32.702 -22.131 -19.018  0.00  0.00    -0.250 OA
ATOM      5  C   UNL     1      33.427 -21.320 -19.577  0.00  0.00    +0.314 C 
BRANCH   5   6
ATOM      6  O   UNL     1      34.783 -21.416 -19.584  0.00  0.00    -0.480 OA
ATOM      7  H   UNL     1      35.229 -21.779 -18.845  0.00  0.00    +0.295 HD
ENDBRANCH   5   6
ENDBRANCH   3   5
ENDBRANCH   2   3
ENDBRANCH   1   2
BRANCH   1   8
ATOM      8  C   UNL     1      36.121 -18.503 -21.372  0.00  0.00    -0.086 C 
BRANCH   8   9
ATOM      9  N   UNL     1      36.682 -19.415 -20.346  0.00  0.00    +0.380 N 
ATOM     10  H   UNL     1      36.046 -19.464 -19.551  0.00  0.00    -0.089 HD
ATOM     11  H   UNL     1      37.587 -19.061 -20.037  0.00  0.00    -0.089 HD
ATOM     12  H   UNL     1      36.799 -20.345 -20.747  0.00  0.00    -0.089 HD
ENDBRANCH   8   9
ENDBRANCH   1   8
TORSDOF 6
ENDMDL
MODEL 4
REMARK VINA RESULT:      -4.5      9.011      9.551
REMARK  Name = 449593
REMARK  6 active torsions:
REMARK  status: ('A' for Active; 'I' for Inactive)
REMARK    1  A    between atoms: C_1  and  C_2
REMARK    2  A    between atoms: C_1  and  C_8
REMARK    3  A    between atoms: C_2  and  C_3
REMARK    4  A    between atoms: C_3  and  C_5
REMARK    5  A    between atoms: C_5  and  O_6
REMARK    6  A    between atoms: C_8  and  N_9
REMARK                            x       y       z     vdW  Elec       q    Type
REMARK                         _______ _______ _______ _____ _____    ______ ____
ROOT
ATOM      1  C   UNL     1      33.733 -19.585 -21.088  0.00  0.00    -0.023 C 
ENDROOT
BRANCH   1   2
ATOM      2  C   UNL     1      33.119 -20.642 -20.168  0.00  0.00    +0.009 C 
BRANCH   2   3
ATOM      3  C   UNL     1      34.195 -21.535 -19.551  0.00  0.00    +0.109 C 
BRANCH   3   5
ATOM      4  O   UNL     1      34.230 -23.402 -17.989  0.00  0.00    -0.250 OA
ATOM      5  C   UNL     1      33.615 -22.505 -18.548  0.00  0.00    +0.314 C 
BRANCH   5   6
ATOM      6  O   UNL     1      32.295 -22.262 -18.329  0.00  0.00    -0.480 OA
ATOM      7  H   UNL     1      31.654 -22.588 -18.927  0.00  0.00    +0.295 HD
ENDBRANCH   5   6
ENDBRANCH   3   5
ENDBRANCH   2   3
ENDBRANCH   1   2
BRANCH   1   8
ATOM      8  C   UNL     1      35.247 -19.547 -20.944  0.00  0.00    -0.086 C 
BRANCH   8   9
ATOM      9  N   UNL     1      35.683 -18.142 -20.765  0.00  0.00    +0.380 N 
ATOM     10  H   UNL     1      35.820 -17.952 -19.772  0.00  0.00    -0.089 HD
ATOM     11  H   UNL     1      34.970 -17.515 -21.135  0.00  0.00    -0.089 HD
ATOM     12  H   UNL     1      36.560 -17.993 -21.264  0.00  0.00    -0.089 HD
ENDBRANCH   8   9
ENDBRANCH   1   8
TORSDOF 6
ENDMDL
MODEL 5
REMARK VINA RESULT:      -4.5     11.650     12.187
REMARK  Name = 449593
REMARK  6 active torsions:
REMARK  status: ('A' for Active; 'I' for Inactive)
REMARK    1  A    between atoms: C_1  and  C_2
REMARK    2  A    between atoms: C_1  and  C_8
REMARK    3  A    between atoms: C_2  and  C_3
REMARK    4  A    between atoms: C_3  and  C_5
REMARK    5  A    between atoms: C_5  and  O_6
REMARK    6  A    between atoms: C_8  and  N_9
REMARK                            x       y       z     vdW  Elec       q    Type
REMARK                         _______ _______ _______ _____ _____    ______ ____
ROOT
ATOM      1  C   UNL     1      34.326 -19.763 -21.102  0.00  0.00    -0.023 C 
ENDROOT
BRANCH   1   2
ATOM      2  C   UNL     1      34.534 -18.562 -22.026  0.00  0.00    +0.009 C 
BRANCH   2   3
ATOM      3  C   UNL     1      34.809 -19.005 -23.462  0.00  0.00    +0.109 C 
BRANCH   3   5
ATOM      4  O   UNL     1      34.427 -17.781 -25.532  0.00  0.00    -0.250 OA
ATOM      5  C   UNL     1      34.904 -17.829 -24.407  0.00  0.00    +0.314 C 
BRANCH   5   6
ATOM      6  O   UNL     1      35.598 -16.801 -23.850  0.00  0.00    -0.480 OA
ATOM      7  H   UNL     1      36.357 -16.461 -24.281  0.00  0.00    +0.295 HD
ENDBRANCH   5   6
ENDBRANCH   3   5
ENDBRANCH   2   3
ENDBRANCH   1   2
BRANCH   1   8
ATOM      8  C   UNL     1      32.866 -19.895 -20.696  0.00  0.00    -0.086 C 
BRANCH   8   9
ATOM      9  N   UNL     1      32.758 -20.862 -19.577  0.00  0.00    +0.380 N 
ATOM     10  H   UNL     1      33.008 -20.399 -18.703  0.00  0.00    -0.089 HD
ATOM     11  H   UNL     1      33.391 -21.644 -19.741  0.00  0.00    -0.089 HD
ATOM     12  H   UNL     1      31.800 -21.206 -19.517  0.00  0.00    -0.089 HD
ENDBRANCH   8   9
ENDBRANCH   1   8
TORSDOF 6
ENDMDL
MODEL 6
REMARK VINA RESULT:      -4.5      9.965     10.437
REMARK  Name = 449593
REMARK  6 active torsions:
REMARK  status: ('A' for Active; 'I' for Inactive)
REMARK    1  A    between atoms: C_1  and  C_2
REMARK    2  A    between atoms: C_1  and  C_8
REMARK    3  A    between atoms: C_2  and  C_3
REMARK    4  A    between atoms: C_3  and  C_5
REMARK    5  A    between atoms: C_5  and  O_6
REMARK    6  A    between atoms: C_8  and  N_9
REMARK                            x       y       z     vdW  Elec       q    Type
REMARK                         _______ _______ _______ _____ _____    ______ ____
ROOT
ATOM      1  C   UNL     1      32.953 -20.270 -20.223  0.00  0.00    -0.023 C 
ENDROOT
BRANCH   1   2
ATOM      2  C   UNL     1      33.703 -19.628 -21.391  0.00  0.00    +0.009 C 
BRANCH   2   3
ATOM      3  C   UNL     1      35.157 -19.336 -21.026  0.00  0.00    +0.109 C 
BRANCH   3   5
ATOM      4  O   UNL     1      35.344 -16.954 -20.559  0.00  0.00    -0.250 OA
ATOM      5  C   UNL     1      35.533 -17.900 -21.310  0.00  0.00    +0.314 C 
BRANCH   5   6
ATOM      6  O   UNL     1      36.122 -17.774 -22.529  0.00  0.00    -0.480 OA
ATOM      7  H   UNL     1      35.907 -18.372 -23.217  0.00  0.00    +0.295 HD
ENDBRANCH   5   6
ENDBRANCH   3   5
ENDBRANCH   2   3
ENDBRANCH   1   2
BRANCH   1   8
ATOM      8  C   UNL     1      33.778 -21.378 -19.586  0.00  0.00    -0.086 C 
BRANCH   8   9
ATOM      9  N   UNL     1      32.881 -22.266 -18.807  0.00  0.00    +0.380 N 
ATOM     10  H   UNL     1      32.621 -21.806 -17.935  0.00  0.00    -0.089 HD
ATOM     11  H   UNL     1      33.364 -23.139 -18.599  0.00  0.00    -0.089 HD
ATOM     12  H   UNL     1      32.042 -22.462 -19.352  0.00  0.00    -0.089 HD
ENDBRANCH   8   9
ENDBRANCH   1   8
TORSDOF 6
ENDMDL
MODEL 7
REMARK VINA RESULT:      -4.5      2.077      2.227
REMARK  Name = 449593
REMARK  6 active torsions:
REMARK  status: ('A' for Active; 'I' for Inactive)
REMARK    1  A    between atoms: C_1  and  C_2
REMARK    2  A    between atoms: C_1  and  C_8
REMARK    3  A    between atoms: C_2  and  C_3
REMARK    4  A    between atoms: C_3  and  C_5
REMARK    5  A    between atoms: C_5  and  O_6
REMARK    6  A    between atoms: C_8  and  N_9
REMARK                            x       y       z     vdW  Elec       q    Type
REMARK                         _______ _______ _______ _____ _____    ______ ____
ROOT
ATOM      1  C   UNL     1      37.311 -23.907 -13.970  0.00  0.00    -0.023 C 
ENDROOT
BRANCH   1   2
ATOM      2  C   UNL     1      37.849 -25.338 -14.005  0.00  0.00    +0.009 C 
BRANCH   2   3
ATOM      3  C   UNL     1      39.282 -25.406 -13.481  0.00  0.00    +0.109 C 
BRANCH   3   5
ATOM      4  O   UNL     1      41.213 -26.659 -14.277  0.00  0.00    -0.250 OA
ATOM      5  C   UNL     1      40.234 -25.965 -14.514  0.00  0.00    +0.314 C 
BRANCH   5   6
ATOM      6  O   UNL     1      39.871 -25.599 -15.772  0.00  0.00    -0.480 OA
ATOM      7  H   UNL     1      39.512 -24.748 -15.927  0.00  0.00    +0.295 HD
ENDBRANCH   5   6
ENDBRANCH   3   5
ENDBRANCH   2   3
ENDBRANCH   1   2
BRANCH   1   8
ATOM      8  C   UNL     1      36.897 -23.443 -15.358  0.00  0.00    -0.086 C 
BRANCH   8   9
ATOM      9  N   UNL     1      38.112 -23.105 -16.140  0.00  0.00    +0.380 N 
ATOM     10  H   UNL     1      37.847 -22.565 -16.962  0.00  0.00    -0.089 HD
ATOM     11  H   UNL     1      38.577 -23.964 -16.433  0.00  0.00    -0.089 HD
ATOM     12  H   UNL     1      38.745 -22.556 -15.560  0.00  0.00    -0.089 HD
ENDBRANCH   8   9
ENDBRANCH   1   8
TORSDOF 6
ENDMDL
MODEL 8
REMARK VINA RESULT:      -4.5      9.745     10.685
REMARK  Name = 449593
REMARK  6 active torsions:
REMARK  status: ('A' for Active; 'I' for Inactive)
REMARK    1  A    between atoms: C_1  and  C_2
REMARK    2  A    between atoms: C_1  and  C_8
REMARK    3  A    between atoms: C_2  and  C_3
REMARK    4  A    between atoms: C_3  and  C_5
REMARK    5  A    between atoms: C_5  and  O_6
REMARK    6  A    between atoms: C_8  and  N_9
REMARK                            x       y       z     vdW  Elec       q    Type
REMARK                         _______ _______ _______ _____ _____    ______ ____
ROOT
ATOM      1  C   UNL     1      30.847 -23.895 -15.159  0.00  0.00    -0.023 C 
ENDROOT
BRANCH   1   2
ATOM      2  C   UNL     1      29.647 -22.947 -15.157  0.00  0.00    +0.009 C 
BRANCH   2   3
ATOM      3  C   UNL     1      29.245 -22.554 -16.577  0.00  0.00    +0.109 C 
BRANCH   3   5
ATOM      4  O   UNL     1      27.883 -24.429 -17.322  0.00  0.00    -0.250 OA
ATOM      5  C   UNL     1      27.978 -23.248 -17.019  0.00  0.00    +0.314 C 
BRANCH   5   6
ATOM      6  O   UNL     1      26.924 -22.389 -17.042  0.00  0.00    -0.480 OA
ATOM      7  H   UNL     1      26.562 -22.115 -17.860  0.00  0.00    +0.295 HD
ENDBRANCH   5   6
ENDBRANCH   3   5
ENDBRANCH   2   3
ENDBRANCH   1   2
BRANCH   1   8
ATOM      8  C   UNL     1      30.560 -25.144 -14.341  0.00  0.00    -0.086 C 
BRANCH   8   9
ATOM      9  N   UNL     1      29.121 -25.482 -14.458  0.00  0.00    +0.380 N 
ATOM     10  H   UNL     1      28.794 -25.885 -13.580  0.00  0.00    -0.089 HD
ATOM     11  H   UNL     1      28.991 -26.157 -15.211  0.00  0.00    -0.089 HD
ATOM     12  H   UNL     1      28.590 -24.636 -14.663  0.00  0.00    -0.089 HD
ENDBRANCH   8   9
ENDBRANCH   1   8
TORSDOF 6
ENDMDL
MODEL 9
REMARK VINA RESULT:      -4.5      9.410     10.434
REMARK  Name = 449593
REMARK  6 active torsions:
REMARK  status: ('A' for Active; 'I' for Inactive)
REMARK    1  A    between atoms: C_1  and  C_2
REMARK    2  A    between atoms: C_1  and  C_8
REMARK    3  A    between atoms: C_2  and  C_3
REMARK    4  A    between atoms: C_3  and  C_5
REMARK    5  A    between atoms: C_5  and  O_6
REMARK    6  A    between atoms: C_8  and  N_9
REMARK                            x       y       z     vdW  Elec       q    Type
REMARK                         _______ _______ _______ _____ _____    ______ ____
ROOT
ATOM      1  C   UNL     1      31.240 -23.300 -16.020  0.00  0.00    -0.023 C 
ENDROOT
BRANCH   1   2
ATOM      2  C   UNL     1      30.022 -22.915 -15.178  0.00  0.00    +0.009 C 
BRANCH   2   3
ATOM      3  C   UNL     1      28.771 -23.662 -15.636  0.00  0.00    +0.109 C 
BRANCH   3   5
ATOM      4  O   UNL     1      27.955 -21.750 -16.903  0.00  0.00    -0.250 OA
ATOM      5  C   UNL     1      28.083 -22.960 -16.784  0.00  0.00    +0.314 C 
BRANCH   5   6
ATOM      6  O   UNL     1      27.609 -23.850 -17.696  0.00  0.00    -0.480 OA
ATOM      7  H   UNL     1      27.057 -23.557 -18.393  0.00  0.00    +0.295 HD
ENDBRANCH   5   6
ENDBRANCH   3   5
ENDBRANCH   2   3
ENDBRANCH   1   2
BRANCH   1   8
ATOM      8  C   UNL     1      32.507 -23.307 -15.178  0.00  0.00    -0.086 C 
BRANCH   8   9
ATOM      9  N   UNL     1      32.194 -22.789 -13.824  0.00  0.00    +0.380 N 
ATOM     10  H   UNL     1      33.044 -22.770 -13.263  0.00  0.00    -0.089 HD
ATOM     11  H   UNL     1      31.506 -23.396 -13.379  0.00  0.00    -0.089 HD
ATOM     12  H   UNL     1      31.816 -21.845 -13.901  0.00  0.00    -0.089 HD
ENDBRANCH   8   9
ENDBRANCH   1   8
TORSDOF 6
ENDMDL
