MODEL 1
REMARK VINA RESULT:      -6.1      0.000      0.000
REMARK  Name = 25419
REMARK  6 active torsions:
REMARK  status: ('A' for Active; 'I' for Inactive)
REMARK    1  A    between atoms: C_3  and  P_4
REMARK    2  A    between atoms: C_3  and  P_10
REMARK    3  A    between atoms: P_4  and  O_6
REMARK    4  A    between atoms: P_4  and  O_8
REMARK    5  A    between atoms: P_10  and  O_12
REMARK    6  A    between atoms: P_10  and  O_14
REMARK                            x       y       z     vdW  Elec       q    Type
REMARK                         _______ _______ _______ _____ _____    ______ ____
ROOT
ATOM      1 CL   UNL     1      38.618 -25.127 -12.386  0.00  0.00    -0.075 Cl
ATOM      2 CL   UNL     1      37.695 -26.901 -14.490  0.00  0.00    -0.075 Cl
ATOM      3  C   UNL     1      38.608 -25.393 -14.162  0.00  0.00    +0.317 C 
ENDROOT
BRANCH   3   4
ATOM      4  P   UNL     1      37.592 -24.057 -14.840  0.00  0.00    +0.375 P 
ATOM      5  O   UNL     1      37.016 -23.108 -13.831  0.00  0.00    -0.255 OA
BRANCH   4   6
ATOM      6  O   UNL     1      36.503 -24.837 -15.745  0.00  0.00    -0.322 OA
ATOM      7  H   UNL     1      36.175 -25.611 -15.262  0.00  0.00    +0.220 HD
ENDBRANCH   4   6
BRANCH   4   8
ATOM      8  O   UNL     1      38.558 -23.379 -15.944  0.00  0.00    -0.322 OA
ATOM      9  H   UNL     1      38.035 -23.132 -16.723  0.00  0.00    +0.220 HD
ENDBRANCH   4   8
ENDBRANCH   3   4
BRANCH   3  10
ATOM     10  P   UNL     1      40.333 -25.689 -14.618  0.00  0.00    +0.375 P 
ATOM     11  O   UNL     1      40.983 -26.811 -13.862  0.00  0.00    -0.255 OA
BRANCH  10  12
ATOM     12  O   UNL     1      40.320 -25.868 -16.225  0.00  0.00    -0.322 OA
ATOM     13  H   UNL     1      39.434 -26.136 -16.513  0.00  0.00    +0.220 HD
ENDBRANCH  10  12
BRANCH  10  14
ATOM     14  O   UNL     1      41.037 -24.247 -14.409  0.00  0.00    -0.322 OA
ATOM     15  H   UNL     1      41.375 -23.927 -15.259  0.00  0.00    +0.220 HD
ENDBRANCH  10  14
ENDBRANCH   3  10
TORSDOF 6
ENDMDL
MODEL 2
REMARK VINA RESULT:      -6.1      0.113      3.816
REMARK  Name = 25419
REMARK  6 active torsions:
REMARK  status: ('A' for Active; 'I' for Inactive)
REMARK    1  A    between atoms: C_3  and  P_4
REMARK    2  A    between atoms: C_3  and  P_10
REMARK    3  A    between atoms: P_4  and  O_6
REMARK    4  A    between atoms: P_4  and  O_8
REMARK    5  A    between atoms: P_10  and  O_12
REMARK    6  A    between atoms: P_10  and  O_14
REMARK                            x       y       z     vdW  Elec       q    Type
REMARK                         _______ _______ _______ _____ _____    ______ ____
ROOT
ATOM      1 CL   UNL     1      37.750 -26.931 -14.717  0.00  0.00    -0.075 Cl
ATOM      2 CL   UNL     1      38.540 -25.367 -12.403  0.00  0.00    -0.075 Cl
ATOM      3  C   UNL     1      38.602 -25.440 -14.194  0.00  0.00    +0.317 C 
ENDROOT
BRANCH   3   4
ATOM      4  P   UNL     1      40.342 -25.713 -14.606  0.00  0.00    +0.375 P 
ATOM      5  O   UNL     1      41.013 -26.833 -13.866  0.00  0.00    -0.255 OA
BRANCH   4   6
ATOM      6  O   UNL     1      41.012 -24.257 -14.396  0.00  0.00    -0.322 OA
ATOM      7  H   UNL     1      40.708 -23.657 -15.094  0.00  0.00    +0.220 HD
ENDBRANCH   4   6
BRANCH   4   8
ATOM      8  O   UNL     1      40.324 -25.871 -16.215  0.00  0.00    -0.322 OA
ATOM      9  H   UNL     1      40.823 -25.142 -16.617  0.00  0.00    +0.220 HD
ENDBRANCH   4   8
ENDBRANCH   3   4
BRANCH   3  10
ATOM     10  P   UNL     1      37.611 -24.067 -14.831  0.00  0.00    +0.375 P 
ATOM     11  O   UNL     1      37.076 -23.153 -13.767  0.00  0.00    -0.255 OA
BRANCH  10  12
ATOM     12  O   UNL     1      38.546 -23.349 -15.937  0.00  0.00    -0.322 OA
ATOM     13  H   UNL     1      39.414 -23.154 -15.550  0.00  0.00    +0.220 HD
ENDBRANCH  10  12
BRANCH  10  14
ATOM     14  O   UNL     1      36.473 -24.796 -15.720  0.00  0.00    -0.322 OA
ATOM     15  H   UNL     1      35.946 -24.125 -16.181  0.00  0.00    +0.220 HD
ENDBRANCH  10  14
ENDBRANCH   3  10
TORSDOF 6
ENDMDL
MODEL 3
REMARK VINA RESULT:      -5.9      2.641      4.089
REMARK  Name = 25419
REMARK  6 active torsions:
REMARK  status: ('A' for Active; 'I' for Inactive)
REMARK    1  A    between atoms: C_3  and  P_4
REMARK    2  A    between atoms: C_3  and  P_10
REMARK    3  A    between atoms: P_4  and  O_6
REMARK    4  A    between atoms: P_4  and  O_8
REMARK    5  A    between atoms: P_10  and  O_12
REMARK    6  A    between atoms: P_10  and  O_14
REMARK                            x       y       z     vdW  Elec       q    Type
REMARK                         _______ _______ _______ _____ _____    ______ ____
ROOT
ATOM      1 CL   UNL     1      37.174 -22.919 -13.936  0.00  0.00    -0.075 Cl
ATOM      2 CL   UNL     1      35.512 -25.143 -14.786  0.00  0.00    -0.075 Cl
ATOM      3  C   UNL     1      36.931 -24.692 -13.785  0.00  0.00    +0.317 C 
ENDROOT
BRANCH   3   4
ATOM      4  P   UNL     1      38.358 -25.443 -14.606  0.00  0.00    +0.375 P 
ATOM      5  O   UNL     1      39.319 -26.159 -13.703  0.00  0.00    -0.255 OA
BRANCH   4   6
ATOM      6  O   UNL     1      38.994 -24.218 -15.448  0.00  0.00    -0.322 OA
ATOM      7  H   UNL     1      39.841 -23.959 -15.052  0.00  0.00    +0.220 HD
ENDBRANCH   4   6
BRANCH   4   8
ATOM      8  O   UNL     1      37.687 -26.359 -15.756  0.00  0.00    -0.322 OA
ATOM      9  H   UNL     1      37.870 -25.972 -16.626  0.00  0.00    +0.220 HD
ENDBRANCH   4   8
ENDBRANCH   3   4
BRANCH   3  10
ATOM     10  P   UNL     1      36.489 -24.975 -12.054  0.00  0.00    +0.375 P 
ATOM     11  O   UNL     1      37.147 -24.030 -11.091  0.00  0.00    -0.255 OA
BRANCH  10  12
ATOM     12  O   UNL     1      34.873 -24.963 -12.023  0.00  0.00    -0.322 OA
ATOM     13  H   UNL     1      34.542 -24.326 -12.675  0.00  0.00    +0.220 HD
ENDBRANCH  10  12
BRANCH  10  14
ATOM     14  O   UNL     1      36.856 -26.533 -11.815  0.00  0.00    -0.322 OA
ATOM     15  H   UNL     1      36.049 -27.023 -11.593  0.00  0.00    +0.220 HD
ENDBRANCH  10  14
ENDBRANCH   3  10
TORSDOF 6
ENDMDL
MODEL 4
REMARK VINA RESULT:      -5.8      2.850      4.030
REMARK  Name = 25419
REMARK  6 active torsions:
REMARK  status: ('A' for Active; 'I' for Inactive)
REMARK    1  A    between atoms: C_3  and  P_4
REMARK    2  A    between atoms: C_3  and  P_10
REMARK    3  A    between atoms: P_4  and  O_6
REMARK    4  A    between atoms: P_4  and  O_8
REMARK    5  A    between atoms: P_10  and  O_12
REMARK    6  A    between atoms: P_10  and  O_14
REMARK                            x       y       z     vdW  Elec       q    Type
REMARK                         _______ _______ _______ _____ _____    ______ ____
ROOT
ATOM      1 CL   UNL     1      39.428 -25.148 -13.554  0.00  0.00    -0.075 Cl
ATOM      2 CL   UNL     1      37.774 -23.421 -15.200  0.00  0.00    -0.075 Cl
ATOM      3  C   UNL     1      37.751 -24.561 -13.816  0.00  0.00    +0.317 C 
ENDROOT
BRANCH   3   4
ATOM      4  P   UNL     1      36.825 -26.003 -14.394  0.00  0.00    +0.375 P 
ATOM      5  O   UNL     1      37.338 -26.639 -15.653  0.00  0.00    -0.255 OA
BRANCH   4   6
ATOM      6  O   UNL     1      35.302 -25.465 -14.472  0.00  0.00    -0.322 OA
ATOM      7  H   UNL     1      35.172 -24.982 -15.303  0.00  0.00    +0.220 HD
ENDBRANCH   4   6
BRANCH   4   8
ATOM      8  O   UNL     1      36.797 -26.973 -13.101  0.00  0.00    -0.322 OA
ATOM      9  H   UNL     1      37.686 -27.331 -12.946  0.00  0.00    +0.220 HD
ENDBRANCH   4   8
ENDBRANCH   3   4
BRANCH   3  10
ATOM     10  P   UNL     1      37.332 -23.612 -12.334  0.00  0.00    +0.375 P 
ATOM     11  O   UNL     1      38.247 -22.452 -12.070  0.00  0.00    -0.255 OA
BRANCH  10  12
ATOM     12  O   UNL     1      35.773 -23.224 -12.508  0.00  0.00    -0.322 OA
ATOM     13  H   UNL     1      35.226 -24.015 -12.383  0.00  0.00    +0.220 HD
ENDBRANCH  10  12
BRANCH  10  14
ATOM     14  O   UNL     1      37.311 -24.725 -11.159  0.00  0.00    -0.322 OA
ATOM     15  H   UNL     1      36.448 -24.711 -10.718  0.00  0.00    +0.220 HD
ENDBRANCH  10  14
ENDBRANCH   3  10
TORSDOF 6
ENDMDL
MODEL 5
REMARK VINA RESULT:      -5.8      2.636      3.316
REMARK  Name = 25419
REMARK  6 active torsions:
REMARK  status: ('A' for Active; 'I' for Inactive)
REMARK    1  A    between atoms: C_3  and  P_4
REMARK    2  A    between atoms: C_3  and  P_10
REMARK    3  A    between atoms: P_4  and  O_6
REMARK    4  A    between atoms: P_4  and  O_8
REMARK    5  A    between atoms: P_10  and  O_12
REMARK    6  A    between atoms: P_10  and  O_14
REMARK                            x       y       z     vdW  Elec       q    Type
REMARK                         _______ _______ _______ _____ _____    ______ ____
ROOT
ATOM      1 CL   UNL     1      35.548 -25.230 -14.742  0.00  0.00    -0.075 Cl
ATOM      2 CL   UNL     1      37.103 -22.907 -13.960  0.00  0.00    -0.075 Cl
ATOM      3  C   UNL     1      36.969 -24.687 -13.787  0.00  0.00    +0.317 C 
ENDROOT
BRANCH   3   4
ATOM      4  P   UNL     1      36.520 -24.971 -12.058  0.00  0.00    +0.375 P 
ATOM      5  O   UNL     1      37.154 -24.041 -11.065  0.00  0.00    -0.255 OA
BRANCH   4   6
ATOM      6  O   UNL     1      36.853 -26.538 -11.836  0.00  0.00    -0.322 OA
ATOM      7  H   UNL     1      37.670 -26.765 -12.307  0.00  0.00    +0.220 HD
ENDBRANCH   4   6
BRANCH   4   8
ATOM      8  O   UNL     1      34.904 -24.947 -12.083  0.00  0.00    -0.322 OA
ATOM      9  H   UNL     1      34.577 -25.703 -12.597  0.00  0.00    +0.220 HD
ENDBRANCH   4   8
ENDBRANCH   3   4
BRANCH   3  10
ATOM     10  P   UNL     1      38.408 -25.424 -14.598  0.00  0.00    +0.375 P 
ATOM     11  O   UNL     1      39.364 -26.098 -13.656  0.00  0.00    -0.255 OA
BRANCH  10  12
ATOM     12  O   UNL     1      37.800 -26.381 -15.750  0.00  0.00    -0.322 OA
ATOM     13  H   UNL     1      38.086 -27.295 -15.596  0.00  0.00    +0.220 HD
ENDBRANCH  10  12
BRANCH  10  14
ATOM     14  O   UNL     1      39.049 -24.195 -15.433  0.00  0.00    -0.322 OA
ATOM     15  H   UNL     1      38.580 -23.376 -15.211  0.00  0.00    +0.220 HD
ENDBRANCH  10  14
ENDBRANCH   3  10
TORSDOF 6
ENDMDL
MODEL 6
REMARK VINA RESULT:      -5.8      2.811      3.783
REMARK  Name = 25419
REMARK  6 active torsions:
REMARK  status: ('A' for Active; 'I' for Inactive)
REMARK    1  A    between atoms: C_3  and  P_4
REMARK    2  A    between atoms: C_3  and  P_10
REMARK    3  A    between atoms: P_4  and  O_6
REMARK    4  A    between atoms: P_4  and  O_8
REMARK    5  A    between atoms: P_10  and  O_12
REMARK    6  A    between atoms: P_10  and  O_14
REMARK                            x       y       z     vdW  Elec       q    Type
REMARK                         _______ _______ _______ _____ _____    ______ ____
ROOT
ATOM      1 CL   UNL     1      37.703 -23.446 -15.140  0.00  0.00    -0.075 Cl
ATOM      2 CL   UNL     1      39.545 -24.989 -13.511  0.00  0.00    -0.075 Cl
ATOM      3  C   UNL     1      37.818 -24.565 -13.740  0.00  0.00    +0.317 C 
ENDROOT
BRANCH   3   4
ATOM      4  P   UNL     1      37.369 -23.572 -12.295  0.00  0.00    +0.375 P 
ATOM      5  O   UNL     1      38.249 -22.387 -12.028  0.00  0.00    -0.255 OA
BRANCH   4   6
ATOM      6  O   UNL     1      37.302 -24.658 -11.099  0.00  0.00    -0.322 OA
ATOM      7  H   UNL     1      38.118 -25.183 -11.093  0.00  0.00    +0.220 HD
ENDBRANCH   4   6
BRANCH   4   8
ATOM      8  O   UNL     1      35.811 -23.224 -12.552  0.00  0.00    -0.322 OA
ATOM      9  H   UNL     1      35.468 -23.783 -13.267  0.00  0.00    +0.220 HD
ENDBRANCH   4   8
ENDBRANCH   3   4
BRANCH   3  10
ATOM     10  P   UNL     1      36.950 -26.069 -14.248  0.00  0.00    +0.375 P 
ATOM     11  O   UNL     1      37.601 -26.796 -15.388  0.00  0.00    -0.255 OA
BRANCH  10  12
ATOM     12  O   UNL     1      36.781 -26.937 -12.894  0.00  0.00    -0.322 OA
ATOM     13  H   UNL     1      36.695 -26.339 -12.136  0.00  0.00    +0.220 HD
ENDBRANCH  10  12
BRANCH  10  14
ATOM     14  O   UNL     1      35.445 -25.558 -14.554  0.00  0.00    -0.322 OA
ATOM     15  H   UNL     1      35.476 -24.649 -14.889  0.00  0.00    +0.220 HD
ENDBRANCH  10  14
ENDBRANCH   3  10
TORSDOF 6
ENDMDL
MODEL 7
REMARK VINA RESULT:      -5.7      2.517      4.134
REMARK  Name = 25419
REMARK  6 active torsions:
REMARK  status: ('A' for Active; 'I' for Inactive)
REMARK    1  A    between atoms: C_3  and  P_4
REMARK    2  A    between atoms: C_3  and  P_10
REMARK    3  A    between atoms: P_4  and  O_6
REMARK    4  A    between atoms: P_4  and  O_8
REMARK    5  A    between atoms: P_10  and  O_12
REMARK    6  A    between atoms: P_10  and  O_14
REMARK                            x       y       z     vdW  Elec       q    Type
REMARK                         _______ _______ _______ _____ _____    ______ ____
ROOT
ATOM      1 CL   UNL     1      39.087 -24.820 -13.096  0.00  0.00    -0.075 Cl
ATOM      2 CL   UNL     1      37.275 -23.120 -14.596  0.00  0.00    -0.075 Cl
ATOM      3  C   UNL     1      37.366 -24.568 -13.543  0.00  0.00    +0.317 C 
ENDROOT
BRANCH   3   4
ATOM      4  P   UNL     1      36.938 -25.967 -14.607  0.00  0.00    +0.375 P 
ATOM      5  O   UNL     1      35.799 -25.733 -15.555  0.00  0.00    -0.255 OA
BRANCH   4   6
ATOM      6  O   UNL     1      36.719 -27.182 -13.562  0.00  0.00    -0.322 OA
ATOM      7  H   UNL     1      36.547 -28.001 -14.051  0.00  0.00    +0.220 HD
ENDBRANCH   4   6
BRANCH   4   8
ATOM      8  O   UNL     1      38.345 -26.346 -15.309  0.00  0.00    -0.322 OA
ATOM      9  H   UNL     1      38.413 -25.891 -16.164  0.00  0.00    +0.220 HD
ENDBRANCH   4   8
ENDBRANCH   3   4
BRANCH   3  10
ATOM     10  P   UNL     1      36.516 -24.172 -11.996  0.00  0.00    +0.375 P 
ATOM     11  O   UNL     1      36.164 -25.372 -11.165  0.00  0.00    -0.255 OA
BRANCH  10  12
ATOM     12  O   UNL     1      37.464 -23.089 -11.259  0.00  0.00    -0.322 OA
ATOM     13  H   UNL     1      37.814 -23.470 -10.439  0.00  0.00    +0.220 HD
ENDBRANCH  10  12
BRANCH  10  14
ATOM     14  O   UNL     1      35.244 -23.293 -12.472  0.00  0.00    -0.322 OA
ATOM     15  H   UNL     1      35.412 -22.938 -13.358  0.00  0.00    +0.220 HD
ENDBRANCH  10  14
ENDBRANCH   3  10
TORSDOF 6
ENDMDL
MODEL 8
REMARK VINA RESULT:      -5.7      2.721      3.784
REMARK  Name = 25419
REMARK  6 active torsions:
REMARK  status: ('A' for Active; 'I' for Inactive)
REMARK    1  A    between atoms: C_3  and  P_4
REMARK    2  A    between atoms: C_3  and  P_10
REMARK    3  A    between atoms: P_4  and  O_6
REMARK    4  A    between atoms: P_4  and  O_8
REMARK    5  A    between atoms: P_10  and  O_12
REMARK    6  A    between atoms: P_10  and  O_14
REMARK                            x       y       z     vdW  Elec       q    Type
REMARK                         _______ _______ _______ _____ _____    ______ ____
ROOT
ATOM      1 CL   UNL     1      35.267 -24.087 -13.231  0.00  0.00    -0.075 Cl
ATOM      2 CL   UNL     1      37.268 -23.162 -15.119  0.00  0.00    -0.075 Cl
ATOM      3  C   UNL     1      36.931 -24.374 -13.842  0.00  0.00    +0.317 C 
ENDROOT
BRANCH   3   4
ATOM      4  P   UNL     1      38.027 -23.945 -12.468  0.00  0.00    +0.375 P 
ATOM      5  O   UNL     1      37.962 -22.517 -12.012  0.00  0.00    -0.255 OA
BRANCH   4   6
ATOM      6  O   UNL     1      39.481 -24.433 -12.979  0.00  0.00    -0.322 OA
ATOM      7  H   UNL     1      40.170 -23.906 -12.546  0.00  0.00    +0.220 HD
ENDBRANCH   4   6
BRANCH   4   8
ATOM      8  O   UNL     1      37.656 -25.041 -11.339  0.00  0.00    -0.322 OA
ATOM      9  H   UNL     1      38.126 -25.869 -11.525  0.00  0.00    +0.220 HD
ENDBRANCH   4   8
ENDBRANCH   3   4
BRANCH   3  10
ATOM     10  P   UNL     1      36.883 -26.001 -14.633  0.00  0.00    +0.375 P 
ATOM     11  O   UNL     1      35.769 -26.167 -15.624  0.00  0.00    -0.255 OA
BRANCH  10  12
ATOM     12  O   UNL     1      38.368 -26.222 -15.233  0.00  0.00    -0.322 OA
ATOM     13  H   UNL     1      38.602 -27.162 -15.180  0.00  0.00    +0.220 HD
ENDBRANCH  10  12
BRANCH  10  14
ATOM     14  O   UNL     1      36.828 -27.031 -13.386  0.00  0.00    -0.322 OA
ATOM     15  H   UNL     1      36.839 -26.532 -12.555  0.00  0.00    +0.220 HD
ENDBRANCH  10  14
ENDBRANCH   3  10
TORSDOF 6
ENDMDL
MODEL 9
REMARK VINA RESULT:      -5.6      2.129      2.797
REMARK  Name = 25419
REMARK  6 active torsions:
REMARK  status: ('A' for Active; 'I' for Inactive)
REMARK    1  A    between atoms: C_3  and  P_4
REMARK    2  A    between atoms: C_3  and  P_10
REMARK    3  A    between atoms: P_4  and  O_6
REMARK    4  A    between atoms: P_4  and  O_8
REMARK    5  A    between atoms: P_10  and  O_12
REMARK    6  A    between atoms: P_10  and  O_14
REMARK                            x       y       z     vdW  Elec       q    Type
REMARK                         _______ _______ _______ _____ _____    ______ ____
ROOT
ATOM      1 CL   UNL     1      37.261 -26.450 -12.389  0.00  0.00    -0.075 Cl
ATOM      2 CL   UNL     1      36.044 -24.755 -14.407  0.00  0.00    -0.075 Cl
ATOM      3  C   UNL     1      37.457 -24.924 -13.316  0.00  0.00    +0.317 C 
ENDROOT
BRANCH   3   4
ATOM      4  P   UNL     1      37.286 -23.599 -12.096  0.00  0.00    +0.375 P 
ATOM      5  O   UNL     1      38.460 -22.672 -11.981  0.00  0.00    -0.255 OA
BRANCH   4   6
ATOM      6  O   UNL     1      36.900 -24.386 -10.737  0.00  0.00    -0.322 OA
ATOM      7  H   UNL     1      36.067 -24.035 -10.386  0.00  0.00    +0.220 HD
ENDBRANCH   4   6
BRANCH   4   8
ATOM      8  O   UNL     1      35.892 -22.890 -12.509  0.00  0.00    -0.322 OA
ATOM      9  H   UNL     1      35.395 -22.663 -11.707  0.00  0.00    +0.220 HD
ENDBRANCH   4   8
ENDBRANCH   3   4
BRANCH   3  10
ATOM     10  P   UNL     1      38.920 -25.169 -14.351  0.00  0.00    +0.375 P 
ATOM     11  O   UNL     1      39.109 -26.583 -14.820  0.00  0.00    -0.255 OA
BRANCH  10  12
ATOM     12  O   UNL     1      38.790 -24.072 -15.531  0.00  0.00    -0.322 OA
ATOM     13  H   UNL     1      37.958 -23.584 -15.429  0.00  0.00    +0.220 HD
ENDBRANCH  10  12
BRANCH  10  14
ATOM     14  O   UNL     1      40.131 -24.599 -13.443  0.00  0.00    -0.322 OA
ATOM     15  H   UNL     1      40.978 -24.805 -13.869  0.00  0.00    +0.220 HD
ENDBRANCH  10  14
ENDBRANCH   3  10
TORSDOF 6
ENDMDL
