MODEL 1
REMARK VINA RESULT:     -11.9      0.000      0.000
REMARK  Name = 9924495
REMARK  4 active torsions:
REMARK  status: ('A' for Active; 'I' for Inactive)
REMARK    1  A    between atoms: N_2  and  C_22
REMARK    2  A    between atoms: C_3  and  C_14
REMARK    3  A    between atoms: C_4  and  C_9
REMARK    4  A    between atoms: C_15  and  C_21
REMARK                            x       y       z     vdW  Elec       q    Type
REMARK                         _______ _______ _______ _____ _____    ______ ____
ROOT
ATOM      1  O   UNL     1      36.854 -22.960 -16.495  0.00  0.00    -0.269 OA
ATOM      2  N   UNL     1      34.602 -22.699 -17.141  0.00  0.00    -0.233 N 
ATOM      3  C   UNL     1      35.242 -23.795 -15.002  0.00  0.00    +0.055 C 
ATOM      4  C   UNL     1      32.922 -23.716 -15.745  0.00  0.00    +0.033 C 
ATOM      5  C   UNL     1      35.650 -23.094 -16.272  0.00  0.00    +0.257 C 
ATOM      6  C   UNL     1      33.947 -24.079 -14.794  0.00  0.00    +0.007 C 
ATOM      7  C   UNL     1      33.283 -23.042 -16.849  0.00  0.00    +0.074 C 
ENDROOT
BRANCH   4   9
ATOM      8  N   UNL     1      31.221 -25.004 -14.651  0.00  0.00    -0.244 NA
ATOM      9  C   UNL     1      31.492 -24.013 -15.529  0.00  0.00    +0.083 C 
ATOM     10  C   UNL     1      30.527 -23.292 -16.211  0.00  0.00    +0.019 C 
ATOM     11  C   UNL     1      29.193 -23.608 -15.976  0.00  0.00    +0.003 C 
ATOM     12  C   UNL     1      29.913 -25.283 -14.448  0.00  0.00    +0.099 C 
ATOM     13  C   UNL     1      28.872 -24.621 -15.079  0.00  0.00    +0.021 C 
ENDBRANCH   4   9
BRANCH   3  14
ATOM     14  C   UNL     1      36.243 -24.169 -13.987  0.00  0.00    +0.014 C 
ATOM     15  C   UNL     1      36.945 -25.372 -14.051  0.00  0.00    +0.069 C 
ATOM     16  C   UNL     1      36.480 -23.278 -12.940  0.00  0.00    +0.001 C 
ATOM     17  C   UNL     1      37.884 -25.686 -13.068  0.00  0.00    +0.010 C 
ATOM     18  C   UNL     1      37.419 -23.591 -11.957  0.00  0.00    +0.000 C 
ATOM     19  C   UNL     1      38.122 -24.794 -12.021  0.00  0.00    +0.001 C 
BRANCH  15  21
ATOM     20  N   UNL     1      36.553 -27.072 -15.966  0.00  0.00    -0.191 NA
ATOM     21  C   UNL     1      36.729 -26.312 -15.111  0.00  0.00    +0.100 C 
ENDBRANCH  15  21
ENDBRANCH   3  14
BRANCH   2  22
ATOM     22  C   UNL     1      34.915 -21.961 -18.350  0.00  0.00    +0.058 C 
ATOM     23  C   UNL     1      33.887 -21.540 -19.185  0.00  0.00    +0.015 C 
ATOM     24  C   UNL     1      36.241 -21.681 -18.660  0.00  0.00    +0.015 C 
ATOM     25  C   UNL     1      34.189 -20.830 -20.347  0.00  0.00    +0.001 C 
ATOM     26  C   UNL     1      36.543 -20.971 -19.822  0.00  0.00    +0.001 C 
ATOM     27  C   UNL     1      35.516 -20.545 -20.666  0.00  0.00    +0.000 C 
ENDBRANCH   2  22
TORSDOF 4
ENDMDL
MODEL 2
REMARK VINA RESULT:     -11.7      1.189      5.186
REMARK  Name = 9924495
REMARK  4 active torsions:
REMARK  status: ('A' for Active; 'I' for Inactive)
REMARK    1  A    between atoms: N_2  and  C_22
REMARK    2  A    between atoms: C_3  and  C_14
REMARK    3  A    between atoms: C_4  and  C_9
REMARK    4  A    between atoms: C_15  and  C_21
REMARK                            x       y       z     vdW  Elec       q    Type
REMARK                         _______ _______ _______ _____ _____    ______ ____
ROOT
ATOM      1  O   UNL     1      33.432 -24.477 -13.399  0.00  0.00    -0.269 OA
ATOM      2  N   UNL     1      32.803 -23.698 -15.533  0.00  0.00    -0.233 N 
ATOM      3  C   UNL     1      35.179 -23.756 -14.797  0.00  0.00    +0.055 C 
ATOM      4  C   UNL     1      34.533 -22.761 -16.926  0.00  0.00    +0.033 C 
ATOM      5  C   UNL     1      33.725 -24.033 -14.510  0.00  0.00    +0.257 C 
ATOM      6  C   UNL     1      35.518 -23.146 -15.943  0.00  0.00    +0.007 C 
ATOM      7  C   UNL     1      33.244 -23.059 -16.691  0.00  0.00    +0.074 C 
ENDROOT
BRANCH   4   9
ATOM      8  N   UNL     1      36.210 -21.946 -18.433  0.00  0.00    -0.244 NA
ATOM      9  C   UNL     1      34.888 -22.097 -18.196  0.00  0.00    +0.083 C 
ATOM     10  C   UNL     1      33.891 -21.671 -19.055  0.00  0.00    +0.019 C 
ATOM     11  C   UNL     1      34.275 -21.050 -20.239  0.00  0.00    +0.003 C 
ATOM     12  C   UNL     1      36.545 -21.338 -19.593  0.00  0.00    +0.099 C 
ATOM     13  C   UNL     1      35.625 -20.877 -20.520  0.00  0.00    +0.021 C 
ENDBRANCH   4   9
BRANCH   3  14
ATOM     14  C   UNL     1      36.229 -24.147 -13.839  0.00  0.00    +0.014 C 
ATOM     15  C   UNL     1      36.919 -25.353 -13.953  0.00  0.00    +0.069 C 
ATOM     16  C   UNL     1      36.524 -23.270 -12.795  0.00  0.00    +0.001 C 
ATOM     17  C   UNL     1      37.905 -25.684 -13.023  0.00  0.00    +0.010 C 
ATOM     18  C   UNL     1      37.511 -23.600 -11.865  0.00  0.00    +0.000 C 
ATOM     19  C   UNL     1      38.201 -24.806 -11.979  0.00  0.00    +0.001 C 
BRANCH  15  21
ATOM     20  N   UNL     1      36.421 -27.028 -15.866  0.00  0.00    -0.191 NA
ATOM     21  C   UNL     1      36.642 -26.279 -15.011  0.00  0.00    +0.100 C 
ENDBRANCH  15  21
ENDBRANCH   3  14
BRANCH   2  22
ATOM     22  C   UNL     1      31.395 -23.997 -15.353  0.00  0.00    +0.058 C 
ATOM     23  C   UNL     1      31.014 -25.222 -14.821  0.00  0.00    +0.015 C 
ATOM     24  C   UNL     1      30.441 -23.052 -15.714  0.00  0.00    +0.015 C 
ATOM     25  C   UNL     1      29.660 -25.509 -14.649  0.00  0.00    +0.001 C 
ATOM     26  C   UNL     1      29.087 -23.339 -15.541  0.00  0.00    +0.001 C 
ATOM     27  C   UNL     1      28.696 -24.567 -15.008  0.00  0.00    +0.000 C 
ENDBRANCH   2  22
TORSDOF 4
ENDMDL
MODEL 3
REMARK VINA RESULT:      -9.5      1.991      5.597
REMARK  Name = 9924495
REMARK  4 active torsions:
REMARK  status: ('A' for Active; 'I' for Inactive)
REMARK    1  A    between atoms: N_2  and  C_22
REMARK    2  A    between atoms: C_3  and  C_14
REMARK    3  A    between atoms: C_4  and  C_9
REMARK    4  A    between atoms: C_15  and  C_21
REMARK                            x       y       z     vdW  Elec       q    Type
REMARK                         _______ _______ _______ _____ _____    ______ ____
ROOT
ATOM      1  O   UNL     1      33.241 -24.512 -14.613  0.00  0.00    -0.269 OA
ATOM      2  N   UNL     1      32.279 -23.364 -16.433  0.00  0.00    -0.233 N 
ATOM      3  C   UNL     1      34.739 -23.655 -16.209  0.00  0.00    +0.055 C 
ATOM      4  C   UNL     1      33.778 -22.294 -17.988  0.00  0.00    +0.033 C 
ATOM      5  C   UNL     1      33.350 -23.906 -15.680  0.00  0.00    +0.257 C 
ATOM      6  C   UNL     1      34.900 -22.882 -17.294  0.00  0.00    +0.007 C 
ATOM      7  C   UNL     1      32.538 -22.565 -17.546  0.00  0.00    +0.074 C 
ENDROOT
BRANCH   4   9
ATOM      8  N   UNL     1      32.797 -20.923 -19.692  0.00  0.00    -0.244 NA
ATOM      9  C   UNL     1      33.935 -21.449 -19.188  0.00  0.00    +0.083 C 
ATOM     10  C   UNL     1      35.193 -21.242 -19.727  0.00  0.00    +0.019 C 
ATOM     11  C   UNL     1      35.291 -20.439 -20.859  0.00  0.00    +0.003 C 
ATOM     12  C   UNL     1      32.931 -20.148 -20.793  0.00  0.00    +0.099 C 
ATOM     13  C   UNL     1      34.144 -19.879 -21.407  0.00  0.00    +0.021 C 
ENDBRANCH   4   9
BRANCH   3  14
ATOM     14  C   UNL     1      35.918 -24.248 -15.554  0.00  0.00    +0.014 C 
ATOM     15  C   UNL     1      37.138 -23.576 -15.480  0.00  0.00    +0.069 C 
ATOM     16  C   UNL     1      35.789 -25.521 -14.997  0.00  0.00    +0.001 C 
ATOM     17  C   UNL     1      38.229 -24.175 -14.850  0.00  0.00    +0.010 C 
ATOM     18  C   UNL     1      36.879 -26.121 -14.367  0.00  0.00    +0.000 C 
ATOM     19  C   UNL     1      38.099 -25.448 -14.293  0.00  0.00    +0.001 C 
BRANCH  15  21
ATOM     20  N   UNL     1      37.445 -21.211 -16.493  0.00  0.00    -0.191 NA
ATOM     21  C   UNL     1      37.308 -22.268 -16.040  0.00  0.00    +0.100 C 
ENDBRANCH  15  21
ENDBRANCH   3  14
BRANCH   2  22
ATOM     22  C   UNL     1      30.912 -23.621 -16.021  0.00  0.00    +0.058 C 
ATOM     23  C   UNL     1      30.618 -24.764 -15.287  0.00  0.00    +0.015 C 
ATOM     24  C   UNL     1      29.910 -22.720 -16.363  0.00  0.00    +0.015 C 
ATOM     25  C   UNL     1      29.303 -25.010 -14.890  0.00  0.00    +0.001 C 
ATOM     26  C   UNL     1      28.596 -22.966 -15.966  0.00  0.00    +0.001 C 
ATOM     27  C   UNL     1      28.292 -24.111 -15.230  0.00  0.00    +0.000 C 
ENDBRANCH   2  22
TORSDOF 4
ENDMDL
MODEL 4
REMARK VINA RESULT:      -9.4      1.564      6.360
REMARK  Name = 9924495
REMARK  4 active torsions:
REMARK  status: ('A' for Active; 'I' for Inactive)
REMARK    1  A    between atoms: N_2  and  C_22
REMARK    2  A    between atoms: C_3  and  C_14
REMARK    3  A    between atoms: C_4  and  C_9
REMARK    4  A    between atoms: C_15  and  C_21
REMARK                            x       y       z     vdW  Elec       q    Type
REMARK                         _______ _______ _______ _____ _____    ______ ____
ROOT
ATOM      1  O   UNL     1      32.202 -22.592 -18.008  0.00  0.00    -0.269 OA
ATOM      2  N   UNL     1      32.394 -23.620 -15.896  0.00  0.00    -0.233 N 
ATOM      3  C   UNL     1      34.380 -22.791 -17.145  0.00  0.00    +0.055 C 
ATOM      4  C   UNL     1      34.617 -24.029 -15.059  0.00  0.00    +0.033 C 
ATOM      5  C   UNL     1      32.885 -22.970 -17.055  0.00  0.00    +0.257 C 
ATOM      6  C   UNL     1      35.163 -23.313 -16.188  0.00  0.00    +0.007 C 
ATOM      7  C   UNL     1      33.282 -24.139 -14.954  0.00  0.00    +0.074 C 
ENDROOT
BRANCH   4   9
ATOM      8  N   UNL     1      36.420 -25.465 -14.399  0.00  0.00    -0.244 NA
ATOM      9  C   UNL     1      35.462 -24.603 -13.993  0.00  0.00    +0.083 C 
ATOM     10  C   UNL     1      35.245 -24.248 -12.673  0.00  0.00    +0.019 C 
ATOM     11  C   UNL     1      36.066 -24.815 -11.704  0.00  0.00    +0.003 C 
ATOM     12  C   UNL     1      37.198 -25.997 -13.429  0.00  0.00    +0.099 C 
ATOM     13  C   UNL     1      37.063 -25.706 -12.081  0.00  0.00    +0.021 C 
ENDBRANCH   4   9
BRANCH   3  14
ATOM     14  C   UNL     1      34.989 -22.051 -18.264  0.00  0.00    +0.014 C 
ATOM     15  C   UNL     1      36.314 -21.618 -18.229  0.00  0.00    +0.069 C 
ATOM     16  C   UNL     1      34.198 -21.785 -19.382  0.00  0.00    +0.001 C 
ATOM     17  C   UNL     1      36.849 -20.919 -19.310  0.00  0.00    +0.010 C 
ATOM     18  C   UNL     1      34.733 -21.086 -20.465  0.00  0.00    +0.000 C 
ATOM     19  C   UNL     1      36.059 -20.654 -20.429  0.00  0.00    +0.001 C 
BRANCH  15  21
ATOM     20  N   UNL     1      37.838 -22.077 -16.184  0.00  0.00    -0.191 NA
ATOM     21  C   UNL     1      37.156 -21.872 -17.097  0.00  0.00    +0.100 C 
ENDBRANCH  15  21
ENDBRANCH   3  14
BRANCH   2  22
ATOM     22  C   UNL     1      30.963 -23.768 -15.710  0.00  0.00    +0.058 C 
ATOM     23  C   UNL     1      30.459 -24.939 -15.157  0.00  0.00    +0.015 C 
ATOM     24  C   UNL     1      30.111 -22.737 -16.087  0.00  0.00    +0.015 C 
ATOM     25  C   UNL     1      29.083 -25.080 -14.978  0.00  0.00    +0.001 C 
ATOM     26  C   UNL     1      28.735 -22.878 -15.909  0.00  0.00    +0.001 C 
ATOM     27  C   UNL     1      28.221 -24.051 -15.354  0.00  0.00    +0.000 C 
ENDBRANCH   2  22
TORSDOF 4
ENDMDL
MODEL 5
REMARK VINA RESULT:      -9.2      1.226      1.910
REMARK  Name = 9924495
REMARK  4 active torsions:
REMARK  status: ('A' for Active; 'I' for Inactive)
REMARK    1  A    between atoms: N_2  and  C_22
REMARK    2  A    between atoms: C_3  and  C_14
REMARK    3  A    between atoms: C_4  and  C_9
REMARK    4  A    between atoms: C_15  and  C_21
REMARK                            x       y       z     vdW  Elec       q    Type
REMARK                         _______ _______ _______ _____ _____    ______ ____
ROOT
ATOM      1  O   UNL     1      36.887 -22.826 -17.070  0.00  0.00    -0.269 OA
ATOM      2  N   UNL     1      34.571 -22.567 -17.421  0.00  0.00    -0.233 N 
ATOM      3  C   UNL     1      35.478 -23.780 -15.448  0.00  0.00    +0.055 C 
ATOM      4  C   UNL     1      33.085 -23.698 -15.898  0.00  0.00    +0.033 C 
ATOM      5  C   UNL     1      35.720 -22.995 -16.712  0.00  0.00    +0.257 C 
ATOM      6  C   UNL     1      34.222 -24.099 -15.103  0.00  0.00    +0.007 C 
ATOM      7  C   UNL     1      33.301 -22.952 -16.993  0.00  0.00    +0.074 C 
ENDROOT
BRANCH   4   9
ATOM      8  N   UNL     1      31.549 -24.935 -14.533  0.00  0.00    -0.244 NA
ATOM      9  C   UNL     1      31.695 -24.033 -15.529  0.00  0.00    +0.083 C 
ATOM     10  C   UNL     1      30.640 -23.435 -16.197  0.00  0.00    +0.019 C 
ATOM     11  C   UNL     1      29.348 -23.783 -15.815  0.00  0.00    +0.003 C 
ATOM     12  C   UNL     1      30.280 -25.249 -14.190  0.00  0.00    +0.099 C 
ATOM     13  C   UNL     1      29.157 -24.706 -14.794  0.00  0.00    +0.021 C 
ENDBRANCH   4   9
BRANCH   3  14
ATOM     14  C   UNL     1      36.600 -24.196 -14.587  0.00  0.00    +0.014 C 
ATOM     15  C   UNL     1      36.485 -24.251 -13.199  0.00  0.00    +0.069 C 
ATOM     16  C   UNL     1      37.804 -24.542 -15.201  0.00  0.00    +0.001 C 
ATOM     17  C   UNL     1      37.573 -24.650 -12.423  0.00  0.00    +0.010 C 
ATOM     18  C   UNL     1      38.893 -24.942 -14.426  0.00  0.00    +0.000 C 
ATOM     19  C   UNL     1      38.777 -24.997 -13.037  0.00  0.00    +0.001 C 
BRANCH  15  21
ATOM     20  N   UNL     1      34.278 -23.623 -11.995  0.00  0.00    -0.191 NA
ATOM     21  C   UNL     1      35.265 -23.902 -12.533  0.00  0.00    +0.100 C 
ENDBRANCH  15  21
ENDBRANCH   3  14
BRANCH   2  22
ATOM     22  C   UNL     1      34.726 -21.752 -18.611  0.00  0.00    +0.058 C 
ATOM     23  C   UNL     1      35.999 -21.417 -19.055  0.00  0.00    +0.015 C 
ATOM     24  C   UNL     1      33.598 -21.314 -19.295  0.00  0.00    +0.015 C 
ATOM     25  C   UNL     1      36.148 -20.634 -20.199  0.00  0.00    +0.001 C 
ATOM     26  C   UNL     1      33.746 -20.530 -20.439  0.00  0.00    +0.001 C 
ATOM     27  C   UNL     1      35.021 -20.190 -20.891  0.00  0.00    +0.000 C 
ENDBRANCH   2  22
TORSDOF 4
ENDMDL
MODEL 6
REMARK VINA RESULT:      -9.1      1.777      5.487
REMARK  Name = 9924495
REMARK  4 active torsions:
REMARK  status: ('A' for Active; 'I' for Inactive)
REMARK    1  A    between atoms: N_2  and  C_22
REMARK    2  A    between atoms: C_3  and  C_14
REMARK    3  A    between atoms: C_4  and  C_9
REMARK    4  A    between atoms: C_15  and  C_21
REMARK                            x       y       z     vdW  Elec       q    Type
REMARK                         _______ _______ _______ _____ _____    ______ ____
ROOT
ATOM      1  O   UNL     1      32.921 -25.015 -14.093  0.00  0.00    -0.269 OA
ATOM      2  N   UNL     1      32.402 -23.740 -16.006  0.00  0.00    -0.233 N 
ATOM      3  C   UNL     1      34.741 -24.362 -15.430  0.00  0.00    +0.055 C 
ATOM      4  C   UNL     1      34.245 -22.876 -17.297  0.00  0.00    +0.033 C 
ATOM      5  C   UNL     1      33.267 -24.425 -15.117  0.00  0.00    +0.257 C 
ATOM      6  C   UNL     1      35.163 -23.614 -16.460  0.00  0.00    +0.007 C 
ATOM      7  C   UNL     1      32.929 -22.979 -17.049  0.00  0.00    +0.074 C 
ENDROOT
BRANCH   4   9
ATOM      8  N   UNL     1      36.027 -21.966 -18.617  0.00  0.00    -0.244 NA
ATOM      9  C   UNL     1      34.690 -22.055 -18.440  0.00  0.00    +0.083 C 
ATOM     10  C   UNL     1      33.755 -21.433 -19.249  0.00  0.00    +0.019 C 
ATOM     11  C   UNL     1      34.223 -20.668 -20.313  0.00  0.00    +0.003 C 
ATOM     12  C   UNL     1      36.444 -21.214 -19.661  0.00  0.00    +0.099 C 
ATOM     13  C   UNL     1      35.591 -20.552 -20.529  0.00  0.00    +0.021 C 
ENDBRANCH   4   9
BRANCH   3  14
ATOM     14  C   UNL     1      35.720 -25.112 -14.623  0.00  0.00    +0.014 C 
ATOM     15  C   UNL     1      35.859 -24.905 -13.251  0.00  0.00    +0.069 C 
ATOM     16  C   UNL     1      36.521 -26.053 -15.271  0.00  0.00    +0.001 C 
ATOM     17  C   UNL     1      36.799 -25.637 -12.526  0.00  0.00    +0.010 C 
ATOM     18  C   UNL     1      37.461 -26.786 -14.547  0.00  0.00    +0.000 C 
ATOM     19  C   UNL     1      37.600 -26.578 -13.174  0.00  0.00    +0.001 C 
BRANCH  15  21
ATOM     20  N   UNL     1      34.404 -23.176 -11.985  0.00  0.00    -0.191 NA
ATOM     21  C   UNL     1      35.054 -23.948 -12.551  0.00  0.00    +0.100 C 
ENDBRANCH  15  21
ENDBRANCH   3  14
BRANCH   2  22
ATOM     22  C   UNL     1      30.967 -23.811 -15.805  0.00  0.00    +0.058 C 
ATOM     23  C   UNL     1      30.165 -22.742 -16.185  0.00  0.00    +0.015 C 
ATOM     24  C   UNL     1      30.408 -24.950 -15.236  0.00  0.00    +0.015 C 
ATOM     25  C   UNL     1      28.786 -22.812 -15.992  0.00  0.00    +0.001 C 
ATOM     26  C   UNL     1      29.029 -25.020 -15.043  0.00  0.00    +0.001 C 
ATOM     27  C   UNL     1      28.217 -23.950 -15.421  0.00  0.00    +0.000 C 
ENDBRANCH   2  22
TORSDOF 4
ENDMDL
