MODEL 1
REMARK VINA RESULT:      -8.4      0.000      0.000
REMARK  Name = 5288082
REMARK  7 active torsions:
REMARK  status: ('A' for Active; 'I' for Inactive)
REMARK    1  A    between atoms: C_1  and  N_16
REMARK    2  A    between atoms: C_4  and  C_7
REMARK    3  A    between atoms: C_5  and  O_14
REMARK    4  A    between atoms: C_8  and  C_11
REMARK    5  A    between atoms: C_11  and  O_12
REMARK    6  A    between atoms: N_16  and  C_17
REMARK    7  A    between atoms: N_16  and  C_19
REMARK                            x       y       z     vdW  Elec       q    Type
REMARK                         _______ _______ _______ _____ _____    ______ ____
ROOT
ATOM      1  C   UNL     1      34.270 -16.131 -23.697  0.00  0.00    +0.051 C 
ATOM      2  C   UNL     1      34.528 -15.892 -22.346  0.00  0.00    +0.051 C 
ATOM      3  C   UNL     1      34.454 -17.408 -24.226  0.00  0.00    +0.015 C 
ATOM      4  C   UNL     1      35.154 -18.207 -22.057  0.00  0.00    +0.034 C 
ATOM      5  C   UNL     1      34.969 -16.930 -21.527  0.00  0.00    +0.135 C 
ATOM      6  C   UNL     1      34.897 -18.445 -23.406  0.00  0.00    +0.004 C 
ENDROOT
BRANCH   4   7
ATOM      7  C   UNL     1      35.614 -19.308 -21.221  0.00  0.00    +0.005 C 
ATOM      8  C   UNL     1      34.824 -20.156 -20.525  0.00  0.00    +0.054 C 
ATOM      9  C   UNL     1      33.322 -20.145 -20.522  0.00  0.00    +0.038 C 
BRANCH   8  11
ATOM     10  O   UNL     1      35.210 -22.379 -19.654  0.00  0.00    -0.245 OA
ATOM     11  C   UNL     1      35.529 -21.202 -19.728  0.00  0.00    +0.334 C 
BRANCH  11  12
ATOM     12  O   UNL     1      36.598 -20.673 -19.086  0.00  0.00    -0.477 OA
ATOM     13  H   UNL     1      36.470 -20.112 -18.347  0.00  0.00    +0.295 HD
ENDBRANCH  11  12
ENDBRANCH   8  11
ENDBRANCH   4   7
BRANCH   5  14
ATOM     14  O   UNL     1      35.214 -16.670 -20.211  0.00  0.00    -0.505 OA
ATOM     15  H   UNL     1      36.080 -16.768 -19.866  0.00  0.00    +0.292 HD
ENDBRANCH   5  14
BRANCH   1  16
ATOM     16  N   UNL     1      33.823 -15.081 -24.525  0.00  0.00    -0.307 N 
BRANCH  16  17
ATOM     17  C   UNL     1      33.380 -15.352 -25.878  0.00  0.00    +0.091 C 
ATOM     18  C   UNL     1      33.178 -14.051 -26.632  0.00  0.00    +0.023 C 
ENDBRANCH  16  17
BRANCH  16  19
ATOM     19  C   UNL     1      33.786 -13.720 -24.029  0.00  0.00    +0.091 C 
ATOM     20  C   UNL     1      32.509 -13.484 -23.245  0.00  0.00    +0.023 C 
ENDBRANCH  16  19
ENDBRANCH   1  16
TORSDOF 7
ENDMDL
MODEL 2
REMARK VINA RESULT:      -8.3      1.138      1.610
REMARK  Name = 5288082
REMARK  7 active torsions:
REMARK  status: ('A' for Active; 'I' for Inactive)
REMARK    1  A    between atoms: C_1  and  N_16
REMARK    2  A    between atoms: C_4  and  C_7
REMARK    3  A    between atoms: C_5  and  O_14
REMARK    4  A    between atoms: C_8  and  C_11
REMARK    5  A    between atoms: C_11  and  O_12
REMARK    6  A    between atoms: N_16  and  C_17
REMARK    7  A    between atoms: N_16  and  C_19
REMARK                            x       y       z     vdW  Elec       q    Type
REMARK                         _______ _______ _______ _____ _____    ______ ____
ROOT
ATOM      1  C   UNL     1      34.250 -16.129 -23.582  0.00  0.00    +0.051 C 
ATOM      2  C   UNL     1      34.446 -17.385 -24.158  0.00  0.00    +0.051 C 
ATOM      3  C   UNL     1      34.491 -15.942 -22.221  0.00  0.00    +0.015 C 
ATOM      4  C   UNL     1      35.123 -18.263 -22.012  0.00  0.00    +0.034 C 
ATOM      5  C   UNL     1      34.883 -18.451 -23.373  0.00  0.00    +0.135 C 
ATOM      6  C   UNL     1      34.926 -17.008 -21.437  0.00  0.00    +0.004 C 
ENDROOT
BRANCH   4   7
ATOM      7  C   UNL     1      35.580 -19.361 -21.171  0.00  0.00    +0.005 C 
ATOM      8  C   UNL     1      34.786 -20.216 -20.485  0.00  0.00    +0.054 C 
ATOM      9  C   UNL     1      33.284 -20.215 -20.502  0.00  0.00    +0.038 C 
BRANCH   8  11
ATOM     10  O   UNL     1      35.166 -22.433 -19.598  0.00  0.00    -0.245 OA
ATOM     11  C   UNL     1      35.487 -21.257 -19.680  0.00  0.00    +0.334 C 
BRANCH  11  12
ATOM     12  O   UNL     1      36.556 -20.726 -19.040  0.00  0.00    -0.477 OA
ATOM     13  H   UNL     1      36.737 -19.810 -19.110  0.00  0.00    +0.295 HD
ENDBRANCH  11  12
ENDBRANCH   8  11
ENDBRANCH   4   7
BRANCH   5  14
ATOM     14  O   UNL     1      35.066 -19.668 -23.961  0.00  0.00    -0.505 OA
ATOM     15  H   UNL     1      34.449 -19.982 -24.593  0.00  0.00    +0.292 HD
ENDBRANCH   5  14
BRANCH   1  16
ATOM     16  N   UNL     1      33.808 -15.051 -24.376  0.00  0.00    -0.307 N 
BRANCH  16  17
ATOM     17  C   UNL     1      33.336 -15.280 -25.727  0.00  0.00    +0.091 C 
ATOM     18  C   UNL     1      33.215 -13.961 -26.467  0.00  0.00    +0.023 C 
ENDBRANCH  16  17
BRANCH  16  19
ATOM     19  C   UNL     1      33.806 -13.702 -23.846  0.00  0.00    +0.091 C 
ATOM     20  C   UNL     1      32.522 -13.443 -23.081  0.00  0.00    +0.023 C 
ENDBRANCH  16  19
ENDBRANCH   1  16
TORSDOF 7
ENDMDL
MODEL 3
REMARK VINA RESULT:      -7.9      8.719     10.846
REMARK  Name = 5288082
REMARK  7 active torsions:
REMARK  status: ('A' for Active; 'I' for Inactive)
REMARK    1  A    between atoms: C_1  and  N_16
REMARK    2  A    between atoms: C_4  and  C_7
REMARK    3  A    between atoms: C_5  and  O_14
REMARK    4  A    between atoms: C_8  and  C_11
REMARK    5  A    between atoms: C_11  and  O_12
REMARK    6  A    between atoms: N_16  and  C_17
REMARK    7  A    between atoms: N_16  and  C_19
REMARK                            x       y       z     vdW  Elec       q    Type
REMARK                         _______ _______ _______ _____ _____    ______ ____
ROOT
ATOM      1  C   UNL     1      34.487 -23.819 -15.397  0.00  0.00    +0.051 C 
ATOM      2  C   UNL     1      34.224 -23.471 -16.723  0.00  0.00    +0.051 C 
ATOM      3  C   UNL     1      33.463 -23.786 -14.452  0.00  0.00    +0.015 C 
ATOM      4  C   UNL     1      31.913 -23.058 -16.155  0.00  0.00    +0.034 C 
ATOM      5  C   UNL     1      32.937 -23.091 -17.101  0.00  0.00    +0.135 C 
ATOM      6  C   UNL     1      32.176 -23.405 -14.830  0.00  0.00    +0.004 C 
ENDROOT
BRANCH   4   7
ATOM      7  C   UNL     1      30.560 -22.664 -16.526  0.00  0.00    +0.005 C 
ATOM      8  C   UNL     1      29.456 -23.439 -16.424  0.00  0.00    +0.054 C 
ATOM      9  C   UNL     1      29.416 -24.833 -15.869  0.00  0.00    +0.038 C 
BRANCH   8  11
ATOM     10  O   UNL     1      27.784 -21.699 -16.586  0.00  0.00    -0.245 OA
ATOM     11  C   UNL     1      28.178 -22.818 -16.879  0.00  0.00    +0.334 C 
BRANCH  11  12
ATOM     12  O   UNL     1      27.494 -23.666 -17.683  0.00  0.00    -0.477 OA
ATOM     13  H   UNL     1      26.583 -23.824 -17.531  0.00  0.00    +0.295 HD
ENDBRANCH  11  12
ENDBRANCH   8  11
ENDBRANCH   4   7
BRANCH   5  14
ATOM     14  O   UNL     1      32.707 -22.756 -18.403  0.00  0.00    -0.505 OA
ATOM     15  H   UNL     1      32.784 -21.864 -18.678  0.00  0.00    +0.292 HD
ENDBRANCH   5  14
BRANCH   1  16
ATOM     16  N   UNL     1      35.789 -24.203 -15.014  0.00  0.00    -0.307 N 
BRANCH  16  17
ATOM     17  C   UNL     1      36.165 -25.603 -14.997  0.00  0.00    +0.091 C 
ATOM     18  C   UNL     1      37.060 -25.888 -13.806  0.00  0.00    +0.023 C 
ENDBRANCH  16  17
BRANCH  16  19
ATOM     19  C   UNL     1      36.772 -23.203 -14.648  0.00  0.00    +0.091 C 
ATOM     20  C   UNL     1      37.588 -22.803 -15.862  0.00  0.00    +0.023 C 
ENDBRANCH  16  19
ENDBRANCH   1  16
TORSDOF 7
ENDMDL
MODEL 4
REMARK VINA RESULT:      -7.8      9.802     11.553
REMARK  Name = 5288082
REMARK  7 active torsions:
REMARK  status: ('A' for Active; 'I' for Inactive)
REMARK    1  A    between atoms: C_1  and  N_16
REMARK    2  A    between atoms: C_4  and  C_7
REMARK    3  A    between atoms: C_5  and  O_14
REMARK    4  A    between atoms: C_8  and  C_11
REMARK    5  A    between atoms: C_11  and  O_12
REMARK    6  A    between atoms: N_16  and  C_17
REMARK    7  A    between atoms: N_16  and  C_19
REMARK                            x       y       z     vdW  Elec       q    Type
REMARK                         _______ _______ _______ _____ _____    ______ ____
ROOT
ATOM      1  C   UNL     1      34.490 -24.109 -14.448  0.00  0.00    +0.051 C 
ATOM      2  C   UNL     1      33.410 -24.000 -13.571  0.00  0.00    +0.051 C 
ATOM      3  C   UNL     1      34.325 -23.800 -15.797  0.00  0.00    +0.015 C 
ATOM      4  C   UNL     1      32.003 -23.272 -15.394  0.00  0.00    +0.034 C 
ATOM      5  C   UNL     1      32.167 -23.581 -14.043  0.00  0.00    +0.135 C 
ATOM      6  C   UNL     1      33.081 -23.382 -16.270  0.00  0.00    +0.004 C 
ENDROOT
BRANCH   4   7
ATOM      7  C   UNL     1      30.714 -22.833 -15.912  0.00  0.00    +0.005 C 
ATOM      8  C   UNL     1      29.646 -23.627 -16.154  0.00  0.00    +0.054 C 
ATOM      9  C   UNL     1      29.580 -25.104 -15.890  0.00  0.00    +0.038 C 
BRANCH   8  11
ATOM     10  O   UNL     1      28.098 -21.796 -16.464  0.00  0.00    -0.245 OA
ATOM     11  C   UNL     1      28.435 -22.947 -16.697  0.00  0.00    +0.334 C 
BRANCH  11  12
ATOM     12  O   UNL     1      27.741 -23.782 -17.506  0.00  0.00    -0.477 OA
ATOM     13  H   UNL     1      26.942 -23.494 -17.902  0.00  0.00    +0.295 HD
ENDBRANCH  11  12
ENDBRANCH   8  11
ENDBRANCH   4   7
BRANCH   5  14
ATOM     14  O   UNL     1      31.129 -23.484 -13.165  0.00  0.00    -0.505 OA
ATOM     15  H   UNL     1      30.255 -23.365 -13.483  0.00  0.00    +0.292 HD
ENDBRANCH   5  14
BRANCH   1  16
ATOM     16  N   UNL     1      35.747 -24.532 -13.970  0.00  0.00    -0.307 N 
BRANCH  16  17
ATOM     17  C   UNL     1      36.785 -24.940 -14.896  0.00  0.00    +0.091 C 
ATOM     18  C   UNL     1      36.759 -26.447 -15.077  0.00  0.00    +0.023 C 
ENDBRANCH  16  17
BRANCH  16  19
ATOM     19  C   UNL     1      36.023 -24.550 -12.547  0.00  0.00    +0.091 C 
ATOM     20  C   UNL     1      36.809 -23.315 -12.152  0.00  0.00    +0.023 C 
ENDBRANCH  16  19
ENDBRANCH   1  16
TORSDOF 7
ENDMDL
MODEL 5
REMARK VINA RESULT:      -7.8      3.686      7.809
REMARK  Name = 5288082
REMARK  7 active torsions:
REMARK  status: ('A' for Active; 'I' for Inactive)
REMARK    1  A    between atoms: C_1  and  N_16
REMARK    2  A    between atoms: C_4  and  C_7
REMARK    3  A    between atoms: C_5  and  O_14
REMARK    4  A    between atoms: C_8  and  C_11
REMARK    5  A    between atoms: C_11  and  O_12
REMARK    6  A    between atoms: N_16  and  C_17
REMARK    7  A    between atoms: N_16  and  C_19
REMARK                            x       y       z     vdW  Elec       q    Type
REMARK                         _______ _______ _______ _____ _____    ______ ____
ROOT
ATOM      1  C   UNL     1      34.598 -21.900 -18.622  0.00  0.00    +0.051 C 
ATOM      2  C   UNL     1      33.437 -21.451 -19.251  0.00  0.00    +0.051 C 
ATOM      3  C   UNL     1      35.847 -21.557 -19.138  0.00  0.00    +0.015 C 
ATOM      4  C   UNL     1      34.774 -20.316 -20.911  0.00  0.00    +0.034 C 
ATOM      5  C   UNL     1      33.525 -20.659 -20.395  0.00  0.00    +0.135 C 
ATOM      6  C   UNL     1      35.935 -20.766 -20.283  0.00  0.00    +0.004 C 
ENDROOT
BRANCH   4   7
ATOM      7  C   UNL     1      34.893 -19.491 -22.106  0.00  0.00    +0.005 C 
ATOM      8  C   UNL     1      34.966 -18.140 -22.129  0.00  0.00    +0.054 C 
ATOM      9  C   UNL     1      34.984 -17.246 -20.922  0.00  0.00    +0.038 C 
BRANCH   8  11
ATOM     10  O   UNL     1      34.632 -17.982 -24.518  0.00  0.00    -0.245 OA
ATOM     11  C   UNL     1      35.072 -17.514 -23.479  0.00  0.00    +0.334 C 
BRANCH  11  12
ATOM     12  O   UNL     1      35.726 -16.331 -23.407  0.00  0.00    -0.477 OA
ATOM     13  H   UNL     1      36.406 -16.134 -24.021  0.00  0.00    +0.295 HD
ENDBRANCH  11  12
ENDBRANCH   8  11
ENDBRANCH   4   7
BRANCH   5  14
ATOM     14  O   UNL     1      32.374 -20.234 -20.990  0.00  0.00    -0.505 OA
ATOM     15  H   UNL     1      32.397 -19.885 -21.860  0.00  0.00    +0.292 HD
ENDBRANCH   5  14
BRANCH   1  16
ATOM     16  N   UNL     1      34.509 -22.700 -17.464  0.00  0.00    -0.307 N 
BRANCH  16  17
ATOM     17  C   UNL     1      35.492 -22.574 -16.407  0.00  0.00    +0.091 C 
ATOM     18  C   UNL     1      35.706 -23.915 -15.730  0.00  0.00    +0.023 C 
ENDBRANCH  16  17
BRANCH  16  19
ATOM     19  C   UNL     1      33.424 -23.649 -17.310  0.00  0.00    +0.091 C 
ATOM     20  C   UNL     1      32.411 -23.125 -16.310  0.00  0.00    +0.023 C 
ENDBRANCH  16  19
ENDBRANCH   1  16
TORSDOF 7
ENDMDL
MODEL 6
REMARK VINA RESULT:      -7.7      3.265      7.296
REMARK  Name = 5288082
REMARK  7 active torsions:
REMARK  status: ('A' for Active; 'I' for Inactive)
REMARK    1  A    between atoms: C_1  and  N_16
REMARK    2  A    between atoms: C_4  and  C_7
REMARK    3  A    between atoms: C_5  and  O_14
REMARK    4  A    between atoms: C_8  and  C_11
REMARK    5  A    between atoms: C_11  and  O_12
REMARK    6  A    between atoms: N_16  and  C_17
REMARK    7  A    between atoms: N_16  and  C_19
REMARK                            x       y       z     vdW  Elec       q    Type
REMARK                         _______ _______ _______ _____ _____    ______ ____
ROOT
ATOM      1  C   UNL     1      34.853 -21.130 -19.528  0.00  0.00    +0.051 C 
ATOM      2  C   UNL     1      36.073 -20.581 -19.924  0.00  0.00    +0.051 C 
ATOM      3  C   UNL     1      33.665 -20.667 -20.091  0.00  0.00    +0.015 C 
ATOM      4  C   UNL     1      34.915 -19.107 -21.446  0.00  0.00    +0.034 C 
ATOM      5  C   UNL     1      36.104 -19.570 -20.883  0.00  0.00    +0.135 C 
ATOM      6  C   UNL     1      33.696 -19.655 -21.049  0.00  0.00    +0.004 C 
ENDROOT
BRANCH   4   7
ATOM      7  C   UNL     1      34.920 -18.051 -22.450  0.00  0.00    +0.005 C 
ATOM      8  C   UNL     1      34.916 -18.234 -23.790  0.00  0.00    +0.054 C 
ATOM      9  C   UNL     1      34.861 -19.562 -24.489  0.00  0.00    +0.038 C 
BRANCH   8  11
ATOM     10  O   UNL     1      34.546 -16.901 -25.774  0.00  0.00    -0.245 OA
ATOM     11  C   UNL     1      34.936 -16.994 -24.619  0.00  0.00    +0.334 C 
BRANCH  11  12
ATOM     12  O   UNL     1      35.446 -15.956 -23.915  0.00  0.00    -0.477 OA
ATOM     13  H   UNL     1      36.372 -15.823 -23.881  0.00  0.00    +0.295 HD
ENDBRANCH  11  12
ENDBRANCH   8  11
ENDBRANCH   4   7
BRANCH   5  14
ATOM     14  O   UNL     1      37.309 -19.050 -21.252  0.00  0.00    -0.505 OA
ATOM     15  H   UNL     1      37.816 -19.469 -21.920  0.00  0.00    +0.292 HD
ENDBRANCH   5  14
BRANCH   1  16
ATOM     16  N   UNL     1      34.823 -22.154 -18.558  0.00  0.00    -0.307 N 
BRANCH  16  17
ATOM     17  C   UNL     1      35.857 -22.236 -17.545  0.00  0.00    +0.091 C 
ATOM     18  C   UNL     1      35.335 -22.971 -16.325  0.00  0.00    +0.023 C 
ENDBRANCH  16  17
BRANCH  16  19
ATOM     19  C   UNL     1      33.748 -23.127 -18.551  0.00  0.00    +0.091 C 
ATOM     20  C   UNL     1      32.627 -22.661 -17.641  0.00  0.00    +0.023 C 
ENDBRANCH  16  19
ENDBRANCH   1  16
TORSDOF 7
ENDMDL
MODEL 7
REMARK VINA RESULT:      -7.6      4.526      6.679
REMARK  Name = 5288082
REMARK  7 active torsions:
REMARK  status: ('A' for Active; 'I' for Inactive)
REMARK    1  A    between atoms: C_1  and  N_16
REMARK    2  A    between atoms: C_4  and  C_7
REMARK    3  A    between atoms: C_5  and  O_14
REMARK    4  A    between atoms: C_8  and  C_11
REMARK    5  A    between atoms: C_11  and  O_12
REMARK    6  A    between atoms: N_16  and  C_17
REMARK    7  A    between atoms: N_16  and  C_19
REMARK                            x       y       z     vdW  Elec       q    Type
REMARK                         _______ _______ _______ _____ _____    ______ ____
ROOT
ATOM      1  C   UNL     1      32.680 -10.190 -23.194  0.00  0.00    +0.051 C 
ATOM      2  C   UNL     1      32.078 -11.246 -22.508  0.00  0.00    +0.051 C 
ATOM      3  C   UNL     1      33.683 -10.448 -24.127  0.00  0.00    +0.015 C 
ATOM      4  C   UNL     1      33.483 -12.815 -23.691  0.00  0.00    +0.034 C 
ATOM      5  C   UNL     1      32.479 -12.558 -22.757  0.00  0.00    +0.135 C 
ATOM      6  C   UNL     1      34.085 -11.759 -24.376  0.00  0.00    +0.004 C 
ENDROOT
BRANCH   4   7
ATOM      7  C   UNL     1      33.920 -14.176 -23.969  0.00  0.00    +0.005 C 
ATOM      8  C   UNL     1      33.575 -14.912 -25.050  0.00  0.00    +0.054 C 
ATOM      9  C   UNL     1      32.712 -14.443 -26.186  0.00  0.00    +0.038 C 
BRANCH   8  11
ATOM     10  O   UNL     1      33.706 -17.213 -25.785  0.00  0.00    -0.245 OA
ATOM     11  C   UNL     1      34.140 -16.291 -25.110  0.00  0.00    +0.334 C 
BRANCH  11  12
ATOM     12  O   UNL     1      35.226 -16.398 -24.308  0.00  0.00    -0.477 OA
ATOM     13  H   UNL     1      35.778 -15.655 -24.164  0.00  0.00    +0.295 HD
ENDBRANCH  11  12
ENDBRANCH   8  11
ENDBRANCH   4   7
BRANCH   5  14
ATOM     14  O   UNL     1      31.875 -13.571 -22.073  0.00  0.00    -0.505 OA
ATOM     15  H   UNL     1      32.393 -14.251 -21.688  0.00  0.00    +0.292 HD
ENDBRANCH   5  14
BRANCH   1  16
ATOM     16  N   UNL     1      32.274  -8.864 -22.942  0.00  0.00    -0.307 N 
BRANCH  16  17
ATOM     17  C   UNL     1      31.013  -8.372 -23.459  0.00  0.00    +0.091 C 
ATOM     18  C   UNL     1      31.231  -7.076 -24.218  0.00  0.00    +0.023 C 
ENDBRANCH  16  17
BRANCH  16  19
ATOM     19  C   UNL     1      33.105  -7.979 -22.148  0.00  0.00    +0.091 C 
ATOM     20  C   UNL     1      32.615  -7.950 -20.714  0.00  0.00    +0.023 C 
ENDBRANCH  16  19
ENDBRANCH   1  16
TORSDOF 7
ENDMDL
MODEL 8
REMARK VINA RESULT:      -7.6      3.166      6.836
REMARK  Name = 5288082
REMARK  7 active torsions:
REMARK  status: ('A' for Active; 'I' for Inactive)
REMARK    1  A    between atoms: C_1  and  N_16
REMARK    2  A    between atoms: C_4  and  C_7
REMARK    3  A    between atoms: C_5  and  O_14
REMARK    4  A    between atoms: C_8  and  C_11
REMARK    5  A    between atoms: C_11  and  O_12
REMARK    6  A    between atoms: N_16  and  C_17
REMARK    7  A    between atoms: N_16  and  C_19
REMARK                            x       y       z     vdW  Elec       q    Type
REMARK                         _______ _______ _______ _____ _____    ______ ____
ROOT
ATOM      1  C   UNL     1      35.053 -18.791 -21.440  0.00  0.00    +0.051 C 
ATOM      2  C   UNL     1      34.874 -18.890 -22.820  0.00  0.00    +0.051 C 
ATOM      3  C   UNL     1      35.083 -17.538 -20.829  0.00  0.00    +0.015 C 
ATOM      4  C   UNL     1      34.756 -16.482 -22.976  0.00  0.00    +0.034 C 
ATOM      5  C   UNL     1      34.726 -17.735 -23.588  0.00  0.00    +0.135 C 
ATOM      6  C   UNL     1      34.935 -16.384 -21.597  0.00  0.00    +0.004 C 
ENDROOT
BRANCH   4   7
ATOM      7  C   UNL     1      34.603 -15.261 -23.756  0.00  0.00    +0.005 C 
ATOM      8  C   UNL     1      33.669 -14.304 -23.552  0.00  0.00    +0.054 C 
ATOM      9  C   UNL     1      32.645 -14.305 -22.455  0.00  0.00    +0.038 C 
BRANCH   8  11
ATOM     10  O   UNL     1      33.364 -13.169 -25.665  0.00  0.00    -0.245 OA
ATOM     11  C   UNL     1      33.704 -13.146 -24.492  0.00  0.00    +0.334 C 
BRANCH  11  12
ATOM     12  O   UNL     1      34.165 -12.037 -23.866  0.00  0.00    -0.477 OA
ATOM     13  H   UNL     1      33.684 -11.235 -23.920  0.00  0.00    +0.295 HD
ENDBRANCH  11  12
ENDBRANCH   8  11
ENDBRANCH   4   7
BRANCH   5  14
ATOM     14  O   UNL     1      34.554 -17.859 -24.935  0.00  0.00    -0.505 OA
ATOM     15  H   UNL     1      33.845 -18.372 -25.272  0.00  0.00    +0.292 HD
ENDBRANCH   5  14
BRANCH   1  16
ATOM     16  N   UNL     1      35.203 -19.959 -20.664  0.00  0.00    -0.307 N 
BRANCH  16  17
ATOM     17  C   UNL     1      36.519 -20.398 -20.246  0.00  0.00    +0.091 C 
ATOM     18  C   UNL     1      36.402 -21.362 -19.080  0.00  0.00    +0.023 C 
ENDBRANCH  16  17
BRANCH  16  19
ATOM     19  C   UNL     1      34.041 -20.727 -20.260  0.00  0.00    +0.091 C 
ATOM     20  C   UNL     1      32.773 -19.945 -20.546  0.00  0.00    +0.023 C 
ENDBRANCH  16  19
ENDBRANCH   1  16
TORSDOF 7
ENDMDL
MODEL 9
REMARK VINA RESULT:      -7.6      4.521      6.783
REMARK  Name = 5288082
REMARK  7 active torsions:
REMARK  status: ('A' for Active; 'I' for Inactive)
REMARK    1  A    between atoms: C_1  and  N_16
REMARK    2  A    between atoms: C_4  and  C_7
REMARK    3  A    between atoms: C_5  and  O_14
REMARK    4  A    between atoms: C_8  and  C_11
REMARK    5  A    between atoms: C_11  and  O_12
REMARK    6  A    between atoms: N_16  and  C_17
REMARK    7  A    between atoms: N_16  and  C_19
REMARK                            x       y       z     vdW  Elec       q    Type
REMARK                         _______ _______ _______ _____ _____    ______ ____
ROOT
ATOM      1  C   UNL     1      32.684 -10.217 -23.166  0.00  0.00    +0.051 C 
ATOM      2  C   UNL     1      32.089 -11.289 -22.500  0.00  0.00    +0.051 C 
ATOM      3  C   UNL     1      33.698 -10.449 -24.095  0.00  0.00    +0.015 C 
ATOM      4  C   UNL     1      33.523 -12.824 -23.692  0.00  0.00    +0.034 C 
ATOM      5  C   UNL     1      32.508 -12.592 -22.764  0.00  0.00    +0.135 C 
ATOM      6  C   UNL     1      34.118 -11.753 -24.357  0.00  0.00    +0.004 C 
ENDROOT
BRANCH   4   7
ATOM      7  C   UNL     1      33.979 -14.177 -23.985  0.00  0.00    +0.005 C 
ATOM      8  C   UNL     1      33.609 -14.922 -25.051  0.00  0.00    +0.054 C 
ATOM      9  C   UNL     1      32.694 -14.474 -26.154  0.00  0.00    +0.038 C 
BRANCH   8  11
ATOM     10  O   UNL     1      33.819 -17.192 -25.860  0.00  0.00    -0.245 OA
ATOM     11  C   UNL     1      34.202 -16.289 -25.130  0.00  0.00    +0.334 C 
BRANCH  11  12
ATOM     12  O   UNL     1      35.247 -16.407 -24.277  0.00  0.00    -0.477 OA
ATOM     13  H   UNL     1      35.142 -16.869 -23.469  0.00  0.00    +0.295 HD
ENDBRANCH  11  12
ENDBRANCH   8  11
ENDBRANCH   4   7
BRANCH   5  14
ATOM     14  O   UNL     1      31.910 -13.621 -22.099  0.00  0.00    -0.505 OA
ATOM     15  H   UNL     1      32.273 -14.484 -22.146  0.00  0.00    +0.292 HD
ENDBRANCH   5  14
BRANCH   1  16
ATOM     16  N   UNL     1      32.260  -8.898 -22.900  0.00  0.00    -0.307 N 
BRANCH  16  17
ATOM     17  C   UNL     1      33.076  -8.015 -22.091  0.00  0.00    +0.091 C 
ATOM     18  C   UNL     1      32.628  -8.073 -20.642  0.00  0.00    +0.023 C 
ENDBRANCH  16  17
BRANCH  16  19
ATOM     19  C   UNL     1      31.011  -8.405 -23.446  0.00  0.00    +0.091 C 
ATOM     20  C   UNL     1      31.212  -7.028 -24.049  0.00  0.00    +0.023 C 
ENDBRANCH  16  19
ENDBRANCH   1  16
TORSDOF 7
ENDMDL
