MODEL 1
REMARK VINA RESULT:     -10.2      0.000      0.000
REMARK  Name = 5282459
REMARK  7 active torsions:
REMARK  status: ('A' for Active; 'I' for Inactive)
REMARK    1  A    between atoms: N_2  and  C_24
REMARK    2  A    between atoms: C_8  and  C_10
REMARK    3  A    between atoms: C_11  and  C_12
REMARK    4  A    between atoms: C_15  and  O_18
REMARK    5  A    between atoms: C_16  and  O_20
REMARK    6  A    between atoms: C_17  and  O_22
REMARK    7  A    between atoms: C_24  and  C_31
REMARK                            x       y       z     vdW  Elec       q    Type
REMARK                         _______ _______ _______ _____ _____    ______ ____
ROOT
ATOM      1  O   UNL     1      33.660 -15.245 -25.334  0.00  0.00    -0.270 OA
ATOM      2  N   UNL     1      34.862 -18.705 -21.986  0.00  0.00    +0.395 N 
ATOM      3  N   UNL     1      34.357 -16.234 -23.349  0.00  0.00    -0.280 N 
ATOM      4  C   UNL     1      34.639 -18.684 -23.439  0.00  0.00    -0.055 C 
ATOM      5  C   UNL     1      34.104 -17.630 -21.329  0.00  0.00    -0.055 C 
ATOM      6  C   UNL     1      35.042 -17.333 -24.032  0.00  0.00    +0.071 C 
ATOM      7  C   UNL     1      34.504 -16.264 -21.889  0.00  0.00    +0.071 C 
ATOM      8  C   UNL     1      33.763 -15.228 -24.105  0.00  0.00    +0.249 C 
ATOM      9  H   UNL     1      35.855 -18.550 -21.811  0.00  0.00    -0.079 HD
ENDROOT
BRANCH   8  10
ATOM     10  C   UNL     1      33.217 -14.057 -23.392  0.00  0.00    +0.058 C 
ATOM     11  C   UNL     1      33.473 -12.837 -23.883  0.00  0.00    +0.005 C 
BRANCH  11  12
ATOM     12  C   UNL     1      33.009 -11.575 -23.282  0.00  0.00    +0.006 C 
ATOM     13  C   UNL     1      33.450 -10.354 -23.795  0.00  0.00    +0.040 C 
ATOM     14  C   UNL     1      32.128 -11.599 -22.202  0.00  0.00    +0.040 C 
ATOM     15  C   UNL     1      31.689 -10.404 -21.632  0.00  0.00    +0.175 C 
ATOM     16  C   UNL     1      33.010  -9.159 -23.226  0.00  0.00    +0.175 C 
ATOM     17  C   UNL     1      32.129  -9.184 -22.145  0.00  0.00    +0.206 C 
BRANCH  15  18
ATOM     18  O   UNL     1      30.827 -10.441 -20.577  0.00  0.00    -0.468 OA
ATOM     19  C   UNL     1      31.376 -10.784 -19.306  0.00  0.00    +0.253 C 
ENDBRANCH  15  18
BRANCH  16  20
ATOM     20  O   UNL     1      33.449  -7.974 -23.736  0.00  0.00    -0.468 OA
ATOM     21  C   UNL     1      34.812  -7.630 -23.498  0.00  0.00    +0.253 C 
ENDBRANCH  16  20
BRANCH  17  22
ATOM     22  O   UNL     1      31.699  -8.016 -21.590  0.00  0.00    -0.465 OA
ATOM     23  C   UNL     1      32.489  -7.471 -20.534  0.00  0.00    +0.253 C 
ENDBRANCH  17  22
ENDBRANCH  11  12
ENDBRANCH   8  10
BRANCH   2  24
ATOM     24  C   UNL     1      34.496 -20.007 -21.429  0.00  0.00    +0.010 C 
BRANCH  24  31
ATOM     25  O   UNL     1      36.633 -19.804 -20.398  0.00  0.00    -0.277 OA
ATOM     26  N   UNL     1      35.136 -21.282 -19.442  0.00  0.00    -0.281 N 
ATOM     27  C   UNL     1      36.015 -21.717 -18.367  0.00  0.00    +0.093 C 
ATOM     28  C   UNL     1      33.844 -21.956 -19.367  0.00  0.00    +0.093 C 
ATOM     29  C   UNL     1      35.104 -22.471 -17.411  0.00  0.00    +0.023 C 
ATOM     30  C   UNL     1      34.052 -23.062 -18.341  0.00  0.00    +0.023 C 
ATOM     31  C   UNL     1      35.526 -20.345 -20.381  0.00  0.00    +0.205 C 
ENDBRANCH  24  31
ENDBRANCH   2  24
TORSDOF 7
ENDMDL
MODEL 2
REMARK VINA RESULT:     -10.2      0.444      2.272
REMARK  Name = 5282459
REMARK  7 active torsions:
REMARK  status: ('A' for Active; 'I' for Inactive)
REMARK    1  A    between atoms: N_2  and  C_24
REMARK    2  A    between atoms: C_8  and  C_10
REMARK    3  A    between atoms: C_11  and  C_12
REMARK    4  A    between atoms: C_15  and  O_18
REMARK    5  A    between atoms: C_16  and  O_20
REMARK    6  A    between atoms: C_17  and  O_22
REMARK    7  A    between atoms: C_24  and  C_31
REMARK                            x       y       z     vdW  Elec       q    Type
REMARK                         _______ _______ _______ _____ _____    ______ ____
ROOT
ATOM      1  O   UNL     1      33.429 -15.051 -25.707  0.00  0.00    -0.270 OA
ATOM      2  N   UNL     1      34.879 -18.329 -22.274  0.00  0.00    +0.395 N 
ATOM      3  N   UNL     1      34.206 -15.936 -23.703  0.00  0.00    -0.280 N 
ATOM      4  C   UNL     1      34.641 -18.365 -23.725  0.00  0.00    -0.055 C 
ATOM      5  C   UNL     1      34.061 -17.284 -21.640  0.00  0.00    -0.055 C 
ATOM      6  C   UNL     1      34.952 -17.009 -24.362  0.00  0.00    +0.071 C 
ATOM      7  C   UNL     1      34.369 -15.913 -22.244  0.00  0.00    +0.071 C 
ATOM      8  C   UNL     1      33.542 -14.992 -24.481  0.00  0.00    +0.249 C 
ATOM      9  H   UNL     1      35.862 -18.106 -22.116  0.00  0.00    -0.079 HD
ENDROOT
BRANCH   8  10
ATOM     10  C   UNL     1      32.931 -13.836 -23.796  0.00  0.00    +0.058 C 
ATOM     11  C   UNL     1      33.539 -12.647 -23.889  0.00  0.00    +0.005 C 
BRANCH  11  12
ATOM     12  C   UNL     1      33.059 -11.406 -23.257  0.00  0.00    +0.006 C 
ATOM     13  C   UNL     1      32.188 -11.469 -22.168  0.00  0.00    +0.040 C 
ATOM     14  C   UNL     1      33.475 -10.167 -23.745  0.00  0.00    +0.040 C 
ATOM     15  C   UNL     1      33.021  -8.993 -23.146  0.00  0.00    +0.175 C 
ATOM     16  C   UNL     1      31.734 -10.294 -21.569  0.00  0.00    +0.175 C 
ATOM     17  C   UNL     1      32.151  -9.056 -22.059  0.00  0.00    +0.206 C 
BRANCH  15  18
ATOM     18  O   UNL     1      33.435  -7.789 -23.633  0.00  0.00    -0.468 OA
ATOM     19  C   UNL     1      34.821  -7.481 -23.503  0.00  0.00    +0.253 C 
ENDBRANCH  15  18
BRANCH  16  20
ATOM     20  O   UNL     1      30.884 -10.370 -20.507  0.00  0.00    -0.468 OA
ATOM     21  C   UNL     1      31.438 -10.797 -19.264  0.00  0.00    +0.253 C 
ENDBRANCH  16  20
BRANCH  17  22
ATOM     22  O   UNL     1      31.707  -7.908 -21.472  0.00  0.00    -0.465 OA
ATOM     23  C   UNL     1      32.488  -7.386 -20.399  0.00  0.00    +0.253 C 
ENDBRANCH  17  22
ENDBRANCH  11  12
ENDBRANCH   8  10
BRANCH   2  24
ATOM     24  C   UNL     1      34.602 -19.634 -21.675  0.00  0.00    +0.010 C 
BRANCH  24  31
ATOM     25  O   UNL     1      36.843 -19.399 -20.908  0.00  0.00    -0.277 OA
ATOM     26  N   UNL     1      35.490 -20.888 -19.773  0.00  0.00    -0.281 N 
ATOM     27  C   UNL     1      36.497 -21.306 -18.809  0.00  0.00    +0.093 C 
ATOM     28  C   UNL     1      34.225 -21.577 -19.540  0.00  0.00    +0.093 C 
ATOM     29  C   UNL     1      35.716 -22.064 -17.747  0.00  0.00    +0.023 C 
ATOM     30  C   UNL     1      34.568 -22.674 -18.542  0.00  0.00    +0.023 C 
ATOM     31  C   UNL     1      35.754 -19.953 -20.756  0.00  0.00    +0.205 C 
ENDBRANCH  24  31
ENDBRANCH   2  24
TORSDOF 7
ENDMDL
MODEL 3
REMARK VINA RESULT:      -9.7      4.297     11.953
REMARK  Name = 5282459
REMARK  7 active torsions:
REMARK  status: ('A' for Active; 'I' for Inactive)
REMARK    1  A    between atoms: N_2  and  C_24
REMARK    2  A    between atoms: C_8  and  C_10
REMARK    3  A    between atoms: C_11  and  C_12
REMARK    4  A    between atoms: C_15  and  O_18
REMARK    5  A    between atoms: C_16  and  O_20
REMARK    6  A    between atoms: C_17  and  O_22
REMARK    7  A    between atoms: C_24  and  C_31
REMARK                            x       y       z     vdW  Elec       q    Type
REMARK                         _______ _______ _______ _____ _____    ______ ____
ROOT
ATOM      1  O   UNL     1      36.821 -21.707 -18.820  0.00  0.00    -0.270 OA
ATOM      2  N   UNL     1      34.805 -18.470 -21.997  0.00  0.00    +0.395 N 
ATOM      3  N   UNL     1      35.299 -20.694 -20.257  0.00  0.00    -0.280 N 
ATOM      4  C   UNL     1      36.158 -18.735 -21.486  0.00  0.00    -0.055 C 
ATOM      5  C   UNL     1      33.790 -18.897 -21.022  0.00  0.00    -0.055 C 
ATOM      6  C   UNL     1      36.340 -20.221 -21.171  0.00  0.00    +0.071 C 
ATOM      7  C   UNL     1      33.936 -20.386 -20.705  0.00  0.00    +0.071 C 
ATOM      8  C   UNL     1      35.659 -21.473 -19.161  0.00  0.00    +0.249 C 
ATOM      9  H   UNL     1      34.674 -19.009 -22.853  0.00  0.00    -0.079 HD
ENDROOT
BRANCH   8  10
ATOM     10  C   UNL     1      34.579 -22.066 -18.348  0.00  0.00    +0.058 C 
ATOM     11  C   UNL     1      34.885 -22.544 -17.135  0.00  0.00    +0.005 C 
BRANCH  11  12
ATOM     12  C   UNL     1      33.924 -23.171 -16.212  0.00  0.00    +0.006 C 
ATOM     13  C   UNL     1      32.600 -23.367 -16.610  0.00  0.00    +0.040 C 
ATOM     14  C   UNL     1      34.335 -23.570 -14.940  0.00  0.00    +0.040 C 
ATOM     15  C   UNL     1      33.425 -24.163 -14.066  0.00  0.00    +0.175 C 
ATOM     16  C   UNL     1      31.690 -23.961 -15.736  0.00  0.00    +0.175 C 
ATOM     17  C   UNL     1      32.103 -24.359 -14.464  0.00  0.00    +0.206 C 
BRANCH  15  18
ATOM     18  O   UNL     1      33.840 -24.548 -12.827  0.00  0.00    -0.468 OA
ATOM     19  C   UNL     1      35.145 -24.139 -12.424  0.00  0.00    +0.253 C 
ENDBRANCH  15  18
BRANCH  16  20
ATOM     20  O   UNL     1      30.402 -24.147 -16.137  0.00  0.00    -0.468 OA
ATOM     21  C   UNL     1      29.602 -22.979 -16.312  0.00  0.00    +0.253 C 
ENDBRANCH  16  20
BRANCH  17  22
ATOM     22  O   UNL     1      31.212 -24.940 -13.611  0.00  0.00    -0.465 OA
ATOM     23  C   UNL     1      30.395 -24.067 -12.834  0.00  0.00    +0.253 C 
ENDBRANCH  17  22
ENDBRANCH  11  12
ENDBRANCH   8  10
BRANCH   2  24
ATOM     24  C   UNL     1      34.645 -17.052 -22.317  0.00  0.00    +0.010 C 
BRANCH  24  31
ATOM     25  O   UNL     1      34.778 -17.895 -24.540  0.00  0.00    -0.277 OA
ATOM     26  N   UNL     1      33.931 -15.763 -24.269  0.00  0.00    -0.281 N 
ATOM     27  C   UNL     1      33.693 -15.511 -25.683  0.00  0.00    +0.093 C 
ATOM     28  C   UNL     1      33.535 -14.615 -23.460  0.00  0.00    +0.093 C 
ATOM     29  C   UNL     1      32.827 -14.261 -25.707  0.00  0.00    +0.023 C 
ATOM     30  C   UNL     1      33.292 -13.503 -24.470  0.00  0.00    +0.023 C 
ATOM     31  C   UNL     1      34.461 -16.955 -23.811  0.00  0.00    +0.205 C 
ENDBRANCH  24  31
ENDBRANCH   2  24
TORSDOF 7
ENDMDL
MODEL 4
REMARK VINA RESULT:      -9.6      4.306     11.966
REMARK  Name = 5282459
REMARK  7 active torsions:
REMARK  status: ('A' for Active; 'I' for Inactive)
REMARK    1  A    between atoms: N_2  and  C_24
REMARK    2  A    between atoms: C_8  and  C_10
REMARK    3  A    between atoms: C_11  and  C_12
REMARK    4  A    between atoms: C_15  and  O_18
REMARK    5  A    between atoms: C_16  and  O_20
REMARK    6  A    between atoms: C_17  and  O_22
REMARK    7  A    between atoms: C_24  and  C_31
REMARK                            x       y       z     vdW  Elec       q    Type
REMARK                         _______ _______ _______ _____ _____    ______ ____
ROOT
ATOM      1  O   UNL     1      36.823 -21.700 -18.772  0.00  0.00    -0.270 OA
ATOM      2  N   UNL     1      34.840 -18.477 -21.982  0.00  0.00    +0.395 N 
ATOM      3  N   UNL     1      35.319 -20.697 -20.233  0.00  0.00    -0.280 N 
ATOM      4  C   UNL     1      36.186 -18.734 -21.451  0.00  0.00    -0.055 C 
ATOM      5  C   UNL     1      33.812 -18.909 -21.024  0.00  0.00    -0.055 C 
ATOM      6  C   UNL     1      36.371 -20.218 -21.131  0.00  0.00    +0.071 C 
ATOM      7  C   UNL     1      33.961 -20.397 -20.703  0.00  0.00    +0.071 C 
ATOM      8  C   UNL     1      35.665 -21.473 -19.131  0.00  0.00    +0.249 C 
ATOM      9  H   UNL     1      34.725 -19.017 -22.840  0.00  0.00    -0.079 HD
ENDROOT
BRANCH   8  10
ATOM     10  C   UNL     1      34.576 -22.072 -18.335  0.00  0.00    +0.058 C 
ATOM     11  C   UNL     1      34.864 -22.538 -17.113  0.00  0.00    +0.005 C 
BRANCH  11  12
ATOM     12  C   UNL     1      33.891 -23.170 -16.204  0.00  0.00    +0.006 C 
ATOM     13  C   UNL     1      34.289 -23.580 -14.931  0.00  0.00    +0.040 C 
ATOM     14  C   UNL     1      32.572 -23.358 -16.616  0.00  0.00    +0.040 C 
ATOM     15  C   UNL     1      31.651 -23.956 -15.756  0.00  0.00    +0.175 C 
ATOM     16  C   UNL     1      33.368 -24.177 -14.070  0.00  0.00    +0.175 C 
ATOM     17  C   UNL     1      32.049 -24.365 -14.484  0.00  0.00    +0.206 C 
BRANCH  15  18
ATOM     18  O   UNL     1      30.365 -24.134 -16.170  0.00  0.00    -0.468 OA
ATOM     19  C   UNL     1      29.568 -22.962 -16.329  0.00  0.00    +0.253 C 
ENDBRANCH  15  18
BRANCH  16  20
ATOM     20  O   UNL     1      33.770 -24.572 -12.830  0.00  0.00    -0.468 OA
ATOM     21  C   UNL     1      35.072 -24.166 -12.411  0.00  0.00    +0.253 C 
ENDBRANCH  16  20
BRANCH  17  22
ATOM     22  O   UNL     1      31.150 -24.949 -13.642  0.00  0.00    -0.465 OA
ATOM     23  C   UNL     1      30.401 -24.082 -12.792  0.00  0.00    +0.253 C 
ENDBRANCH  17  22
ENDBRANCH  11  12
ENDBRANCH   8  10
BRANCH   2  24
ATOM     24  C   UNL     1      34.677 -17.060 -22.307  0.00  0.00    +0.010 C 
BRANCH  24  31
ATOM     25  O   UNL     1      34.812 -17.904 -24.529  0.00  0.00    -0.277 OA
ATOM     26  N   UNL     1      33.933 -15.785 -24.257  0.00  0.00    -0.281 N 
ATOM     27  C   UNL     1      33.685 -15.539 -25.670  0.00  0.00    +0.093 C 
ATOM     28  C   UNL     1      33.524 -14.642 -23.447  0.00  0.00    +0.093 C 
ATOM     29  C   UNL     1      32.800 -14.302 -25.691  0.00  0.00    +0.023 C 
ATOM     30  C   UNL     1      33.260 -13.535 -24.458  0.00  0.00    +0.023 C 
ATOM     31  C   UNL     1      34.484 -16.968 -23.800  0.00  0.00    +0.205 C 
ENDBRANCH  24  31
ENDBRANCH   2  24
TORSDOF 7
ENDMDL
MODEL 5
REMARK VINA RESULT:      -9.3      4.201      7.842
REMARK  Name = 5282459
REMARK  7 active torsions:
REMARK  status: ('A' for Active; 'I' for Inactive)
REMARK    1  A    between atoms: N_2  and  C_24
REMARK    2  A    between atoms: C_8  and  C_10
REMARK    3  A    between atoms: C_11  and  C_12
REMARK    4  A    between atoms: C_15  and  O_18
REMARK    5  A    between atoms: C_16  and  O_20
REMARK    6  A    between atoms: C_17  and  O_22
REMARK    7  A    between atoms: C_24  and  C_31
REMARK                            x       y       z     vdW  Elec       q    Type
REMARK                         _______ _______ _______ _____ _____    ______ ____
ROOT
ATOM      1  O   UNL     1      32.206 -21.830 -18.922  0.00  0.00    -0.270 OA
ATOM      2  N   UNL     1      36.519 -22.653 -16.609  0.00  0.00    +0.395 N 
ATOM      3  N   UNL     1      34.474 -22.193 -18.565  0.00  0.00    -0.280 N 
ATOM      4  C   UNL     1      35.098 -22.739 -16.241  0.00  0.00    -0.055 C 
ATOM      5  C   UNL     1      36.718 -21.667 -17.682  0.00  0.00    -0.055 C 
ATOM      6  C   UNL     1      34.243 -23.116 -17.452  0.00  0.00    +0.071 C 
ATOM      7  C   UNL     1      35.890 -22.033 -18.915  0.00  0.00    +0.071 C 
ATOM      8  C   UNL     1      33.383 -21.670 -19.253  0.00  0.00    +0.249 C 
ATOM      9  H   UNL     1      36.817 -23.566 -16.954  0.00  0.00    -0.079 HD
ENDROOT
BRANCH   8  10
ATOM     10  C   UNL     1      33.646 -20.870 -20.464  0.00  0.00    +0.058 C 
ATOM     11  C   UNL     1      33.910 -19.565 -20.320  0.00  0.00    +0.005 C 
BRANCH  11  12
ATOM     12  C   UNL     1      34.182 -18.635 -21.430  0.00  0.00    +0.006 C 
ATOM     13  C   UNL     1      34.386 -19.128 -22.720  0.00  0.00    +0.040 C 
ATOM     14  C   UNL     1      34.236 -17.262 -21.193  0.00  0.00    +0.040 C 
ATOM     15  C   UNL     1      34.495 -16.382 -22.243  0.00  0.00    +0.175 C 
ATOM     16  C   UNL     1      34.644 -18.248 -23.771  0.00  0.00    +0.175 C 
ATOM     17  C   UNL     1      34.698 -16.875 -23.531  0.00  0.00    +0.206 C 
BRANCH  15  18
ATOM     18  O   UNL     1      34.545 -15.042 -21.998  0.00  0.00    -0.468 OA
ATOM     19  C   UNL     1      33.341 -14.420 -21.555  0.00  0.00    +0.253 C 
ENDBRANCH  15  18
BRANCH  16  20
ATOM     20  O   UNL     1      34.840 -18.743 -25.024  0.00  0.00    -0.468 OA
ATOM     21  C   UNL     1      34.871 -20.162 -25.164  0.00  0.00    +0.253 C 
ENDBRANCH  16  20
BRANCH  17  22
ATOM     22  O   UNL     1      34.950 -16.015 -24.559  0.00  0.00    -0.465 OA
ATOM     23  C   UNL     1      33.828 -15.565 -25.316  0.00  0.00    +0.253 C 
ENDBRANCH  17  22
ENDBRANCH  11  12
ENDBRANCH   8  10
BRANCH   2  24
ATOM     24  C   UNL     1      37.333 -22.314 -15.443  0.00  0.00    +0.010 C 
BRANCH  24  31
ATOM     25  O   UNL     1      39.107 -23.871 -15.756  0.00  0.00    -0.277 OA
ATOM     26  N   UNL     1      37.671 -24.250 -13.986  0.00  0.00    -0.281 N 
ATOM     27  C   UNL     1      38.326 -25.461 -13.514  0.00  0.00    +0.093 C 
ATOM     28  C   UNL     1      36.521 -23.918 -13.152  0.00  0.00    +0.093 C 
ATOM     29  C   UNL     1      37.722 -25.710 -12.141  0.00  0.00    +0.023 C 
ATOM     30  C   UNL     1      36.312 -25.152 -12.285  0.00  0.00    +0.023 C 
ATOM     31  C   UNL     1      38.127 -23.545 -15.085  0.00  0.00    +0.205 C 
ENDBRANCH  24  31
ENDBRANCH   2  24
TORSDOF 7
ENDMDL
MODEL 6
REMARK VINA RESULT:      -9.2      3.614      7.186
REMARK  Name = 5282459
REMARK  7 active torsions:
REMARK  status: ('A' for Active; 'I' for Inactive)
REMARK    1  A    between atoms: N_2  and  C_24
REMARK    2  A    between atoms: C_8  and  C_10
REMARK    3  A    between atoms: C_11  and  C_12
REMARK    4  A    between atoms: C_15  and  O_18
REMARK    5  A    between atoms: C_16  and  O_20
REMARK    6  A    between atoms: C_17  and  O_22
REMARK    7  A    between atoms: C_24  and  C_31
REMARK                            x       y       z     vdW  Elec       q    Type
REMARK                         _______ _______ _______ _____ _____    ______ ____
ROOT
ATOM      1  O   UNL     1      32.744 -21.617 -19.792  0.00  0.00    -0.270 OA
ATOM      2  N   UNL     1      36.560 -22.495 -16.743  0.00  0.00    +0.395 N 
ATOM      3  N   UNL     1      34.918 -21.804 -18.989  0.00  0.00    -0.280 N 
ATOM      4  C   UNL     1      35.127 -22.823 -16.751  0.00  0.00    -0.055 C 
ATOM      5  C   UNL     1      36.815 -21.263 -17.506  0.00  0.00    -0.055 C 
ATOM      6  C   UNL     1      34.614 -22.988 -18.183  0.00  0.00    +0.071 C 
ATOM      7  C   UNL     1      36.331 -21.409 -18.949  0.00  0.00    +0.071 C 
ATOM      8  C   UNL     1      33.923 -21.254 -19.792  0.00  0.00    +0.249 C 
ATOM      9  H   UNL     1      37.067 -23.259 -17.191  0.00  0.00    -0.079 HD
ENDROOT
BRANCH   8  10
ATOM     10  C   UNL     1      34.298 -20.160 -20.709  0.00  0.00    +0.058 C 
ATOM     11  C   UNL     1      33.724 -18.962 -20.539  0.00  0.00    +0.005 C 
BRANCH  11  12
ATOM     12  C   UNL     1      33.987 -17.779 -21.377  0.00  0.00    +0.006 C 
ATOM     13  C   UNL     1      33.830 -16.498 -20.844  0.00  0.00    +0.040 C 
ATOM     14  C   UNL     1      34.392 -17.937 -22.702  0.00  0.00    +0.040 C 
ATOM     15  C   UNL     1      34.639 -16.817 -23.495  0.00  0.00    +0.175 C 
ATOM     16  C   UNL     1      34.079 -15.378 -21.637  0.00  0.00    +0.175 C 
ATOM     17  C   UNL     1      34.483 -15.538 -22.962  0.00  0.00    +0.206 C 
BRANCH  15  18
ATOM     18  O   UNL     1      35.035 -16.986 -24.788  0.00  0.00    -0.468 OA
ATOM     19  C   UNL     1      34.592 -18.167 -25.451  0.00  0.00    +0.253 C 
ENDBRANCH  15  18
BRANCH  16  20
ATOM     20  O   UNL     1      33.922 -14.134 -21.104  0.00  0.00    -0.468 OA
ATOM     21  C   UNL     1      32.586 -13.688 -20.880  0.00  0.00    +0.253 C 
ENDBRANCH  16  20
BRANCH  17  22
ATOM     22  O   UNL     1      34.727 -14.442 -23.736  0.00  0.00    -0.465 OA
ATOM     23  C   UNL     1      33.620 -13.897 -24.452  0.00  0.00    +0.253 C 
ENDBRANCH  17  22
ENDBRANCH  11  12
ENDBRANCH   8  10
BRANCH   2  24
ATOM     24  C   UNL     1      37.049 -22.361 -15.372  0.00  0.00    +0.010 C 
BRANCH  24  31
ATOM     25  O   UNL     1      38.964 -23.689 -15.862  0.00  0.00    -0.277 OA
ATOM     26  N   UNL     1      37.682 -24.315 -14.045  0.00  0.00    -0.281 N 
ATOM     27  C   UNL     1      38.492 -25.467 -13.675  0.00  0.00    +0.093 C 
ATOM     28  C   UNL     1      36.552 -24.158 -13.135  0.00  0.00    +0.093 C 
ATOM     29  C   UNL     1      37.999 -25.850 -12.288  0.00  0.00    +0.023 C 
ATOM     30  C   UNL     1      36.530 -25.449 -12.329  0.00  0.00    +0.023 C 
ATOM     31  C   UNL     1      37.993 -23.510 -15.125  0.00  0.00    +0.205 C 
ENDBRANCH  24  31
ENDBRANCH   2  24
TORSDOF 7
ENDMDL
MODEL 7
REMARK VINA RESULT:      -8.7      2.806      5.490
REMARK  Name = 5282459
REMARK  7 active torsions:
REMARK  status: ('A' for Active; 'I' for Inactive)
REMARK    1  A    between atoms: N_2  and  C_24
REMARK    2  A    between atoms: C_8  and  C_10
REMARK    3  A    between atoms: C_11  and  C_12
REMARK    4  A    between atoms: C_15  and  O_18
REMARK    5  A    between atoms: C_16  and  O_20
REMARK    6  A    between atoms: C_17  and  O_22
REMARK    7  A    between atoms: C_24  and  C_31
REMARK                            x       y       z     vdW  Elec       q    Type
REMARK                         _______ _______ _______ _____ _____    ______ ____
ROOT
ATOM      1  O   UNL     1      37.493 -19.198 -21.525  0.00  0.00    -0.270 OA
ATOM      2  N   UNL     1      34.181 -21.808 -18.908  0.00  0.00    +0.395 N 
ATOM      3  N   UNL     1      35.524 -19.792 -20.442  0.00  0.00    -0.280 N 
ATOM      4  C   UNL     1      35.631 -21.885 -19.140  0.00  0.00    -0.055 C 
ATOM      5  C   UNL     1      33.508 -21.160 -20.044  0.00  0.00    -0.055 C 
ATOM      6  C   UNL     1      36.222 -20.492 -19.363  0.00  0.00    +0.071 C 
ATOM      7  C   UNL     1      34.066 -19.755 -20.275  0.00  0.00    +0.071 C 
ATOM      8  C   UNL     1      36.266 -19.138 -21.421  0.00  0.00    +0.249 C 
ATOM      9  H   UNL     1      34.019 -21.241 -18.075  0.00  0.00    -0.079 HD
ENDROOT
BRANCH   8  10
ATOM     10  C   UNL     1      35.540 -18.313 -22.406  0.00  0.00    +0.058 C 
ATOM     11  C   UNL     1      35.430 -16.998 -22.176  0.00  0.00    +0.005 C 
BRANCH  11  12
ATOM     12  C   UNL     1      34.729 -16.046 -23.056  0.00  0.00    +0.006 C 
ATOM     13  C   UNL     1      34.452 -16.394 -24.379  0.00  0.00    +0.040 C 
ATOM     14  C   UNL     1      34.343 -14.798 -22.568  0.00  0.00    +0.040 C 
ATOM     15  C   UNL     1      33.681 -13.898 -23.401  0.00  0.00    +0.175 C 
ATOM     16  C   UNL     1      33.788 -15.494 -25.212  0.00  0.00    +0.175 C 
ATOM     17  C   UNL     1      33.403 -14.245 -24.723  0.00  0.00    +0.206 C 
BRANCH  15  18
ATOM     18  O   UNL     1      33.309 -12.681 -22.912  0.00  0.00    -0.468 OA
ATOM     19  C   UNL     1      32.111 -12.633 -22.139  0.00  0.00    +0.253 C 
ENDBRANCH  15  18
BRANCH  16  20
ATOM     20  O   UNL     1      33.523 -15.846 -26.501  0.00  0.00    -0.468 OA
ATOM     21  C   UNL     1      32.279 -16.497 -26.752  0.00  0.00    +0.253 C 
ENDBRANCH  16  20
BRANCH  17  22
ATOM     22  O   UNL     1      32.754 -13.366 -25.538  0.00  0.00    -0.465 OA
ATOM     23  C   UNL     1      33.563 -12.477 -26.305  0.00  0.00    +0.253 C 
ENDBRANCH  17  22
ENDBRANCH  11  12
ENDBRANCH   8  10
BRANCH   2  24
ATOM     24  C   UNL     1      33.626 -23.140 -18.673  0.00  0.00    +0.010 C 
BRANCH  24  31
ATOM     25  O   UNL     1      34.821 -23.796 -16.720  0.00  0.00    -0.277 OA
ATOM     26  N   UNL     1      32.600 -23.220 -16.454  0.00  0.00    -0.281 N 
ATOM     27  C   UNL     1      32.554 -23.445 -15.017  0.00  0.00    +0.093 C 
ATOM     28  C   UNL     1      31.304 -22.772 -16.955  0.00  0.00    +0.093 C 
ATOM     29  C   UNL     1      31.245 -22.811 -14.573  0.00  0.00    +0.023 C 
ATOM     30  C   UNL     1      30.349 -22.998 -15.792  0.00  0.00    +0.023 C 
ATOM     31  C   UNL     1      33.750 -23.416 -17.196  0.00  0.00    +0.205 C 
ENDBRANCH  24  31
ENDBRANCH   2  24
TORSDOF 7
ENDMDL
MODEL 8
REMARK VINA RESULT:      -8.6      2.847      5.599
REMARK  Name = 5282459
REMARK  7 active torsions:
REMARK  status: ('A' for Active; 'I' for Inactive)
REMARK    1  A    between atoms: N_2  and  C_24
REMARK    2  A    between atoms: C_8  and  C_10
REMARK    3  A    between atoms: C_11  and  C_12
REMARK    4  A    between atoms: C_15  and  O_18
REMARK    5  A    between atoms: C_16  and  O_20
REMARK    6  A    between atoms: C_17  and  O_22
REMARK    7  A    between atoms: C_24  and  C_31
REMARK                            x       y       z     vdW  Elec       q    Type
REMARK                         _______ _______ _______ _____ _____    ______ ____
ROOT
ATOM      1  O   UNL     1      37.379 -19.291 -21.629  0.00  0.00    -0.270 OA
ATOM      2  N   UNL     1      34.204 -21.871 -18.820  0.00  0.00    +0.395 N 
ATOM      3  N   UNL     1      35.475 -19.864 -20.424  0.00  0.00    -0.280 N 
ATOM      4  C   UNL     1      35.634 -21.969 -19.146  0.00  0.00    -0.055 C 
ATOM      5  C   UNL     1      33.468 -21.205 -19.905  0.00  0.00    -0.055 C 
ATOM      6  C   UNL     1      36.231 -20.583 -19.397  0.00  0.00    +0.071 C 
ATOM      7  C   UNL     1      34.032 -19.806 -20.162  0.00  0.00    +0.071 C 
ATOM      8  C   UNL     1      36.162 -19.214 -21.445  0.00  0.00    +0.249 C 
ATOM      9  H   UNL     1      34.105 -21.309 -17.974  0.00  0.00    -0.079 HD
ENDROOT
BRANCH   8  10
ATOM     10  C   UNL     1      35.386 -18.369 -22.374  0.00  0.00    +0.058 C 
ATOM     11  C   UNL     1      35.470 -17.039 -22.246  0.00  0.00    +0.005 C 
BRANCH  11  12
ATOM     12  C   UNL     1      34.752 -16.066 -23.088  0.00  0.00    +0.006 C 
ATOM     13  C   UNL     1      34.316 -14.858 -22.542  0.00  0.00    +0.040 C 
ATOM     14  C   UNL     1      34.506 -16.353 -24.431  0.00  0.00    +0.040 C 
ATOM     15  C   UNL     1      33.825 -15.432 -25.227  0.00  0.00    +0.175 C 
ATOM     16  C   UNL     1      33.636 -13.937 -23.339  0.00  0.00    +0.175 C 
ATOM     17  C   UNL     1      33.390 -14.225 -24.681  0.00  0.00    +0.206 C 
BRANCH  15  18
ATOM     18  O   UNL     1      33.592 -15.724 -26.538  0.00  0.00    -0.468 OA
ATOM     19  C   UNL     1      32.364 -16.381 -26.846  0.00  0.00    +0.253 C 
ENDBRANCH  15  18
BRANCH  16  20
ATOM     20  O   UNL     1      33.217 -12.762 -22.793  0.00  0.00    -0.468 OA
ATOM     21  C   UNL     1      32.194 -12.835 -21.802  0.00  0.00    +0.253 C 
ENDBRANCH  16  20
BRANCH  17  22
ATOM     22  O   UNL     1      32.726 -13.325 -25.460  0.00  0.00    -0.465 OA
ATOM     23  C   UNL     1      33.519 -12.398 -26.199  0.00  0.00    +0.253 C 
ENDBRANCH  17  22
ENDBRANCH  11  12
ENDBRANCH   8  10
BRANCH   2  24
ATOM     24  C   UNL     1      33.645 -23.197 -18.558  0.00  0.00    +0.010 C 
BRANCH  24  31
ATOM     25  O   UNL     1      34.913 -23.817 -16.641  0.00  0.00    -0.277 OA
ATOM     26  N   UNL     1      32.685 -23.301 -16.311  0.00  0.00    -0.281 N 
ATOM     27  C   UNL     1      32.687 -23.525 -14.872  0.00  0.00    +0.093 C 
ATOM     28  C   UNL     1      31.364 -22.889 -16.774  0.00  0.00    +0.093 C 
ATOM     29  C   UNL     1      31.374 -22.926 -14.392  0.00  0.00    +0.023 C 
ATOM     30  C   UNL     1      30.449 -23.139 -15.584  0.00  0.00    +0.023 C 
ATOM     31  C   UNL     1      33.819 -23.468 -17.085  0.00  0.00    +0.205 C 
ENDBRANCH  24  31
ENDBRANCH   2  24
TORSDOF 7
ENDMDL
MODEL 9
REMARK VINA RESULT:      -8.6      4.506     11.892
REMARK  Name = 5282459
REMARK  7 active torsions:
REMARK  status: ('A' for Active; 'I' for Inactive)
REMARK    1  A    between atoms: N_2  and  C_24
REMARK    2  A    between atoms: C_8  and  C_10
REMARK    3  A    between atoms: C_11  and  C_12
REMARK    4  A    between atoms: C_15  and  O_18
REMARK    5  A    between atoms: C_16  and  O_20
REMARK    6  A    between atoms: C_17  and  O_22
REMARK    7  A    between atoms: C_24  and  C_31
REMARK                            x       y       z     vdW  Elec       q    Type
REMARK                         _______ _______ _______ _____ _____    ______ ____
ROOT
ATOM      1  O   UNL     1      32.771 -22.231 -20.066  0.00  0.00    -0.270 OA
ATOM      2  N   UNL     1      35.155 -18.515 -22.332  0.00  0.00    +0.395 N 
ATOM      3  N   UNL     1      34.120 -20.369 -20.406  0.00  0.00    -0.280 N 
ATOM      4  C   UNL     1      34.059 -19.428 -22.686  0.00  0.00    -0.055 C 
ATOM      5  C   UNL     1      36.043 -19.131 -21.336  0.00  0.00    -0.055 C 
ATOM      6  C   UNL     1      33.251 -19.817 -21.446  0.00  0.00    +0.071 C 
ATOM      7  C   UNL     1      35.264 -19.510 -20.075  0.00  0.00    +0.071 C 
ATOM      8  C   UNL     1      33.743 -21.539 -19.753  0.00  0.00    +0.249 C 
ATOM      9  H   UNL     1      34.751 -17.672 -21.922  0.00  0.00    -0.079 HD
ENDROOT
BRANCH   8  10
ATOM     10  C   UNL     1      34.555 -21.986 -18.605  0.00  0.00    +0.058 C 
ATOM     11  C   UNL     1      33.931 -22.559 -17.569  0.00  0.00    +0.005 C 
BRANCH  11  12
ATOM     12  C   UNL     1      34.601 -23.047 -16.350  0.00  0.00    +0.006 C 
ATOM     13  C   UNL     1      35.992 -23.006 -16.255  0.00  0.00    +0.040 C 
ATOM     14  C   UNL     1      33.844 -23.550 -15.292  0.00  0.00    +0.040 C 
ATOM     15  C   UNL     1      34.478 -24.012 -14.139  0.00  0.00    +0.175 C 
ATOM     16  C   UNL     1      36.626 -23.468 -15.101  0.00  0.00    +0.175 C 
ATOM     17  C   UNL     1      35.868 -23.971 -14.043  0.00  0.00    +0.206 C 
BRANCH  15  18
ATOM     18  O   UNL     1      33.727 -24.500 -13.112  0.00  0.00    -0.468 OA
ATOM     19  C   UNL     1      32.376 -24.850 -13.406  0.00  0.00    +0.253 C 
ENDBRANCH  15  18
BRANCH  16  20
ATOM     20  O   UNL     1      37.985 -23.422 -15.020  0.00  0.00    -0.468 OA
ATOM     21  C   UNL     1      38.679 -24.667 -15.065  0.00  0.00    +0.253 C 
ENDBRANCH  16  20
BRANCH  17  22
ATOM     22  O   UNL     1      36.488 -24.421 -12.916  0.00  0.00    -0.465 OA
ATOM     23  C   UNL     1      36.716 -23.470 -11.878  0.00  0.00    +0.253 C 
ENDBRANCH  17  22
ENDBRANCH  11  12
ENDBRANCH   8  10
BRANCH   2  24
ATOM     24  C   UNL     1      35.908 -18.129 -23.525  0.00  0.00    +0.010 C 
BRANCH  24  31
ATOM     25  O   UNL     1      34.629 -17.889 -25.518  0.00  0.00    -0.277 OA
ATOM     26  N   UNL     1      34.497 -16.182 -23.967  0.00  0.00    -0.281 N 
ATOM     27  C   UNL     1      33.572 -15.354 -24.728  0.00  0.00    +0.093 C 
ATOM     28  C   UNL     1      34.841 -15.550 -22.698  0.00  0.00    +0.093 C 
ATOM     29  C   UNL     1      33.093 -14.306 -23.736  0.00  0.00    +0.023 C 
ATOM     30  C   UNL     1      34.299 -14.133 -22.820  0.00  0.00    +0.023 C 
ATOM     31  C   UNL     1      34.953 -17.400 -24.435  0.00  0.00    +0.205 C 
ENDBRANCH  24  31
ENDBRANCH   2  24
TORSDOF 7
ENDMDL
