MODEL 1
REMARK VINA RESULT:      -9.6      0.000      0.000
REMARK  Name = 2350
REMARK  9 active torsions:
REMARK  status: ('A' for Active; 'I' for Inactive)
REMARK    1  A    between atoms: O_1  and  C_3
REMARK    2  A    between atoms: O_1  and  C_16
REMARK    3  A    between atoms: N_2  and  C_9
REMARK    4  A    between atoms: C_9  and  C_10
REMARK    5  A    between atoms: C_10  and  C_11
REMARK    6  A    between atoms: C_11  and  C_13
REMARK    7  A    between atoms: C_13  and  O_14
REMARK    8  A    between atoms: C_16  and  C_18
REMARK    9  A    between atoms: C_16  and  C_25
REMARK                            x       y       z     vdW  Elec       q    Type
REMARK                         _______ _______ _______ _____ _____    ______ ____
ROOT
ATOM      1  O   UNL     1      34.342 -23.314 -17.421  0.00  0.00    -0.348 OA
ENDROOT
BRANCH   1   3
ATOM      2  N   UNL     1      35.374 -20.708 -20.529  0.00  0.00    +0.387 N 
ATOM      3  C   UNL     1      34.590 -22.071 -18.067  0.00  0.00    +0.112 C 
ATOM      4  C   UNL     1      33.645 -21.932 -19.257  0.00  0.00    +0.007 C 
ATOM      5  C   UNL     1      36.041 -22.006 -18.535  0.00  0.00    +0.007 C 
ATOM      6  C   UNL     1      33.973 -20.691 -20.086  0.00  0.00    -0.075 C 
ATOM      7  C   UNL     1      36.295 -20.763 -19.386  0.00  0.00    -0.075 C 
ATOM      8  H   UNL     1      35.517 -21.549 -21.087  0.00  0.00    -0.080 HD
BRANCH   2   9
ATOM      9  C   UNL     1      35.661 -19.539 -21.361  0.00  0.00    -0.077 C 
BRANCH   9  10
ATOM     10  C   UNL     1      34.491 -19.261 -22.306  0.00  0.00    -0.011 C 
BRANCH  10  11
ATOM     11  C   UNL     1      34.903 -19.314 -23.774  0.00  0.00    +0.107 C 
BRANCH  11  13
ATOM     12  O   UNL     1      34.303 -17.722 -25.489  0.00  0.00    -0.250 OA
ATOM     13  C   UNL     1      34.855 -17.951 -24.419  0.00  0.00    +0.314 C 
BRANCH  13  14
ATOM     14  O   UNL     1      35.513 -17.005 -23.705  0.00  0.00    -0.480 OA
ATOM     15  H   UNL     1      36.385 -16.760 -23.943  0.00  0.00    +0.295 HD
ENDBRANCH  13  14
ENDBRANCH  11  13
ENDBRANCH  10  11
ENDBRANCH   9  10
ENDBRANCH   2   9
ENDBRANCH   1   3
BRANCH   1  16
ATOM     16  C   UNL     1      34.208 -23.152 -16.015  0.00  0.00    +0.177 C 
BRANCH  16  18
ATOM     17 CL   UNL     1      38.847 -25.695 -13.179  0.00  0.00    -0.082 Cl
ATOM     18  C   UNL     1      35.379 -23.794 -15.301  0.00  0.00    +0.010 C 
ATOM     19  C   UNL     1      35.633 -25.139 -15.495  0.00  0.00    -0.001 C 
ATOM     20  C   UNL     1      36.168 -23.019 -14.468  0.00  0.00    -0.001 C 
ATOM     21  C   UNL     1      36.712 -25.730 -14.836  0.00  0.00    +0.011 C 
ATOM     22  C   UNL     1      37.246 -23.610 -13.809  0.00  0.00    +0.011 C 
ATOM     23  C   UNL     1      37.518 -24.965 -13.993  0.00  0.00    +0.058 C 
ENDBRANCH  16  18
BRANCH  16  25
ATOM     24  N   UNL     1      32.885 -24.332 -14.365  0.00  0.00    -0.245 NA
ATOM     25  C   UNL     1      32.866 -23.661 -15.527  0.00  0.00    +0.090 C 
ATOM     26  C   UNL     1      31.752 -23.405 -16.289  0.00  0.00    +0.018 C 
ATOM     27  C   UNL     1      30.537 -23.885 -15.814  0.00  0.00    +0.003 C 
ATOM     28  C   UNL     1      31.685 -24.783 -13.935  0.00  0.00    +0.099 C 
ATOM     29  C   UNL     1      30.495 -24.588 -14.615  0.00  0.00    +0.021 C 
ENDBRANCH  16  25
ENDBRANCH   1  16
TORSDOF 9
ENDMDL
MODEL 2
REMARK VINA RESULT:      -9.1      9.415     14.105
REMARK  Name = 2350
REMARK  9 active torsions:
REMARK  status: ('A' for Active; 'I' for Inactive)
REMARK    1  A    between atoms: O_1  and  C_3
REMARK    2  A    between atoms: O_1  and  C_16
REMARK    3  A    between atoms: N_2  and  C_9
REMARK    4  A    between atoms: C_9  and  C_10
REMARK    5  A    between atoms: C_10  and  C_11
REMARK    6  A    between atoms: C_11  and  C_13
REMARK    7  A    between atoms: C_13  and  O_14
REMARK    8  A    between atoms: C_16  and  C_18
REMARK    9  A    between atoms: C_16  and  C_25
REMARK                            x       y       z     vdW  Elec       q    Type
REMARK                         _______ _______ _______ _____ _____    ______ ____
ROOT
ATOM      1  O   UNL     1      33.354 -10.951 -23.352  0.00  0.00    -0.348 OA
ENDROOT
BRANCH   1   3
ATOM      2  N   UNL     1      33.886 -14.762 -24.999  0.00  0.00    +0.387 N 
ATOM      3  C   UNL     1      32.984 -12.222 -23.871  0.00  0.00    +0.112 C 
ATOM      4  C   UNL     1      33.619 -13.313 -23.015  0.00  0.00    +0.007 C 
ATOM      5  C   UNL     1      33.447 -12.350 -25.319  0.00  0.00    +0.007 C 
ATOM      6  C   UNL     1      33.389 -14.698 -23.617  0.00  0.00    -0.075 C 
ATOM      7  C   UNL     1      33.222 -13.765 -25.851  0.00  0.00    -0.075 C 
ATOM      8  H   UNL     1      34.882 -14.547 -24.985  0.00  0.00    -0.080 HD
BRANCH   2   9
ATOM      9  C   UNL     1      33.703 -16.106 -25.547  0.00  0.00    -0.077 C 
BRANCH   9  10
ATOM     10  C   UNL     1      34.914 -16.980 -25.220  0.00  0.00    -0.011 C 
BRANCH  10  11
ATOM     11  C   UNL     1      34.513 -18.373 -24.739  0.00  0.00    +0.107 C 
BRANCH  11  13
ATOM     12  O   UNL     1      34.613 -19.511 -22.611  0.00  0.00    -0.250 OA
ATOM     13  C   UNL     1      35.089 -18.684 -23.380  0.00  0.00    +0.314 C 
BRANCH  13  14
ATOM     14  O   UNL     1      36.177 -17.932 -23.083  0.00  0.00    -0.480 OA
ATOM     15  H   UNL     1      36.179 -17.394 -22.316  0.00  0.00    +0.295 HD
ENDBRANCH  13  14
ENDBRANCH  11  13
ENDBRANCH  10  11
ENDBRANCH   9  10
ENDBRANCH   2   9
ENDBRANCH   1   3
BRANCH   1  16
ATOM     16  C   UNL     1      32.214 -10.182 -22.993  0.00  0.00    +0.177 C 
BRANCH  16  18
ATOM     17 CL   UNL     1      32.679  -4.626 -25.215  0.00  0.00    -0.082 Cl
ATOM     18  C   UNL     1      32.331  -8.779 -23.552  0.00  0.00    +0.010 C 
ATOM     19  C   UNL     1      31.180  -8.068 -23.835  0.00  0.00    -0.001 C 
ATOM     20  C   UNL     1      33.589  -8.243 -23.770  0.00  0.00    -0.001 C 
ATOM     21  C   UNL     1      31.288  -6.776 -24.351  0.00  0.00    +0.011 C 
ATOM     22  C   UNL     1      33.696  -6.952 -24.287  0.00  0.00    +0.011 C 
ATOM     23  C   UNL     1      32.546  -6.218 -24.577  0.00  0.00    +0.058 C 
ENDBRANCH  16  18
BRANCH  16  25
ATOM     24  N   UNL     1      32.269  -9.067 -20.844  0.00  0.00    -0.245 NA
ATOM     25  C   UNL     1      31.983 -10.204 -21.495  0.00  0.00    +0.090 C 
ATOM     26  C   UNL     1      31.508 -11.360 -20.923  0.00  0.00    +0.018 C 
ATOM     27  C   UNL     1      31.308 -11.348 -19.548  0.00  0.00    +0.003 C 
ATOM     28  C   UNL     1      32.061  -9.094 -19.508  0.00  0.00    +0.099 C 
ATOM     29  C   UNL     1      31.586 -10.197 -18.819  0.00  0.00    +0.021 C 
ENDBRANCH  16  25
ENDBRANCH   1  16
TORSDOF 9
ENDMDL
MODEL 3
REMARK VINA RESULT:      -9.0      5.858     11.626
REMARK  Name = 2350
REMARK  9 active torsions:
REMARK  status: ('A' for Active; 'I' for Inactive)
REMARK    1  A    between atoms: O_1  and  C_3
REMARK    2  A    between atoms: O_1  and  C_16
REMARK    3  A    between atoms: N_2  and  C_9
REMARK    4  A    between atoms: C_9  and  C_10
REMARK    5  A    between atoms: C_10  and  C_11
REMARK    6  A    between atoms: C_11  and  C_13
REMARK    7  A    between atoms: C_13  and  O_14
REMARK    8  A    between atoms: C_16  and  C_18
REMARK    9  A    between atoms: C_16  and  C_25
REMARK                            x       y       z     vdW  Elec       q    Type
REMARK                         _______ _______ _______ _____ _____    ______ ____
ROOT
ATOM      1  O   UNL     1      33.318 -15.413 -23.043  0.00  0.00    -0.348 OA
ENDROOT
BRANCH   1   3
ATOM      2  N   UNL     1      35.410 -18.719 -21.554  0.00  0.00    +0.387 N 
ATOM      3  C   UNL     1      34.441 -16.178 -22.623  0.00  0.00    +0.112 C 
ATOM      4  C   UNL     1      34.532 -17.439 -23.477  0.00  0.00    +0.007 C 
ATOM      5  C   UNL     1      34.300 -16.547 -21.150  0.00  0.00    +0.007 C 
ATOM      6  C   UNL     1      35.623 -18.379 -22.968  0.00  0.00    -0.075 C 
ATOM      7  C   UNL     1      35.399 -17.515 -20.712  0.00  0.00    -0.075 C 
ATOM      8  H   UNL     1      34.497 -19.166 -21.473  0.00  0.00    -0.080 HD
BRANCH   2   9
ATOM      9  C   UNL     1      36.434 -19.656 -21.093  0.00  0.00    -0.077 C 
BRANCH   9  10
ATOM     10  C   UNL     1      35.852 -20.601 -20.040  0.00  0.00    -0.011 C 
BRANCH  10  11
ATOM     11  C   UNL     1      34.345 -20.786 -20.195  0.00  0.00    +0.107 C 
BRANCH  11  13
ATOM     12  O   UNL     1      32.665 -22.004 -18.957  0.00  0.00    -0.250 OA
ATOM     13  C   UNL     1      33.827 -21.913 -19.335  0.00  0.00    +0.314 C 
BRANCH  13  14
ATOM     14  O   UNL     1      34.791 -22.805 -18.997  0.00  0.00    -0.480 OA
ATOM     15  H   UNL     1      34.554 -23.637 -18.640  0.00  0.00    +0.295 HD
ENDBRANCH  13  14
ENDBRANCH  11  13
ENDBRANCH  10  11
ENDBRANCH   9  10
ENDBRANCH   2   9
ENDBRANCH   1   3
BRANCH   1  16
ATOM     16  C   UNL     1      33.660 -14.047 -23.233  0.00  0.00    +0.177 C 
BRANCH  16  18
ATOM     17 CL   UNL     1      30.539 -10.586 -19.450  0.00  0.00    -0.082 Cl
ATOM     18  C   UNL     1      32.874 -13.173 -22.278  0.00  0.00    +0.010 C 
ATOM     19  C   UNL     1      32.759 -13.554 -20.953  0.00  0.00    -0.001 C 
ATOM     20  C   UNL     1      32.286 -12.013 -22.753  0.00  0.00    -0.001 C 
ATOM     21  C   UNL     1      32.035 -12.749 -20.074  0.00  0.00    +0.011 C 
ATOM     22  C   UNL     1      31.560 -11.210 -21.874  0.00  0.00    +0.011 C 
ATOM     23  C   UNL     1      31.435 -11.577 -20.535  0.00  0.00    +0.058 C 
ENDBRANCH  16  18
BRANCH  16  25
ATOM     24  N   UNL     1      33.989 -12.428 -25.004  0.00  0.00    -0.245 NA
ATOM     25  C   UNL     1      33.497 -13.634 -24.683  0.00  0.00    +0.090 C 
ATOM     26  C   UNL     1      32.874 -14.504 -25.544  0.00  0.00    +0.018 C 
ATOM     27  C   UNL     1      32.740 -14.096 -26.866  0.00  0.00    +0.003 C 
ATOM     28  C   UNL     1      33.840 -12.067 -26.298  0.00  0.00    +0.099 C 
ATOM     29  C   UNL     1      33.230 -12.855 -27.259  0.00  0.00    +0.021 C 
ENDBRANCH  16  25
ENDBRANCH   1  16
TORSDOF 9
ENDMDL
MODEL 4
REMARK VINA RESULT:      -8.9      3.990      6.611
REMARK  Name = 2350
REMARK  9 active torsions:
REMARK  status: ('A' for Active; 'I' for Inactive)
REMARK    1  A    between atoms: O_1  and  C_3
REMARK    2  A    between atoms: O_1  and  C_16
REMARK    3  A    between atoms: N_2  and  C_9
REMARK    4  A    between atoms: C_9  and  C_10
REMARK    5  A    between atoms: C_10  and  C_11
REMARK    6  A    between atoms: C_11  and  C_13
REMARK    7  A    between atoms: C_13  and  O_14
REMARK    8  A    between atoms: C_16  and  C_18
REMARK    9  A    between atoms: C_16  and  C_25
REMARK                            x       y       z     vdW  Elec       q    Type
REMARK                         _______ _______ _______ _____ _____    ______ ____
ROOT
ATOM      1  O   UNL     1      34.086 -23.331 -14.168  0.00  0.00    -0.348 OA
ENDROOT
BRANCH   1   3
ATOM      2  N   UNL     1      30.145 -24.074 -15.365  0.00  0.00    +0.387 N 
ATOM      3  C   UNL     1      32.686 -23.538 -14.027  0.00  0.00    +0.112 C 
ATOM      4  C   UNL     1      32.329 -24.916 -14.574  0.00  0.00    +0.007 C 
ATOM      5  C   UNL     1      31.919 -22.455 -14.781  0.00  0.00    +0.007 C 
ATOM      6  C   UNL     1      30.817 -25.132 -14.598  0.00  0.00    -0.075 C 
ATOM      7  C   UNL     1      30.420 -22.746 -14.798  0.00  0.00    -0.075 C 
ATOM      8  H   UNL     1      30.516 -24.091 -16.315  0.00  0.00    -0.080 HD
BRANCH   2   9
ATOM      9  C   UNL     1      28.703 -24.318 -15.419  0.00  0.00    -0.077 C 
BRANCH   9  10
ATOM     10  C   UNL     1      27.947 -22.995 -15.558  0.00  0.00    -0.011 C 
BRANCH  10  11
ATOM     11  C   UNL     1      27.675 -22.630 -17.014  0.00  0.00    +0.107 C 
BRANCH  11  13
ATOM     12  O   UNL     1      26.454 -20.793 -18.000  0.00  0.00    -0.250 OA
ATOM     13  C   UNL     1      26.520 -21.668 -17.144  0.00  0.00    +0.314 C 
BRANCH  13  14
ATOM     14  O   UNL     1      25.569 -21.854 -16.196  0.00  0.00    -0.480 OA
ATOM     15  H   UNL     1      25.634 -22.576 -15.603  0.00  0.00    +0.295 HD
ENDBRANCH  13  14
ENDBRANCH  11  13
ENDBRANCH  10  11
ENDBRANCH   9  10
ENDBRANCH   2   9
ENDBRANCH   1   3
BRANCH   1  16
ATOM     16  C   UNL     1      34.626 -24.121 -15.218  0.00  0.00    +0.177 C 
BRANCH  16  18
ATOM     17 CL   UNL     1      40.004 -26.267 -13.638  0.00  0.00    -0.082 Cl
ATOM     18  C   UNL     1      35.984 -24.663 -14.821  0.00  0.00    +0.010 C 
ATOM     19  C   UNL     1      36.365 -25.917 -15.262  0.00  0.00    -0.001 C 
ATOM     20  C   UNL     1      36.811 -23.890 -14.024  0.00  0.00    -0.001 C 
ATOM     21  C   UNL     1      37.616 -26.415 -14.895  0.00  0.00    +0.011 C 
ATOM     22  C   UNL     1      38.061 -24.389 -13.656  0.00  0.00    +0.011 C 
ATOM     23  C   UNL     1      38.463 -25.651 -14.092  0.00  0.00    +0.058 C 
ENDBRANCH  16  18
BRANCH  16  25
ATOM     24  N   UNL     1      35.777 -22.664 -16.773  0.00  0.00    -0.245 NA
ATOM     25  C   UNL     1      34.654 -23.355 -16.526  0.00  0.00    +0.090 C 
ATOM     26  C   UNL     1      33.555 -23.422 -17.347  0.00  0.00    +0.018 C 
ATOM     27  C   UNL     1      33.611 -22.709 -18.539  0.00  0.00    +0.003 C 
ATOM     28  C   UNL     1      35.795 -21.984 -17.941  0.00  0.00    +0.099 C 
ATOM     29  C   UNL     1      34.750 -21.974 -18.849  0.00  0.00    +0.021 C 
ENDBRANCH  16  25
ENDBRANCH   1  16
TORSDOF 9
ENDMDL
MODEL 5
REMARK VINA RESULT:      -8.7      3.807      6.724
REMARK  Name = 2350
REMARK  9 active torsions:
REMARK  status: ('A' for Active; 'I' for Inactive)
REMARK    1  A    between atoms: O_1  and  C_3
REMARK    2  A    between atoms: O_1  and  C_16
REMARK    3  A    between atoms: N_2  and  C_9
REMARK    4  A    between atoms: C_9  and  C_10
REMARK    5  A    between atoms: C_10  and  C_11
REMARK    6  A    between atoms: C_11  and  C_13
REMARK    7  A    between atoms: C_13  and  O_14
REMARK    8  A    between atoms: C_16  and  C_18
REMARK    9  A    between atoms: C_16  and  C_25
REMARK                            x       y       z     vdW  Elec       q    Type
REMARK                         _______ _______ _______ _____ _____    ______ ____
ROOT
ATOM      1  O   UNL     1      33.624 -22.733 -15.229  0.00  0.00    -0.348 OA
ENDROOT
BRANCH   1   3
ATOM      2  N   UNL     1      29.455 -22.606 -15.570  0.00  0.00    +0.387 N 
ATOM      3  C   UNL     1      32.297 -23.235 -15.329  0.00  0.00    +0.112 C 
ATOM      4  C   UNL     1      31.679 -22.749 -16.637  0.00  0.00    +0.007 C 
ATOM      5  C   UNL     1      31.466 -22.756 -14.142  0.00  0.00    +0.007 C 
ATOM      6  C   UNL     1      30.200 -23.123 -16.726  0.00  0.00    -0.075 C 
ATOM      7  C   UNL     1      29.994 -23.130 -14.308  0.00  0.00    -0.075 C 
ATOM      8  H   UNL     1      29.559 -21.591 -15.558  0.00  0.00    -0.080 HD
BRANCH   2   9
ATOM      9  C   UNL     1      28.033 -22.929 -15.692  0.00  0.00    -0.077 C 
BRANCH   9  10
ATOM     10  C   UNL     1      27.727 -23.452 -17.096  0.00  0.00    -0.011 C 
BRANCH  10  11
ATOM     11  C   UNL     1      27.175 -22.365 -18.014  0.00  0.00    +0.107 C 
BRANCH  11  13
ATOM     12  O   UNL     1      25.570 -21.798 -16.301  0.00  0.00    -0.250 OA
ATOM     13  C   UNL     1      26.205 -21.462 -17.294  0.00  0.00    +0.314 C 
BRANCH  13  14
ATOM     14  O   UNL     1      26.085 -20.243 -17.876  0.00  0.00    -0.480 OA
ATOM     15  H   UNL     1      26.694 -19.978 -18.536  0.00  0.00    +0.295 HD
ENDBRANCH  13  14
ENDBRANCH  11  13
ENDBRANCH  10  11
ENDBRANCH   9  10
ENDBRANCH   2   9
ENDBRANCH   1   3
BRANCH   1  16
ATOM     16  C   UNL     1      34.544 -23.545 -15.945  0.00  0.00    +0.177 C 
BRANCH  16  18
ATOM     17 CL   UNL     1      38.574 -25.929 -12.190  0.00  0.00    -0.082 Cl
ATOM     18  C   UNL     1      35.560 -24.147 -14.996  0.00  0.00    +0.010 C 
ATOM     19  C   UNL     1      35.765 -23.555 -13.764  0.00  0.00    -0.001 C 
ATOM     20  C   UNL     1      36.261 -25.275 -15.387  0.00  0.00    -0.001 C 
ATOM     21  C   UNL     1      36.701 -24.110 -12.890  0.00  0.00    +0.011 C 
ATOM     22  C   UNL     1      37.198 -25.828 -14.514  0.00  0.00    +0.011 C 
ATOM     23  C   UNL     1      37.418 -25.246 -13.266  0.00  0.00    +0.058 C 
ENDBRANCH  16  18
BRANCH  16  25
ATOM     24  N   UNL     1      34.524 -22.818 -18.255  0.00  0.00    -0.245 NA
ATOM     25  C   UNL     1      35.183 -22.779 -17.087  0.00  0.00    +0.090 C 
ATOM     26  C   UNL     1      36.361 -22.114 -16.851  0.00  0.00    +0.018 C 
ATOM     27  C   UNL     1      36.922 -21.422 -17.918  0.00  0.00    +0.003 C 
ATOM     28  C   UNL     1      35.099 -22.133 -19.269  0.00  0.00    +0.099 C 
ATOM     29  C   UNL     1      36.284 -21.426 -19.154  0.00  0.00    +0.021 C 
ENDBRANCH  16  25
ENDBRANCH   1  16
TORSDOF 9
ENDMDL
MODEL 6
REMARK VINA RESULT:      -8.6      5.226      8.874
REMARK  Name = 2350
REMARK  9 active torsions:
REMARK  status: ('A' for Active; 'I' for Inactive)
REMARK    1  A    between atoms: O_1  and  C_3
REMARK    2  A    between atoms: O_1  and  C_16
REMARK    3  A    between atoms: N_2  and  C_9
REMARK    4  A    between atoms: C_9  and  C_10
REMARK    5  A    between atoms: C_10  and  C_11
REMARK    6  A    between atoms: C_11  and  C_13
REMARK    7  A    between atoms: C_13  and  O_14
REMARK    8  A    between atoms: C_16  and  C_18
REMARK    9  A    between atoms: C_16  and  C_25
REMARK                            x       y       z     vdW  Elec       q    Type
REMARK                         _______ _______ _______ _____ _____    ______ ____
ROOT
ATOM      1  O   UNL     1      35.077 -17.071 -21.007  0.00  0.00    -0.348 OA
ENDROOT
BRANCH   1   3
ATOM      2  N   UNL     1      32.568 -13.785 -21.656  0.00  0.00    +0.387 N 
ATOM      3  C   UNL     1      34.512 -15.785 -20.787  0.00  0.00    +0.112 C 
ATOM      4  C   UNL     1      33.017 -15.936 -20.525  0.00  0.00    +0.007 C 
ATOM      5  C   UNL     1      34.748 -14.895 -22.004  0.00  0.00    +0.007 C 
ATOM      6  C   UNL     1      32.326 -14.576 -20.441  0.00  0.00    -0.075 C 
ATOM      7  C   UNL     1      34.004 -13.567 -21.874  0.00  0.00    -0.075 C 
ATOM      8  H   UNL     1      32.207 -14.312 -22.451  0.00  0.00    -0.080 HD
BRANCH   2   9
ATOM      9  C   UNL     1      31.862 -12.506 -21.582  0.00  0.00    -0.077 C 
BRANCH   9  10
ATOM     10  C   UNL     1      31.823 -12.005 -20.137  0.00  0.00    -0.011 C 
BRANCH  10  11
ATOM     11  C   UNL     1      31.018 -10.716 -19.989  0.00  0.00    +0.107 C 
BRANCH  11  13
ATOM     12  O   UNL     1      31.830  -8.831 -21.262  0.00  0.00    -0.250 OA
ATOM     13  C   UNL     1      31.867  -9.494 -20.231  0.00  0.00    +0.314 C 
BRANCH  13  14
ATOM     14  O   UNL     1      32.700  -9.216 -19.199  0.00  0.00    -0.480 OA
ATOM     15  H   UNL     1      32.749  -8.346 -18.857  0.00  0.00    +0.295 HD
ENDBRANCH  13  14
ENDBRANCH  11  13
ENDBRANCH  10  11
ENDBRANCH   9  10
ENDBRANCH   2   9
ENDBRANCH   1   3
BRANCH   1  16
ATOM     16  C   UNL     1      34.133 -17.963 -21.584  0.00  0.00    +0.177 C 
BRANCH  16  18
ATOM     17 CL   UNL     1      34.046 -23.144 -18.556  0.00  0.00    -0.082 Cl
ATOM     18  C   UNL     1      34.112 -19.270 -20.818  0.00  0.00    +0.010 C 
ATOM     19  C   UNL     1      35.309 -19.876 -20.485  0.00  0.00    -0.001 C 
ATOM     20  C   UNL     1      32.893 -19.828 -20.472  0.00  0.00    -0.001 C 
ATOM     21  C   UNL     1      35.289 -21.080 -19.780  0.00  0.00    +0.011 C 
ATOM     22  C   UNL     1      32.873 -21.033 -19.769  0.00  0.00    +0.011 C 
ATOM     23  C   UNL     1      34.071 -21.658 -19.423  0.00  0.00    +0.058 C 
ENDBRANCH  16  18
BRANCH  16  25
ATOM     24  N   UNL     1      34.305 -17.041 -23.817  0.00  0.00    -0.245 NA
ATOM     25  C   UNL     1      34.386 -18.150 -23.067  0.00  0.00    +0.090 C 
ATOM     26  C   UNL     1      34.675 -19.412 -23.527  0.00  0.00    +0.018 C 
ATOM     27  C   UNL     1      34.902 -19.551 -24.891  0.00  0.00    +0.003 C 
ATOM     28  C   UNL     1      34.532 -17.215 -25.138  0.00  0.00    +0.099 C 
ATOM     29  C   UNL     1      34.831 -18.436 -25.719  0.00  0.00    +0.021 C 
ENDBRANCH  16  25
ENDBRANCH   1  16
TORSDOF 9
ENDMDL
MODEL 7
REMARK VINA RESULT:      -8.6      6.915     12.716
REMARK  Name = 2350
REMARK  9 active torsions:
REMARK  status: ('A' for Active; 'I' for Inactive)
REMARK    1  A    between atoms: O_1  and  C_3
REMARK    2  A    between atoms: O_1  and  C_16
REMARK    3  A    between atoms: N_2  and  C_9
REMARK    4  A    between atoms: C_9  and  C_10
REMARK    5  A    between atoms: C_10  and  C_11
REMARK    6  A    between atoms: C_11  and  C_13
REMARK    7  A    between atoms: C_13  and  O_14
REMARK    8  A    between atoms: C_16  and  C_18
REMARK    9  A    between atoms: C_16  and  C_25
REMARK                            x       y       z     vdW  Elec       q    Type
REMARK                         _______ _______ _______ _____ _____    ______ ____
ROOT
ATOM      1  O   UNL     1      33.126 -13.657 -22.666  0.00  0.00    -0.348 OA
ENDROOT
BRANCH   1   3
ATOM      2  N   UNL     1      34.819 -17.290 -21.460  0.00  0.00    +0.387 N 
ATOM      3  C   UNL     1      34.138 -14.554 -22.227  0.00  0.00    +0.112 C 
ATOM      4  C   UNL     1      34.290 -15.673 -23.253  0.00  0.00    +0.007 C 
ATOM      5  C   UNL     1      33.769 -15.133 -20.864  0.00  0.00    +0.007 C 
ATOM      6  C   UNL     1      35.250 -16.754 -22.759  0.00  0.00    -0.075 C 
ATOM      7  C   UNL     1      34.745 -16.231 -20.444  0.00  0.00    -0.075 C 
ATOM      8  H   UNL     1      33.884 -17.678 -21.576  0.00  0.00    -0.080 HD
BRANCH   2   9
ATOM      9  C   UNL     1      35.720 -18.356 -21.022  0.00  0.00    -0.077 C 
BRANCH   9  10
ATOM     10  C   UNL     1      35.151 -19.722 -21.411  0.00  0.00    -0.011 C 
BRANCH  10  11
ATOM     11  C   UNL     1      34.736 -20.547 -20.196  0.00  0.00    +0.107 C 
BRANCH  11  13
ATOM     12  O   UNL     1      32.453 -20.193 -20.899  0.00  0.00    -0.250 OA
ATOM     13  C   UNL     1      33.239 -20.716 -20.118  0.00  0.00    +0.314 C 
BRANCH  13  14
ATOM     14  O   UNL     1      32.848 -21.486 -19.073  0.00  0.00    -0.480 OA
ATOM     15  H   UNL     1      33.294 -21.422 -18.252  0.00  0.00    +0.295 HD
ENDBRANCH  13  14
ENDBRANCH  11  13
ENDBRANCH  10  11
ENDBRANCH   9  10
ENDBRANCH   2   9
ENDBRANCH   1   3
BRANCH   1  16
ATOM     16  C   UNL     1      33.655 -12.650 -23.518  0.00  0.00    +0.177 C 
BRANCH  16  18
ATOM     17 CL   UNL     1      31.436  -7.281 -22.007  0.00  0.00    -0.082 Cl
ATOM     18  C   UNL     1      33.094 -11.295 -23.138  0.00  0.00    +0.010 C 
ATOM     19  C   UNL     1      33.729 -10.152 -23.590  0.00  0.00    -0.001 C 
ATOM     20  C   UNL     1      31.961 -11.232 -22.345  0.00  0.00    -0.001 C 
ATOM     21  C   UNL     1      33.212  -8.904 -23.240  0.00  0.00    +0.011 C 
ATOM     22  C   UNL     1      31.446  -9.984 -21.994  0.00  0.00    +0.011 C 
ATOM     23  C   UNL     1      32.071  -8.821 -22.441  0.00  0.00    +0.058 C 
ENDBRANCH  16  18
BRANCH  16  25
ATOM     24  N   UNL     1      32.735 -14.112 -25.216  0.00  0.00    -0.245 NA
ATOM     25  C   UNL     1      33.435 -12.993 -24.978  0.00  0.00    +0.090 C 
ATOM     26  C   UNL     1      33.956 -12.153 -25.933  0.00  0.00    +0.018 C 
ATOM     27  C   UNL     1      33.738 -12.494 -27.262  0.00  0.00    +0.003 C 
ATOM     28  C   UNL     1      32.544 -14.411 -26.520  0.00  0.00    +0.099 C 
ATOM     29  C   UNL     1      33.019 -13.644 -27.570  0.00  0.00    +0.021 C 
ENDBRANCH  16  25
ENDBRANCH   1  16
TORSDOF 9
ENDMDL
MODEL 8
REMARK VINA RESULT:      -8.3      8.580     14.134
REMARK  Name = 2350
REMARK  9 active torsions:
REMARK  status: ('A' for Active; 'I' for Inactive)
REMARK    1  A    between atoms: O_1  and  C_3
REMARK    2  A    between atoms: O_1  and  C_16
REMARK    3  A    between atoms: N_2  and  C_9
REMARK    4  A    between atoms: C_9  and  C_10
REMARK    5  A    between atoms: C_10  and  C_11
REMARK    6  A    between atoms: C_11  and  C_13
REMARK    7  A    between atoms: C_13  and  O_14
REMARK    8  A    between atoms: C_16  and  C_18
REMARK    9  A    between atoms: C_16  and  C_25
REMARK                            x       y       z     vdW  Elec       q    Type
REMARK                         _______ _______ _______ _____ _____    ______ ____
ROOT
ATOM      1  O   UNL     1      32.261 -11.492 -22.780  0.00  0.00    -0.348 OA
ENDROOT
BRANCH   1   3
ATOM      2  N   UNL     1      32.496 -15.424 -21.365  0.00  0.00    +0.387 N 
ATOM      3  C   UNL     1      32.863 -12.659 -22.234  0.00  0.00    +0.112 C 
ATOM      4  C   UNL     1      32.707 -13.809 -23.224  0.00  0.00    +0.007 C 
ATOM      5  C   UNL     1      32.204 -13.014 -20.904  0.00  0.00    +0.007 C 
ATOM      6  C   UNL     1      33.193 -15.129 -22.625  0.00  0.00    -0.075 C 
ATOM      7  C   UNL     1      32.705 -14.357 -20.376  0.00  0.00    -0.075 C 
ATOM      8  H   UNL     1      31.497 -15.476 -21.563  0.00  0.00    -0.080 HD
BRANCH   2   9
ATOM      9  C   UNL     1      32.936 -16.712 -20.828  0.00  0.00    -0.077 C 
BRANCH   9  10
ATOM     10  C   UNL     1      34.383 -16.991 -21.237  0.00  0.00    -0.011 C 
BRANCH  10  11
ATOM     11  C   UNL     1      34.587 -18.428 -21.710  0.00  0.00    +0.107 C 
BRANCH  11  13
ATOM     12  O   UNL     1      34.974 -19.450 -23.864  0.00  0.00    -0.250 OA
ATOM     13  C   UNL     1      35.112 -18.483 -23.123  0.00  0.00    +0.314 C 
BRANCH  13  14
ATOM     14  O   UNL     1      35.780 -17.360 -23.483  0.00  0.00    -0.480 OA
ATOM     15  H   UNL     1      35.393 -16.519 -23.338  0.00  0.00    +0.295 HD
ENDBRANCH  13  14
ENDBRANCH  11  13
ENDBRANCH  10  11
ENDBRANCH   9  10
ENDBRANCH   2   9
ENDBRANCH   1   3
BRANCH   1  16
ATOM     16  C   UNL     1      33.195 -10.428 -22.895  0.00  0.00    +0.177 C 
BRANCH  16  18
ATOM     17 CL   UNL     1      30.416  -5.151 -22.227  0.00  0.00    -0.082 Cl
ATOM     18  C   UNL     1      32.495  -9.096 -22.727  0.00  0.00    +0.010 C 
ATOM     19  C   UNL     1      32.821  -8.294 -21.648  0.00  0.00    -0.001 C 
ATOM     20  C   UNL     1      31.544  -8.712 -23.656  0.00  0.00    -0.001 C 
ATOM     21  C   UNL     1      32.176  -7.067 -21.493  0.00  0.00    +0.011 C 
ATOM     22  C   UNL     1      30.898  -7.486 -23.500  0.00  0.00    +0.011 C 
ATOM     23  C   UNL     1      31.213  -6.663 -22.419  0.00  0.00    +0.058 C 
ENDBRANCH  16  18
BRANCH  16  25
ATOM     24  N   UNL     1      33.573 -11.463 -25.052  0.00  0.00    -0.245 NA
ATOM     25  C   UNL     1      33.984 -10.524 -24.186  0.00  0.00    +0.090 C 
ATOM     26  C   UNL     1      35.037  -9.662 -24.375  0.00  0.00    +0.018 C 
ATOM     27  C   UNL     1      35.739  -9.775 -25.569  0.00  0.00    +0.003 C 
ATOM     28  C   UNL     1      34.280 -11.542 -26.202  0.00  0.00    +0.099 C 
ATOM     29  C   UNL     1      35.360 -10.730 -26.505  0.00  0.00    +0.021 C 
ENDBRANCH  16  25
ENDBRANCH   1  16
TORSDOF 9
ENDMDL
MODEL 9
REMARK VINA RESULT:      -8.3      2.170      4.145
REMARK  Name = 2350
REMARK  9 active torsions:
REMARK  status: ('A' for Active; 'I' for Inactive)
REMARK    1  A    between atoms: O_1  and  C_3
REMARK    2  A    between atoms: O_1  and  C_16
REMARK    3  A    between atoms: N_2  and  C_9
REMARK    4  A    between atoms: C_9  and  C_10
REMARK    5  A    between atoms: C_10  and  C_11
REMARK    6  A    between atoms: C_11  and  C_13
REMARK    7  A    between atoms: C_13  and  O_14
REMARK    8  A    between atoms: C_16  and  C_18
REMARK    9  A    between atoms: C_16  and  C_25
REMARK                            x       y       z     vdW  Elec       q    Type
REMARK                         _______ _______ _______ _____ _____    ______ ____
ROOT
ATOM      1  O   UNL     1      35.716 -22.582 -16.354  0.00  0.00    -0.348 OA
ENDROOT
BRANCH   1   3
ATOM      2  N   UNL     1      35.352 -20.466 -19.947  0.00  0.00    +0.387 N 
ATOM      3  C   UNL     1      35.758 -22.358 -17.758  0.00  0.00    +0.112 C 
ATOM      4  C   UNL     1      36.743 -21.232 -18.053  0.00  0.00    +0.007 C 
ATOM      5  C   UNL     1      34.367 -21.992 -18.270  0.00  0.00    +0.007 C 
ATOM      6  C   UNL     1      36.711 -20.837 -19.529  0.00  0.00    -0.075 C 
ATOM      7  C   UNL     1      34.408 -21.574 -19.739  0.00  0.00    -0.075 C 
ATOM      8  H   UNL     1      35.047 -19.684 -19.369  0.00  0.00    -0.080 HD
BRANCH   2   9
ATOM      9  C   UNL     1      35.344 -20.045 -21.348  0.00  0.00    -0.077 C 
BRANCH   9  10
ATOM     10  C   UNL     1      34.409 -18.849 -21.536  0.00  0.00    -0.011 C 
BRANCH  10  11
ATOM     11  C   UNL     1      35.167 -17.563 -21.855  0.00  0.00    +0.107 C 
BRANCH  11  13
ATOM     12  O   UNL     1      34.658 -17.979 -24.179  0.00  0.00    -0.250 OA
ATOM     13  C   UNL     1      35.103 -17.224 -23.323  0.00  0.00    +0.314 C 
BRANCH  13  14
ATOM     14  O   UNL     1      35.618 -16.001 -23.605  0.00  0.00    -0.480 OA
ATOM     15  H   UNL     1      36.503 -15.801 -23.374  0.00  0.00    +0.295 HD
ENDBRANCH  13  14
ENDBRANCH  11  13
ENDBRANCH  10  11
ENDBRANCH   9  10
ENDBRANCH   2   9
ENDBRANCH   1   3
BRANCH   1  16
ATOM     16  C   UNL     1      35.298 -23.906 -16.050  0.00  0.00    +0.177 C 
BRANCH  16  18
ATOM     17 CL   UNL     1      30.210 -23.802 -12.867  0.00  0.00    -0.082 Cl
ATOM     18  C   UNL     1      34.015 -23.878 -15.246  0.00  0.00    +0.010 C 
ATOM     19  C   UNL     1      34.045 -24.249 -13.914  0.00  0.00    -0.001 C 
ATOM     20  C   UNL     1      32.840 -23.484 -15.864  0.00  0.00    -0.001 C 
ATOM     21  C   UNL     1      32.863 -24.224 -13.174  0.00  0.00    +0.011 C 
ATOM     22  C   UNL     1      31.658 -23.461 -15.124  0.00  0.00    +0.011 C 
ATOM     23  C   UNL     1      31.669 -23.830 -13.780  0.00  0.00    +0.058 C 
ENDBRANCH  16  18
BRANCH  16  25
ATOM     24  N   UNL     1      36.292 -26.027 -15.431  0.00  0.00    -0.245 NA
ATOM     25  C   UNL     1      36.404 -24.691 -15.372  0.00  0.00    +0.090 C 
ATOM     26  C   UNL     1      37.420 -23.996 -14.761  0.00  0.00    +0.018 C 
ATOM     27  C   UNL     1      38.418 -24.745 -14.149  0.00  0.00    +0.003 C 
ATOM     28  C   UNL     1      37.281 -26.720 -14.825  0.00  0.00    +0.099 C 
ATOM     29  C   UNL     1      38.355 -26.134 -14.177  0.00  0.00    +0.021 C 
ENDBRANCH  16  25
ENDBRANCH   1  16
TORSDOF 9
ENDMDL
