MODEL 1
REMARK VINA RESULT:      -8.3      0.000      0.000
REMARK  Name = 440936
REMARK  8 active torsions:
REMARK  status: ('A' for Active; 'I' for Inactive)
REMARK    1  A    between atoms: C_2  and  O_7
REMARK    2  A    between atoms: C_3  and  O_9
REMARK    3  A    between atoms: C_4  and  O_11
REMARK    4  A    between atoms: C_5  and  C_22
REMARK    5  A    between atoms: C_6  and  O_13
REMARK    6  A    between atoms: O_13  and  C_14
REMARK    7  A    between atoms: C_19  and  O_20
REMARK    8  A    between atoms: C_22  and  O_23
REMARK                            x       y       z     vdW  Elec       q    Type
REMARK                         _______ _______ _______ _____ _____    ______ ____
ROOT
ATOM      1  O   UNL     1      36.353 -23.539 -13.878  0.00  0.00    -0.316 OA
ATOM      2  C   UNL     1      37.312 -26.247 -13.916  0.00  0.00    +0.173 C 
ATOM      3  C   UNL     1      37.768 -25.230 -12.869  0.00  0.00    +0.169 C 
ATOM      4  C   UNL     1      36.783 -25.550 -15.171  0.00  0.00    +0.210 C 
ATOM      5  C   UNL     1      36.690 -24.167 -12.641  0.00  0.00    +0.177 C 
ATOM      6  C   UNL     1      35.783 -24.450 -14.816  0.00  0.00    +0.318 C 
ENDROOT
BRANCH   2   7
ATOM      7  O   UNL     1      38.435 -27.059 -14.261  0.00  0.00    -0.379 OA
ATOM      8  H   UNL     1      38.519 -27.103 -15.226  0.00  0.00    +0.211 HD
ENDBRANCH   2   7
BRANCH   3   9
ATOM      9  O   UNL     1      38.032 -25.904 -11.642  0.00  0.00    -0.379 OA
ATOM     10  H   UNL     1      38.137 -26.854 -11.811  0.00  0.00    +0.211 HD
ENDBRANCH   3   9
BRANCH   4  11
ATOM     11  O   UNL     1      36.121 -26.505 -16.000  0.00  0.00    -0.377 OA
ATOM     12  H   UNL     1      36.720 -27.249 -16.178  0.00  0.00    +0.211 HD
ENDBRANCH   4  11
BRANCH   6  13
ATOM     13  O   UNL     1      35.448 -23.757 -16.018  0.00  0.00    -0.451 OA
BRANCH  13  14
ATOM     14  C   UNL     1      34.124 -23.470 -16.210  0.00  0.00    +0.142 C 
ATOM     15  C   UNL     1      33.687 -23.025 -17.453  0.00  0.00    +0.040 C 
ATOM     16  C   UNL     1      33.225 -23.624 -15.159  0.00  0.00    +0.040 C 
ATOM     17  C   UNL     1      32.337 -22.733 -17.649  0.00  0.00    +0.040 C 
ATOM     18  C   UNL     1      31.875 -23.332 -15.355  0.00  0.00    +0.040 C 
ATOM     19  C   UNL     1      31.431 -22.886 -16.599  0.00  0.00    +0.134 C 
BRANCH  19  20
ATOM     20  O   UNL     1      30.114 -22.601 -16.790  0.00  0.00    -0.506 OA
ATOM     21  H   UNL     1      29.631 -23.044 -17.460  0.00  0.00    +0.292 HD
ENDBRANCH  19  20
ENDBRANCH  13  14
ENDBRANCH   6  13
BRANCH   5  22
ATOM     22  C   UNL     1      37.167 -23.077 -11.687  0.00  0.00    +0.169 C 
BRANCH  22  23
ATOM     23  O   UNL     1      38.583 -23.093 -11.654  0.00  0.00    -0.379 OA
ATOM     24  H   UNL     1      38.896 -24.010 -11.635  0.00  0.00    +0.211 HD
ENDBRANCH  22  23
ENDBRANCH   5  22
TORSDOF 8
ENDMDL
MODEL 2
REMARK VINA RESULT:      -8.3      2.991      5.232
REMARK  Name = 440936
REMARK  8 active torsions:
REMARK  status: ('A' for Active; 'I' for Inactive)
REMARK    1  A    between atoms: C_2  and  O_7
REMARK    2  A    between atoms: C_3  and  O_9
REMARK    3  A    between atoms: C_4  and  O_11
REMARK    4  A    between atoms: C_5  and  C_22
REMARK    5  A    between atoms: C_6  and  O_13
REMARK    6  A    between atoms: O_13  and  C_14
REMARK    7  A    between atoms: C_19  and  O_20
REMARK    8  A    between atoms: C_22  and  O_23
REMARK                            x       y       z     vdW  Elec       q    Type
REMARK                         _______ _______ _______ _____ _____    ______ ____
ROOT
ATOM      1  O   UNL     1      34.551 -23.678 -16.574  0.00  0.00    -0.316 OA
ATOM      2  C   UNL     1      32.112 -23.371 -15.087  0.00  0.00    +0.173 C 
ATOM      3  C   UNL     1      33.343 -24.069 -14.508  0.00  0.00    +0.169 C 
ATOM      4  C   UNL     1      32.142 -23.375 -16.616  0.00  0.00    +0.210 C 
ATOM      5  C   UNL     1      34.623 -23.535 -15.155  0.00  0.00    +0.177 C 
ATOM      6  C   UNL     1      33.497 -22.908 -17.147  0.00  0.00    +0.318 C 
ENDROOT
BRANCH   2   7
ATOM      7  O   UNL     1      30.953 -24.071 -14.632  0.00  0.00    -0.379 OA
ATOM      8  H   UNL     1      30.691 -24.729 -15.294  0.00  0.00    +0.211 HD
ENDBRANCH   2   7
BRANCH   3   9
ATOM      9  O   UNL     1      33.395 -23.844 -13.103  0.00  0.00    -0.379 OA
ATOM     10  H   UNL     1      33.900 -24.555 -12.679  0.00  0.00    +0.211 HD
ENDBRANCH   3   9
BRANCH   4  11
ATOM     11  O   UNL     1      31.138 -22.489 -17.112  0.00  0.00    -0.377 OA
ATOM     12  H   UNL     1      30.357 -22.531 -16.537  0.00  0.00    +0.211 HD
ENDBRANCH   4  11
BRANCH   6  13
ATOM     13  O   UNL     1      33.494 -23.075 -18.565  0.00  0.00    -0.451 OA
BRANCH  13  14
ATOM     14  C   UNL     1      33.993 -22.037 -19.304  0.00  0.00    +0.142 C 
ATOM     15  C   UNL     1      33.122 -21.117 -19.878  0.00  0.00    +0.040 C 
ATOM     16  C   UNL     1      35.368 -21.911 -19.477  0.00  0.00    +0.040 C 
ATOM     17  C   UNL     1      33.631 -20.058 -20.631  0.00  0.00    +0.040 C 
ATOM     18  C   UNL     1      35.877 -20.853 -20.231  0.00  0.00    +0.040 C 
ATOM     19  C   UNL     1      35.009 -19.928 -20.808  0.00  0.00    +0.134 C 
BRANCH  19  20
ATOM     20  O   UNL     1      35.505 -18.895 -21.543  0.00  0.00    -0.506 OA
ATOM     21  H   UNL     1      35.299 -18.828 -22.455  0.00  0.00    +0.292 HD
ENDBRANCH  19  20
ENDBRANCH  13  14
ENDBRANCH   6  13
BRANCH   5  22
ATOM     22  C   UNL     1      35.856 -24.297 -14.678  0.00  0.00    +0.169 C 
BRANCH  22  23
ATOM     23  O   UNL     1      35.455 -25.591 -14.266  0.00  0.00    -0.379 OA
ATOM     24  H   UNL     1      35.669 -25.713 -13.328  0.00  0.00    +0.211 HD
ENDBRANCH  22  23
ENDBRANCH   5  22
TORSDOF 8
ENDMDL
MODEL 3
REMARK VINA RESULT:      -8.1      7.657     10.957
REMARK  Name = 440936
REMARK  8 active torsions:
REMARK  status: ('A' for Active; 'I' for Inactive)
REMARK    1  A    between atoms: C_2  and  O_7
REMARK    2  A    between atoms: C_3  and  O_9
REMARK    3  A    between atoms: C_4  and  O_11
REMARK    4  A    between atoms: C_5  and  C_22
REMARK    5  A    between atoms: C_6  and  O_13
REMARK    6  A    between atoms: O_13  and  C_14
REMARK    7  A    between atoms: C_19  and  O_20
REMARK    8  A    between atoms: C_22  and  O_23
REMARK                            x       y       z     vdW  Elec       q    Type
REMARK                         _______ _______ _______ _____ _____    ______ ____
ROOT
ATOM      1  O   UNL     1      35.043 -18.152 -23.036  0.00  0.00    -0.316 OA
ATOM      2  C   UNL     1      34.357 -15.471 -22.266  0.00  0.00    +0.173 C 
ATOM      3  C   UNL     1      34.453 -15.905 -23.729  0.00  0.00    +0.169 C 
ATOM      4  C   UNL     1      35.166 -16.399 -21.360  0.00  0.00    +0.210 C 
ATOM      5  C   UNL     1      34.161 -17.401 -23.871  0.00  0.00    +0.177 C 
ATOM      6  C   UNL     1      34.859 -17.868 -21.651  0.00  0.00    +0.318 C 
ENDROOT
BRANCH   2   7
ATOM      7  O   UNL     1      34.870 -14.142 -22.166  0.00  0.00    -0.379 OA
ATOM      8  H   UNL     1      34.333 -13.635 -21.538  0.00  0.00    +0.211 HD
ENDBRANCH   2   7
BRANCH   3   9
ATOM      9  O   UNL     1      33.511 -15.167 -24.502  0.00  0.00    -0.379 OA
ATOM     10  H   UNL     1      33.167 -15.728 -25.215  0.00  0.00    +0.211 HD
ENDBRANCH   3   9
BRANCH   4  11
ATOM     11  O   UNL     1      34.836 -16.135 -19.996  0.00  0.00    -0.377 OA
ATOM     12  H   UNL     1      33.898 -15.893 -19.931  0.00  0.00    +0.211 HD
ENDBRANCH   4  11
BRANCH   6  13
ATOM     13  O   UNL     1      35.750 -18.666 -20.872  0.00  0.00    -0.451 OA
BRANCH  13  14
ATOM     14  C   UNL     1      35.250 -19.840 -20.381  0.00  0.00    +0.142 C 
ATOM     15  C   UNL     1      36.115 -20.791 -19.849  0.00  0.00    +0.040 C 
ATOM     16  C   UNL     1      33.879 -20.075 -20.416  0.00  0.00    +0.040 C 
ATOM     17  C   UNL     1      35.605 -21.988 -19.347  0.00  0.00    +0.040 C 
ATOM     18  C   UNL     1      33.368 -21.273 -19.915  0.00  0.00    +0.040 C 
ATOM     19  C   UNL     1      34.231 -22.229 -19.381  0.00  0.00    +0.134 C 
BRANCH  19  20
ATOM     20  O   UNL     1      33.733 -23.397 -18.891  0.00  0.00    -0.506 OA
ATOM     21  H   UNL     1      34.008 -24.215 -19.259  0.00  0.00    +0.292 HD
ENDBRANCH  19  20
ENDBRANCH  13  14
ENDBRANCH   6  13
BRANCH   5  22
ATOM     22  C   UNL     1      34.364 -17.882 -25.305  0.00  0.00    +0.169 C 
BRANCH  22  23
ATOM     23  O   UNL     1      34.973 -16.841 -26.048  0.00  0.00    -0.379 OA
ATOM     24  H   UNL     1      35.895 -16.741 -25.768  0.00  0.00    +0.211 HD
ENDBRANCH  22  23
ENDBRANCH   5  22
TORSDOF 8
ENDMDL
MODEL 4
REMARK VINA RESULT:      -8.0      7.209     10.421
REMARK  Name = 440936
REMARK  8 active torsions:
REMARK  status: ('A' for Active; 'I' for Inactive)
REMARK    1  A    between atoms: C_2  and  O_7
REMARK    2  A    between atoms: C_3  and  O_9
REMARK    3  A    between atoms: C_4  and  O_11
REMARK    4  A    between atoms: C_5  and  C_22
REMARK    5  A    between atoms: C_6  and  O_13
REMARK    6  A    between atoms: O_13  and  C_14
REMARK    7  A    between atoms: C_19  and  O_20
REMARK    8  A    between atoms: C_22  and  O_23
REMARK                            x       y       z     vdW  Elec       q    Type
REMARK                         _______ _______ _______ _____ _____    ______ ____
ROOT
ATOM      1  O   UNL     1      33.451 -17.316 -21.207  0.00  0.00    -0.316 OA
ATOM      2  C   UNL     1      35.251 -16.510 -23.295  0.00  0.00    +0.173 C 
ATOM      3  C   UNL     1      34.279 -15.536 -22.630  0.00  0.00    +0.169 C 
ATOM      4  C   UNL     1      34.782 -17.957 -23.135  0.00  0.00    +0.210 C 
ATOM      5  C   UNL     1      33.959 -15.981 -21.201  0.00  0.00    +0.177 C 
ATOM      6  C   UNL     1      34.405 -18.261 -21.685  0.00  0.00    +0.318 C 
ENDROOT
BRANCH   2   7
ATOM      7  O   UNL     1      35.321 -16.184 -24.684  0.00  0.00    -0.379 OA
ATOM      8  H   UNL     1      36.206 -15.847 -24.893  0.00  0.00    +0.211 HD
ENDBRANCH   2   7
BRANCH   3   9
ATOM      9  O   UNL     1      34.862 -14.236 -22.599  0.00  0.00    -0.379 OA
ATOM     10  H   UNL     1      35.826 -14.312 -22.672  0.00  0.00    +0.211 HD
ENDBRANCH   3   9
BRANCH   4  11
ATOM     11  O   UNL     1      35.834 -18.841 -23.518  0.00  0.00    -0.377 OA
ATOM     12  H   UNL     1      36.484 -18.358 -24.054  0.00  0.00    +0.211 HD
ENDBRANCH   4  11
BRANCH   6  13
ATOM     13  O   UNL     1      33.846 -19.574 -21.643  0.00  0.00    -0.451 OA
BRANCH  13  14
ATOM     14  C   UNL     1      34.260 -20.383 -20.621  0.00  0.00    +0.142 C 
ATOM     15  C   UNL     1      33.323 -21.102 -19.886  0.00  0.00    +0.040 C 
ATOM     16  C   UNL     1      35.616 -20.481 -20.323  0.00  0.00    +0.040 C 
ATOM     17  C   UNL     1      33.745 -21.929 -18.844  0.00  0.00    +0.040 C 
ATOM     18  C   UNL     1      36.038 -21.306 -19.282  0.00  0.00    +0.040 C 
ATOM     19  C   UNL     1      35.103 -22.030 -18.542  0.00  0.00    +0.134 C 
BRANCH  19  20
ATOM     20  O   UNL     1      35.515 -22.836 -17.526  0.00  0.00    -0.506 OA
ATOM     21  H   UNL     1      34.940 -23.494 -17.186  0.00  0.00    +0.292 HD
ENDBRANCH  19  20
ENDBRANCH  13  14
ENDBRANCH   6  13
BRANCH   5  22
ATOM     22  C   UNL     1      32.902 -15.089 -20.556  0.00  0.00    +0.169 C 
BRANCH  22  23
ATOM     23  O   UNL     1      32.066 -14.571 -21.575  0.00  0.00    -0.379 OA
ATOM     24  H   UNL     1      32.338 -14.932 -22.432  0.00  0.00    +0.211 HD
ENDBRANCH  22  23
ENDBRANCH   5  22
TORSDOF 8
ENDMDL
MODEL 5
REMARK VINA RESULT:      -7.9      2.121      3.360
REMARK  Name = 440936
REMARK  8 active torsions:
REMARK  status: ('A' for Active; 'I' for Inactive)
REMARK    1  A    between atoms: C_2  and  O_7
REMARK    2  A    between atoms: C_3  and  O_9
REMARK    3  A    between atoms: C_4  and  O_11
REMARK    4  A    between atoms: C_5  and  C_22
REMARK    5  A    between atoms: C_6  and  O_13
REMARK    6  A    between atoms: O_13  and  C_14
REMARK    7  A    between atoms: C_19  and  O_20
REMARK    8  A    between atoms: C_22  and  O_23
REMARK                            x       y       z     vdW  Elec       q    Type
REMARK                         _______ _______ _______ _____ _____    ______ ____
ROOT
ATOM      1  O   UNL     1      36.502 -24.462 -14.631  0.00  0.00    -0.316 OA
ATOM      2  C   UNL     1      35.749 -24.301 -11.864  0.00  0.00    +0.173 C 
ATOM      3  C   UNL     1      37.042 -24.974 -12.324  0.00  0.00    +0.169 C 
ATOM      4  C   UNL     1      34.721 -24.246 -12.994  0.00  0.00    +0.210 C 
ATOM      5  C   UNL     1      37.529 -24.370 -13.643  0.00  0.00    +0.177 C 
ATOM      6  C   UNL     1      35.341 -23.710 -14.284  0.00  0.00    +0.318 C 
ENDROOT
BRANCH   2   7
ATOM      7  O   UNL     1      35.220 -25.058 -10.775  0.00  0.00    -0.379 OA
ATOM      8  H   UNL     1      35.527 -24.679  -9.937  0.00  0.00    +0.211 HD
ENDBRANCH   2   7
BRANCH   3   9
ATOM      9  O   UNL     1      38.045 -24.799 -11.328  0.00  0.00    -0.379 OA
ATOM     10  H   UNL     1      38.694 -25.517 -11.393  0.00  0.00    +0.211 HD
ENDBRANCH   3   9
BRANCH   4  11
ATOM     11  O   UNL     1      33.651 -23.379 -12.619  0.00  0.00    -0.377 OA
ATOM     12  H   UNL     1      32.802 -23.815 -12.801  0.00  0.00    +0.211 HD
ENDBRANCH   4  11
BRANCH   6  13
ATOM     13  O   UNL     1      34.366 -23.824 -15.320  0.00  0.00    -0.451 OA
BRANCH  13  14
ATOM     14  C   UNL     1      34.642 -23.180 -16.495  0.00  0.00    +0.142 C 
ATOM     15  C   UNL     1      33.693 -23.159 -17.512  0.00  0.00    +0.040 C 
ATOM     16  C   UNL     1      35.872 -22.551 -16.665  0.00  0.00    +0.040 C 
ATOM     17  C   UNL     1      33.975 -22.502 -18.710  0.00  0.00    +0.040 C 
ATOM     18  C   UNL     1      36.154 -21.894 -17.862  0.00  0.00    +0.040 C 
ATOM     19  C   UNL     1      35.206 -21.870 -18.885  0.00  0.00    +0.134 C 
BRANCH  19  20
ATOM     20  O   UNL     1      35.481 -21.229 -20.053  0.00  0.00    -0.506 OA
ATOM     21  H   UNL     1      36.104 -21.592 -20.652  0.00  0.00    +0.292 HD
ENDBRANCH  19  20
ENDBRANCH  13  14
ENDBRANCH   6  13
BRANCH   5  22
ATOM     22  C   UNL     1      38.753 -25.103 -14.183  0.00  0.00    +0.169 C 
BRANCH  22  23
ATOM     23  O   UNL     1      39.248 -24.393 -15.303  0.00  0.00    -0.379 OA
ATOM     24  H   UNL     1      40.217 -24.407 -15.293  0.00  0.00    +0.211 HD
ENDBRANCH  22  23
ENDBRANCH   5  22
TORSDOF 8
ENDMDL
MODEL 6
REMARK VINA RESULT:      -7.8      3.699      5.556
REMARK  Name = 440936
REMARK  8 active torsions:
REMARK  status: ('A' for Active; 'I' for Inactive)
REMARK    1  A    between atoms: C_2  and  O_7
REMARK    2  A    between atoms: C_3  and  O_9
REMARK    3  A    between atoms: C_4  and  O_11
REMARK    4  A    between atoms: C_5  and  C_22
REMARK    5  A    between atoms: C_6  and  O_13
REMARK    6  A    between atoms: O_13  and  C_14
REMARK    7  A    between atoms: C_19  and  O_20
REMARK    8  A    between atoms: C_22  and  O_23
REMARK                            x       y       z     vdW  Elec       q    Type
REMARK                         _______ _______ _______ _____ _____    ______ ____
ROOT
ATOM      1  O   UNL     1      35.663 -22.896 -17.352  0.00  0.00    -0.316 OA
ATOM      2  C   UNL     1      33.126 -23.202 -16.040  0.00  0.00    +0.173 C 
ATOM      3  C   UNL     1      34.433 -23.699 -15.423  0.00  0.00    +0.169 C 
ATOM      4  C   UNL     1      33.249 -23.060 -17.558  0.00  0.00    +0.210 C 
ATOM      5  C   UNL     1      35.619 -22.872 -15.925  0.00  0.00    +0.177 C 
ATOM      6  C   UNL     1      34.514 -22.295 -17.944  0.00  0.00    +0.318 C 
ENDROOT
BRANCH   2   7
ATOM      7  O   UNL     1      32.103 -24.150 -15.732  0.00  0.00    -0.379 OA
ATOM      8  H   UNL     1      32.321 -24.602 -14.902  0.00  0.00    +0.211 HD
ENDBRANCH   2   7
BRANCH   3   9
ATOM      9  O   UNL     1      34.354 -23.597 -14.004  0.00  0.00    -0.379 OA
ATOM     10  H   UNL     1      33.452 -23.808 -13.715  0.00  0.00    +0.211 HD
ENDBRANCH   3   9
BRANCH   4  11
ATOM     11  O   UNL     1      32.122 -22.343 -18.059  0.00  0.00    -0.377 OA
ATOM     12  H   UNL     1      31.722 -21.825 -17.342  0.00  0.00    +0.211 HD
ENDBRANCH   4  11
BRANCH   6  13
ATOM     13  O   UNL     1      34.631 -22.329 -19.366  0.00  0.00    -0.451 OA
BRANCH  13  14
ATOM     14  C   UNL     1      34.865 -21.134 -19.991  0.00  0.00    +0.142 C 
ATOM     15  C   UNL     1      36.169 -20.669 -20.125  0.00  0.00    +0.040 C 
ATOM     16  C   UNL     1      33.796 -20.393 -20.486  0.00  0.00    +0.040 C 
ATOM     17  C   UNL     1      36.408 -19.451 -20.763  0.00  0.00    +0.040 C 
ATOM     18  C   UNL     1      34.035 -19.175 -21.123  0.00  0.00    +0.040 C 
ATOM     19  C   UNL     1      35.340 -18.704 -21.261  0.00  0.00    +0.134 C 
BRANCH  19  20
ATOM     20  O   UNL     1      35.573 -17.516 -21.883  0.00  0.00    -0.506 OA
ATOM     21  H   UNL     1      36.330 -17.011 -21.659  0.00  0.00    +0.292 HD
ENDBRANCH  19  20
ENDBRANCH  13  14
ENDBRANCH   6  13
BRANCH   5  22
ATOM     22  C   UNL     1      36.947 -23.423 -15.414  0.00  0.00    +0.169 C 
BRANCH  22  23
ATOM     23  O   UNL     1      36.934 -24.832 -15.550  0.00  0.00    -0.379 OA
ATOM     24  H   UNL     1      36.297 -25.085 -16.236  0.00  0.00    +0.211 HD
ENDBRANCH  22  23
ENDBRANCH   5  22
TORSDOF 8
ENDMDL
MODEL 7
REMARK VINA RESULT:      -7.7      1.596      2.785
REMARK  Name = 440936
REMARK  8 active torsions:
REMARK  status: ('A' for Active; 'I' for Inactive)
REMARK    1  A    between atoms: C_2  and  O_7
REMARK    2  A    between atoms: C_3  and  O_9
REMARK    3  A    between atoms: C_4  and  O_11
REMARK    4  A    between atoms: C_5  and  C_22
REMARK    5  A    between atoms: C_6  and  O_13
REMARK    6  A    between atoms: O_13  and  C_14
REMARK    7  A    between atoms: C_19  and  O_20
REMARK    8  A    between atoms: C_22  and  O_23
REMARK                            x       y       z     vdW  Elec       q    Type
REMARK                         _______ _______ _______ _____ _____    ______ ____
ROOT
ATOM      1  O   UNL     1      36.736 -24.902 -14.120  0.00  0.00    -0.316 OA
ATOM      2  C   UNL     1      36.651 -23.534 -11.596  0.00  0.00    +0.173 C 
ATOM      3  C   UNL     1      37.937 -24.144 -12.156  0.00  0.00    +0.169 C 
ATOM      4  C   UNL     1      35.414 -24.190 -12.211  0.00  0.00    +0.210 C 
ATOM      5  C   UNL     1      37.894 -24.190 -13.685  0.00  0.00    +0.177 C 
ATOM      6  C   UNL     1      35.522 -24.261 -13.734  0.00  0.00    +0.318 C 
ENDROOT
BRANCH   2   7
ATOM      7  O   UNL     1      36.645 -23.738 -10.182  0.00  0.00    -0.379 OA
ATOM      8  H   UNL     1      37.354 -24.355  -9.941  0.00  0.00    +0.211 HD
ENDBRANCH   2   7
BRANCH   3   9
ATOM      9  O   UNL     1      39.051 -23.359 -11.739  0.00  0.00    -0.379 OA
ATOM     10  H   UNL     1      38.746 -22.653 -11.148  0.00  0.00    +0.211 HD
ENDBRANCH   3   9
BRANCH   4  11
ATOM     11  O   UNL     1      34.258 -23.422 -11.880  0.00  0.00    -0.377 OA
ATOM     12  H   UNL     1      33.626 -23.979 -11.398  0.00  0.00    +0.211 HD
ENDBRANCH   4  11
BRANCH   6  13
ATOM     13  O   UNL     1      34.407 -25.008 -14.219  0.00  0.00    -0.451 OA
BRANCH  13  14
ATOM     14  C   UNL     1      33.486 -24.320 -14.962  0.00  0.00    +0.142 C 
ATOM     15  C   UNL     1      33.865 -23.744 -16.170  0.00  0.00    +0.040 C 
ATOM     16  C   UNL     1      32.177 -24.203 -14.504  0.00  0.00    +0.040 C 
ATOM     17  C   UNL     1      32.927 -23.044 -16.929  0.00  0.00    +0.040 C 
ATOM     18  C   UNL     1      31.239 -23.503 -15.262  0.00  0.00    +0.040 C 
ATOM     19  C   UNL     1      31.614 -22.923 -16.474  0.00  0.00    +0.134 C 
BRANCH  19  20
ATOM     20  O   UNL     1      30.698 -22.240 -17.214  0.00  0.00    -0.506 OA
ATOM     21  H   UNL     1      30.744 -22.259 -18.150  0.00  0.00    +0.292 HD
ENDBRANCH  19  20
ENDBRANCH  13  14
ENDBRANCH   6  13
BRANCH   5  22
ATOM     22  C   UNL     1      39.115 -24.900 -14.262  0.00  0.00    +0.169 C 
BRANCH  22  23
ATOM     23  O   UNL     1      39.393 -24.353 -15.539  0.00  0.00    -0.379 OA
ATOM     24  H   UNL     1      39.512 -25.071 -16.179  0.00  0.00    +0.211 HD
ENDBRANCH  22  23
ENDBRANCH   5  22
TORSDOF 8
ENDMDL
MODEL 8
REMARK VINA RESULT:      -7.6      2.042      2.595
REMARK  Name = 440936
REMARK  8 active torsions:
REMARK  status: ('A' for Active; 'I' for Inactive)
REMARK    1  A    between atoms: C_2  and  O_7
REMARK    2  A    between atoms: C_3  and  O_9
REMARK    3  A    between atoms: C_4  and  O_11
REMARK    4  A    between atoms: C_5  and  C_22
REMARK    5  A    between atoms: C_6  and  O_13
REMARK    6  A    between atoms: O_13  and  C_14
REMARK    7  A    between atoms: C_19  and  O_20
REMARK    8  A    between atoms: C_22  and  O_23
REMARK                            x       y       z     vdW  Elec       q    Type
REMARK                         _______ _______ _______ _____ _____    ______ ____
ROOT
ATOM      1  O   UNL     1      35.227 -23.363 -13.214  0.00  0.00    -0.316 OA
ATOM      2  C   UNL     1      37.205 -23.700 -15.269  0.00  0.00    +0.173 C 
ATOM      3  C   UNL     1      37.567 -23.640 -13.785  0.00  0.00    +0.169 C 
ATOM      4  C   UNL     1      35.855 -23.035 -15.537  0.00  0.00    +0.210 C 
ATOM      5  C   UNL     1      36.399 -24.125 -12.922  0.00  0.00    +0.177 C 
ATOM      6  C   UNL     1      34.788 -23.530 -14.560  0.00  0.00    +0.318 C 
ENDROOT
BRANCH   2   7
ATOM      7  O   UNL     1      38.225 -23.018 -16.000  0.00  0.00    -0.379 OA
ATOM      8  H   UNL     1      37.919 -22.853 -16.905  0.00  0.00    +0.211 HD
ENDBRANCH   2   7
BRANCH   3   9
ATOM      9  O   UNL     1      38.704 -24.464 -13.543  0.00  0.00    -0.379 OA
ATOM     10  H   UNL     1      39.426 -24.200 -14.135  0.00  0.00    +0.211 HD
ENDBRANCH   3   9
BRANCH   4  11
ATOM     11  O   UNL     1      35.427 -23.349 -16.862  0.00  0.00    -0.377 OA
ATOM     12  H   UNL     1      34.457 -23.352 -16.898  0.00  0.00    +0.211 HD
ENDBRANCH   4  11
BRANCH   6  13
ATOM     13  O   UNL     1      33.604 -22.764 -14.779  0.00  0.00    -0.451 OA
BRANCH  13  14
ATOM     14  C   UNL     1      32.416 -23.438 -14.703  0.00  0.00    +0.142 C 
ATOM     15  C   UNL     1      31.391 -23.135 -15.593  0.00  0.00    +0.040 C 
ATOM     16  C   UNL     1      32.242 -24.423 -13.735  0.00  0.00    +0.040 C 
ATOM     17  C   UNL     1      30.180 -23.823 -15.516  0.00  0.00    +0.040 C 
ATOM     18  C   UNL     1      31.031 -25.110 -13.657  0.00  0.00    +0.040 C 
ATOM     19  C   UNL     1      30.000 -24.811 -14.547  0.00  0.00    +0.134 C 
BRANCH  19  20
ATOM     20  O   UNL     1      28.819 -25.482 -14.472  0.00  0.00    -0.506 OA
ATOM     21  H   UNL     1      28.018 -25.049 -14.698  0.00  0.00    +0.292 HD
ENDBRANCH  19  20
ENDBRANCH  13  14
ENDBRANCH   6  13
BRANCH   5  22
ATOM     22  C   UNL     1      36.693 -23.965 -11.434  0.00  0.00    +0.169 C 
BRANCH  22  23
ATOM     23  O   UNL     1      37.552 -22.852 -11.260  0.00  0.00    -0.379 OA
ATOM     24  H   UNL     1      38.073 -22.969 -10.451  0.00  0.00    +0.211 HD
ENDBRANCH  22  23
ENDBRANCH   5  22
TORSDOF 8
ENDMDL
MODEL 9
REMARK VINA RESULT:      -7.5     11.583     14.350
REMARK  Name = 440936
REMARK  8 active torsions:
REMARK  status: ('A' for Active; 'I' for Inactive)
REMARK    1  A    between atoms: C_2  and  O_7
REMARK    2  A    between atoms: C_3  and  O_9
REMARK    3  A    between atoms: C_4  and  O_11
REMARK    4  A    between atoms: C_5  and  C_22
REMARK    5  A    between atoms: C_6  and  O_13
REMARK    6  A    between atoms: O_13  and  C_14
REMARK    7  A    between atoms: C_19  and  O_20
REMARK    8  A    between atoms: C_22  and  O_23
REMARK                            x       y       z     vdW  Elec       q    Type
REMARK                         _______ _______ _______ _____ _____    ______ ____
ROOT
ATOM      1  O   UNL     1      32.469 -13.799 -23.799  0.00  0.00    -0.316 OA
ATOM      2  C   UNL     1      34.156 -15.666 -22.415  0.00  0.00    +0.173 C 
ATOM      3  C   UNL     1      33.935 -15.726 -23.926  0.00  0.00    +0.169 C 
ATOM      4  C   UNL     1      33.016 -14.923 -21.717  0.00  0.00    +0.210 C 
ATOM      5  C   UNL     1      33.603 -14.338 -24.480  0.00  0.00    +0.177 C 
ATOM      6  C   UNL     1      32.713 -13.594 -22.410  0.00  0.00    +0.318 C 
ENDROOT
BRANCH   2   7
ATOM      7  O   UNL     1      34.220 -17.007 -21.925  0.00  0.00    -0.379 OA
ATOM      8  H   UNL     1      34.187 -16.999 -20.956  0.00  0.00    +0.211 HD
ENDBRANCH   2   7
BRANCH   3   9
ATOM      9  O   UNL     1      35.116 -16.214 -24.556  0.00  0.00    -0.379 OA
ATOM     10  H   UNL     1      35.879 -16.062 -23.976  0.00  0.00    +0.211 HD
ENDBRANCH   3   9
BRANCH   4  11
ATOM     11  O   UNL     1      33.386 -14.649 -20.366  0.00  0.00    -0.377 OA
ATOM     12  H   UNL     1      34.000 -13.897 -20.344  0.00  0.00    +0.211 HD
ENDBRANCH   4  11
BRANCH   6  13
ATOM     13  O   UNL     1      31.554 -13.033 -21.794  0.00  0.00    -0.451 OA
BRANCH  13  14
ATOM     14  C   UNL     1      31.697 -11.792 -21.237  0.00  0.00    +0.142 C 
ATOM     15  C   UNL     1      31.863 -10.681 -22.059  0.00  0.00    +0.040 C 
ATOM     16  C   UNL     1      31.677 -11.649 -19.853  0.00  0.00    +0.040 C 
ATOM     17  C   UNL     1      32.007  -9.415 -21.491  0.00  0.00    +0.040 C 
ATOM     18  C   UNL     1      31.823 -10.384 -19.285  0.00  0.00    +0.040 C 
ATOM     19  C   UNL     1      31.988  -9.267 -20.104  0.00  0.00    +0.134 C 
BRANCH  19  20
ATOM     20  O   UNL     1      32.130  -8.032 -19.550  0.00  0.00    -0.506 OA
ATOM     21  H   UNL     1      32.986  -7.680 -19.401  0.00  0.00    +0.292 HD
ENDBRANCH  19  20
ENDBRANCH  13  14
ENDBRANCH   6  13
BRANCH   5  22
ATOM     22  C   UNL     1      33.264 -14.391 -25.967  0.00  0.00    +0.169 C 
BRANCH  22  23
ATOM     23  O   UNL     1      33.092 -15.745 -26.343  0.00  0.00    -0.379 OA
ATOM     24  H   UNL     1      33.112 -15.818 -27.309  0.00  0.00    +0.211 HD
ENDBRANCH  22  23
ENDBRANCH   5  22
TORSDOF 8
ENDMDL
