MODEL 1
REMARK VINA RESULT:     -10.7      0.000      0.000
REMARK  Name = 448955
REMARK  8 active torsions:
REMARK  status: ('A' for Active; 'I' for Inactive)
REMARK    1  A    between atoms: C_1  and  N_8
REMARK    2  A    between atoms: C_2  and  O_19
REMARK    3  A    between atoms: N_8  and  S_10
REMARK    4  A    between atoms: S_10  and  C_13
REMARK    5  A    between atoms: O_19  and  C_20
REMARK    6  A    between atoms: C_20  and  C_21
REMARK    7  A    between atoms: C_21  and  N_22
REMARK    8  A    between atoms: N_22  and  C_25
REMARK                            x       y       z     vdW  Elec       q    Type
REMARK                         _______ _______ _______ _____ _____    ______ ____
ROOT
ATOM      1  C   UNL     1      31.863 -23.179 -16.330  0.00  0.00    +0.067 C 
ATOM      2  C   UNL     1      32.343 -23.918 -14.081  0.00  0.00    +0.140 C 
ATOM      3  C   UNL     1      30.181 -24.364 -15.064  0.00  0.00    -0.018 C 
ATOM      4  C   UNL     1      32.743 -23.277 -15.253  0.00  0.00    +0.053 C 
ATOM      5  C   UNL     1      30.582 -23.723 -16.236  0.00  0.00    +0.012 C 
ATOM      6  C   UNL     1      31.062 -24.462 -13.987  0.00  0.00    +0.033 C 
ATOM      7  C   UNL     1      28.812 -24.946 -14.964  0.00  0.00    +0.031 C 
ENDROOT
BRANCH   1   8
ATOM      8  N   UNL     1      32.273 -22.522 -17.530  0.00  0.00    -0.215 N 
ATOM      9  H   UNL     1      31.694 -21.849 -17.956  0.00  0.00    +0.174 HD
BRANCH   8  10
ATOM     10  S   UNL     1      33.799 -22.928 -18.217  0.00  0.00    +0.074 S 
ATOM     11  O   UNL     1      34.823 -22.814 -17.195  0.00  0.00    -0.150 OA
ATOM     12  O   UNL     1      33.686 -24.150 -18.990  0.00  0.00    -0.150 OA
BRANCH  10  13
ATOM     13  C   UNL     1      34.055 -21.593 -19.350  0.00  0.00    +0.125 C 
ATOM     14  C   UNL     1      35.344 -21.281 -19.743  0.00  0.00    +0.020 C 
ATOM     15  C   UNL     1      32.961 -20.889 -19.820  0.00  0.00    +0.020 C 
ATOM     16  C   UNL     1      35.546 -20.229 -20.637  0.00  0.00    +0.001 C 
ATOM     17  C   UNL     1      33.163 -19.837 -20.714  0.00  0.00    +0.001 C 
ATOM     18  C   UNL     1      34.455 -19.507 -21.122  0.00  0.00    +0.000 C 
ENDBRANCH  10  13
ENDBRANCH   8  10
ENDBRANCH   1   8
BRANCH   2  19
ATOM     19  O   UNL     1      33.201 -24.014 -13.029  0.00  0.00    -0.474 OA
BRANCH  19  20
ATOM     20  C   UNL     1      34.596 -23.967 -13.324  0.00  0.00    +0.226 C 
BRANCH  20  21
ATOM     21  C   UNL     1      35.389 -24.055 -12.031  0.00  0.00    +0.135 C 
BRANCH  21  22
ATOM     22  N   UNL     1      36.120 -25.300 -11.984  0.00  0.00    -0.330 N 
ATOM     23  H   UNL     1      35.860 -25.966 -11.309  0.00  0.00    +0.147 HD
BRANCH  22  25
ATOM     24  N   UNL     1      39.251 -26.224 -14.531  0.00  0.00    -0.328 N 
ATOM     25  C   UNL     1      37.168 -25.609 -12.837  0.00  0.00    +0.043 C 
ATOM     26  C   UNL     1      38.423 -24.995 -12.690  0.00  0.00    +0.009 C 
ATOM     27  C   UNL     1      37.005 -26.545 -13.871  0.00  0.00    +0.030 C 
ATOM     28  C   UNL     1      39.454 -25.325 -13.559  0.00  0.00    +0.115 C 
ATOM     29  C   UNL     1      38.072 -26.834 -14.710  0.00  0.00    +0.059 C 
ATOM     30  H   UNL     1      39.995 -26.443 -15.137  0.00  0.00    +0.147 HD
ENDBRANCH  22  25
ENDBRANCH  21  22
ENDBRANCH  20  21
ENDBRANCH  19  20
ENDBRANCH   2  19
TORSDOF 8
ENDMDL
MODEL 2
REMARK VINA RESULT:     -10.5      7.821     13.445
REMARK  Name = 448955
REMARK  8 active torsions:
REMARK  status: ('A' for Active; 'I' for Inactive)
REMARK    1  A    between atoms: C_1  and  N_8
REMARK    2  A    between atoms: C_2  and  O_19
REMARK    3  A    between atoms: N_8  and  S_10
REMARK    4  A    between atoms: S_10  and  C_13
REMARK    5  A    between atoms: O_19  and  C_20
REMARK    6  A    between atoms: C_20  and  C_21
REMARK    7  A    between atoms: C_21  and  N_22
REMARK    8  A    between atoms: N_22  and  C_25
REMARK                            x       y       z     vdW  Elec       q    Type
REMARK                         _______ _______ _______ _____ _____    ______ ____
ROOT
ATOM      1  C   UNL     1      34.444 -15.902 -21.350  0.00  0.00    +0.067 C 
ATOM      2  C   UNL     1      34.044 -14.391 -23.192  0.00  0.00    +0.140 C 
ATOM      3  C   UNL     1      32.971 -14.009 -21.060  0.00  0.00    -0.018 C 
ATOM      4  C   UNL     1      34.669 -15.526 -22.674  0.00  0.00    +0.053 C 
ATOM      5  C   UNL     1      33.596 -15.144 -20.543  0.00  0.00    +0.012 C 
ATOM      6  C   UNL     1      33.196 -13.633 -22.384  0.00  0.00    +0.033 C 
ATOM      7  C   UNL     1      32.065 -13.199 -20.197  0.00  0.00    +0.031 C 
ENDROOT
BRANCH   1   8
ATOM      8  N   UNL     1      35.083 -17.065 -20.820  0.00  0.00    -0.215 N 
ATOM      9  H   UNL     1      35.349 -17.103 -19.873  0.00  0.00    +0.174 HD
BRANCH   8  10
ATOM     10  S   UNL     1      35.382 -18.398 -21.870  0.00  0.00    +0.074 S 
ATOM     11  O   UNL     1      34.377 -18.410 -22.916  0.00  0.00    -0.150 OA
ATOM     12  O   UNL     1      36.788 -18.447 -22.221  0.00  0.00    -0.150 OA
BRANCH  10  13
ATOM     13  C   UNL     1      35.041 -19.775 -20.814  0.00  0.00    +0.125 C 
ATOM     14  C   UNL     1      33.725 -20.125 -20.568  0.00  0.00    +0.020 C 
ATOM     15  C   UNL     1      36.095 -20.475 -20.256  0.00  0.00    +0.020 C 
ATOM     16  C   UNL     1      33.455 -21.212 -19.736  0.00  0.00    +0.001 C 
ATOM     17  C   UNL     1      35.826 -21.562 -19.424  0.00  0.00    +0.001 C 
ATOM     18  C   UNL     1      34.506 -21.930 -19.164  0.00  0.00    +0.000 C 
ENDBRANCH  10  13
ENDBRANCH   8  10
ENDBRANCH   1   8
BRANCH   2  19
ATOM     19  O   UNL     1      34.263 -14.023 -24.483  0.00  0.00    -0.474 OA
BRANCH  19  20
ATOM     20  C   UNL     1      33.239 -13.264 -25.124  0.00  0.00    +0.226 C 
BRANCH  20  21
ATOM     21  C   UNL     1      33.835 -11.982 -25.682  0.00  0.00    +0.135 C 
BRANCH  21  22
ATOM     22  N   UNL     1      34.581 -11.295 -24.654  0.00  0.00    -0.330 N 
ATOM     23  H   UNL     1      35.439 -11.682 -24.365  0.00  0.00    +0.147 HD
BRANCH  22  25
ATOM     24  N   UNL     1      33.316  -7.790 -22.850  0.00  0.00    -0.328 N 
ATOM     25  C   UNL     1      34.158 -10.121 -24.050  0.00  0.00    +0.043 C 
ATOM     26  C   UNL     1      32.945 -10.071 -23.344  0.00  0.00    +0.009 C 
ATOM     27  C   UNL     1      34.929  -8.951 -24.128  0.00  0.00    +0.030 C 
ATOM     28  C   UNL     1      32.546  -8.882 -22.749  0.00  0.00    +0.115 C 
ATOM     29  C   UNL     1      34.479  -7.791 -23.513  0.00  0.00    +0.059 C 
ATOM     30  H   UNL     1      33.015  -6.956 -22.421  0.00  0.00    +0.147 HD
ENDBRANCH  22  25
ENDBRANCH  21  22
ENDBRANCH  20  21
ENDBRANCH  19  20
ENDBRANCH   2  19
TORSDOF 8
ENDMDL
MODEL 3
REMARK VINA RESULT:     -10.2      7.800     13.237
REMARK  Name = 448955
REMARK  8 active torsions:
REMARK  status: ('A' for Active; 'I' for Inactive)
REMARK    1  A    between atoms: C_1  and  N_8
REMARK    2  A    between atoms: C_2  and  O_19
REMARK    3  A    between atoms: N_8  and  S_10
REMARK    4  A    between atoms: S_10  and  C_13
REMARK    5  A    between atoms: O_19  and  C_20
REMARK    6  A    between atoms: C_20  and  C_21
REMARK    7  A    between atoms: C_21  and  N_22
REMARK    8  A    between atoms: N_22  and  C_25
REMARK                            x       y       z     vdW  Elec       q    Type
REMARK                         _______ _______ _______ _____ _____    ______ ____
ROOT
ATOM      1  C   UNL     1      34.239 -16.008 -21.540  0.00  0.00    +0.067 C 
ATOM      2  C   UNL     1      32.939 -13.979 -21.367  0.00  0.00    +0.140 C 
ATOM      3  C   UNL     1      33.495 -14.877 -23.541  0.00  0.00    -0.018 C 
ATOM      4  C   UNL     1      33.621 -15.033 -20.758  0.00  0.00    +0.053 C 
ATOM      5  C   UNL     1      34.176 -15.932 -22.931  0.00  0.00    +0.012 C 
ATOM      6  C   UNL     1      32.876 -13.902 -22.759  0.00  0.00    +0.033 C 
ATOM      7  C   UNL     1      33.427 -14.795 -25.028  0.00  0.00    +0.031 C 
ENDROOT
BRANCH   1   8
ATOM      8  N   UNL     1      34.937 -17.087 -20.916  0.00  0.00    -0.215 N 
ATOM      9  H   UNL     1      35.151 -17.056 -19.955  0.00  0.00    +0.174 HD
BRANCH   8  10
ATOM     10  S   UNL     1      35.398 -18.442 -21.874  0.00  0.00    +0.074 S 
ATOM     11  O   UNL     1      34.509 -18.537 -23.017  0.00  0.00    -0.150 OA
ATOM     12  O   UNL     1      36.834 -18.442 -22.076  0.00  0.00    -0.150 OA
BRANCH  10  13
ATOM     13  C   UNL     1      35.004 -19.795 -20.804  0.00  0.00    +0.125 C 
ATOM     14  C   UNL     1      33.675 -20.091 -20.555  0.00  0.00    +0.020 C 
ATOM     15  C   UNL     1      36.031 -20.528 -20.238  0.00  0.00    +0.020 C 
ATOM     16  C   UNL     1      33.364 -21.159 -19.712  0.00  0.00    +0.001 C 
ATOM     17  C   UNL     1      35.719 -21.595 -19.395  0.00  0.00    +0.001 C 
ATOM     18  C   UNL     1      34.387 -21.910 -19.132  0.00  0.00    +0.000 C 
ENDBRANCH  10  13
ENDBRANCH   8  10
ENDBRANCH   1   8
BRANCH   2  19
ATOM     19  O   UNL     1      32.336 -13.027 -20.605  0.00  0.00    -0.474 OA
BRANCH  19  20
ATOM     20  C   UNL     1      31.387 -12.182 -21.254  0.00  0.00    +0.226 C 
BRANCH  20  21
ATOM     21  C   UNL     1      31.618 -10.742 -20.826  0.00  0.00    +0.135 C 
BRANCH  21  22
ATOM     22  N   UNL     1      31.558  -9.870 -21.975  0.00  0.00    -0.330 N 
ATOM     23  H   UNL     1      30.672  -9.607 -22.313  0.00  0.00    +0.147 HD
BRANCH  22  25
ATOM     24  N   UNL     1      34.904  -8.412 -23.931  0.00  0.00    -0.328 N 
ATOM     25  C   UNL     1      32.678  -9.381 -22.630  0.00  0.00    +0.043 C 
ATOM     26  C   UNL     1      33.384 -10.181 -23.544  0.00  0.00    +0.009 C 
ATOM     27  C   UNL     1      33.138  -8.076 -22.398  0.00  0.00    +0.030 C 
ATOM     28  C   UNL     1      34.502  -9.665 -24.185  0.00  0.00    +0.115 C 
ATOM     29  C   UNL     1      34.262  -7.614 -23.068  0.00  0.00    +0.059 C 
ATOM     30  H   UNL     1      35.699  -8.066 -24.396  0.00  0.00    +0.147 HD
ENDBRANCH  22  25
ENDBRANCH  21  22
ENDBRANCH  20  21
ENDBRANCH  19  20
ENDBRANCH   2  19
TORSDOF 8
ENDMDL
MODEL 4
REMARK VINA RESULT:     -10.1      2.135      6.017
REMARK  Name = 448955
REMARK  8 active torsions:
REMARK  status: ('A' for Active; 'I' for Inactive)
REMARK    1  A    between atoms: C_1  and  N_8
REMARK    2  A    between atoms: C_2  and  O_19
REMARK    3  A    between atoms: N_8  and  S_10
REMARK    4  A    between atoms: S_10  and  C_13
REMARK    5  A    between atoms: O_19  and  C_20
REMARK    6  A    between atoms: C_20  and  C_21
REMARK    7  A    between atoms: C_21  and  N_22
REMARK    8  A    between atoms: N_22  and  C_25
REMARK                            x       y       z     vdW  Elec       q    Type
REMARK                         _______ _______ _______ _____ _____    ______ ____
ROOT
ATOM      1  C   UNL     1      35.126 -23.187 -16.002  0.00  0.00    +0.067 C 
ATOM      2  C   UNL     1      34.114 -24.104 -14.009  0.00  0.00    +0.140 C 
ATOM      3  C   UNL     1      36.446 -24.523 -14.483  0.00  0.00    -0.018 C 
ATOM      4  C   UNL     1      34.012 -23.353 -15.180  0.00  0.00    +0.053 C 
ATOM      5  C   UNL     1      36.344 -23.771 -15.653  0.00  0.00    +0.012 C 
ATOM      6  C   UNL     1      35.332 -24.688 -13.660  0.00  0.00    +0.033 C 
ATOM      7  C   UNL     1      37.748 -25.147 -14.110  0.00  0.00    +0.031 C 
ENDROOT
BRANCH   1   8
ATOM      8  N   UNL     1      35.020 -22.418 -17.201  0.00  0.00    -0.215 N 
ATOM      9  H   UNL     1      35.695 -21.735 -17.419  0.00  0.00    +0.174 HD
BRANCH   8  10
ATOM     10  S   UNL     1      33.690 -22.706 -18.256  0.00  0.00    +0.074 S 
ATOM     11  O   UNL     1      33.902 -23.963 -18.950  0.00  0.00    -0.150 OA
ATOM     12  O   UNL     1      32.441 -22.471 -17.557  0.00  0.00    -0.150 OA
BRANCH  10  13
ATOM     13  C   UNL     1      33.890 -21.419 -19.453  0.00  0.00    +0.125 C 
ATOM     14  C   UNL     1      32.771 -20.745 -19.911  0.00  0.00    +0.020 C 
ATOM     15  C   UNL     1      35.160 -21.113 -19.908  0.00  0.00    +0.020 C 
ATOM     16  C   UNL     1      32.929 -19.730 -20.855  0.00  0.00    +0.001 C 
ATOM     17  C   UNL     1      35.317 -20.097 -20.852  0.00  0.00    +0.001 C 
ATOM     18  C   UNL     1      34.201 -19.406 -21.325  0.00  0.00    +0.000 C 
ENDBRANCH  10  13
ENDBRANCH   8  10
ENDBRANCH   1   8
BRANCH   2  19
ATOM     19  O   UNL     1      33.028 -24.266 -13.207  0.00  0.00    -0.474 OA
BRANCH  19  20
ATOM     20  C   UNL     1      31.966 -25.076 -13.708  0.00  0.00    +0.226 C 
BRANCH  20  21
ATOM     21  C   UNL     1      30.633 -24.428 -13.373  0.00  0.00    +0.135 C 
BRANCH  21  22
ATOM     22  N   UNL     1      30.401 -23.299 -14.243  0.00  0.00    -0.330 N 
ATOM     23  H   UNL     1      30.960 -22.498 -14.125  0.00  0.00    +0.147 HD
BRANCH  22  25
ATOM     24  N   UNL     1      27.514 -23.239 -17.211  0.00  0.00    -0.328 N 
ATOM     25  C   UNL     1      29.434 -23.279 -15.237  0.00  0.00    +0.043 C 
ATOM     26  C   UNL     1      28.573 -22.179 -15.383  0.00  0.00    +0.009 C 
ATOM     27  C   UNL     1      29.289 -24.358 -16.124  0.00  0.00    +0.030 C 
ATOM     28  C   UNL     1      27.615 -22.187 -16.387  0.00  0.00    +0.115 C 
ATOM     29  C   UNL     1      28.312 -24.310 -17.108  0.00  0.00    +0.059 C 
ATOM     30  H   UNL     1      26.827 -23.225 -17.916  0.00  0.00    +0.147 HD
ENDBRANCH  22  25
ENDBRANCH  21  22
ENDBRANCH  20  21
ENDBRANCH  19  20
ENDBRANCH   2  19
TORSDOF 8
ENDMDL
MODEL 5
REMARK VINA RESULT:     -10.1      8.268     13.576
REMARK  Name = 448955
REMARK  8 active torsions:
REMARK  status: ('A' for Active; 'I' for Inactive)
REMARK    1  A    between atoms: C_1  and  N_8
REMARK    2  A    between atoms: C_2  and  O_19
REMARK    3  A    between atoms: N_8  and  S_10
REMARK    4  A    between atoms: S_10  and  C_13
REMARK    5  A    between atoms: O_19  and  C_20
REMARK    6  A    between atoms: C_20  and  C_21
REMARK    7  A    between atoms: C_21  and  N_22
REMARK    8  A    between atoms: N_22  and  C_25
REMARK                            x       y       z     vdW  Elec       q    Type
REMARK                         _______ _______ _______ _____ _____    ______ ____
ROOT
ATOM      1  C   UNL     1      34.388 -16.085 -21.486  0.00  0.00    +0.067 C 
ATOM      2  C   UNL     1      32.967 -14.135 -21.357  0.00  0.00    +0.140 C 
ATOM      3  C   UNL     1      33.569 -15.052 -23.510  0.00  0.00    -0.018 C 
ATOM      4  C   UNL     1      33.714 -15.130 -20.725  0.00  0.00    +0.053 C 
ATOM      5  C   UNL     1      34.315 -16.047 -22.878  0.00  0.00    +0.012 C 
ATOM      6  C   UNL     1      32.895 -14.097 -22.750  0.00  0.00    +0.033 C 
ATOM      7  C   UNL     1      33.491 -15.012 -24.999  0.00  0.00    +0.031 C 
ENDROOT
BRANCH   1   8
ATOM      8  N   UNL     1      35.152 -17.103 -20.838  0.00  0.00    -0.215 N 
ATOM      9  H   UNL     1      35.409 -17.011 -19.892  0.00  0.00    +0.174 HD
BRANCH   8  10
ATOM     10  S   UNL     1      35.616 -18.494 -21.742  0.00  0.00    +0.074 S 
ATOM     11  O   UNL     1      34.898 -18.499 -23.003  0.00  0.00    -0.150 OA
ATOM     12  O   UNL     1      37.060 -18.631 -21.736  0.00  0.00    -0.150 OA
BRANCH  10  13
ATOM     13  C   UNL     1      34.945 -19.805 -20.764  0.00  0.00    +0.125 C 
ATOM     14  C   UNL     1      33.572 -19.911 -20.630  0.00  0.00    +0.020 C 
ATOM     15  C   UNL     1      35.805 -20.699 -20.152  0.00  0.00    +0.020 C 
ATOM     16  C   UNL     1      33.042 -20.945 -19.858  0.00  0.00    +0.001 C 
ATOM     17  C   UNL     1      35.276 -21.733 -19.380  0.00  0.00    +0.001 C 
ATOM     18  C   UNL     1      33.894 -21.856 -19.234  0.00  0.00    +0.000 C 
ENDBRANCH  10  13
ENDBRANCH   8  10
ENDBRANCH   1   8
BRANCH   2  19
ATOM     19  O   UNL     1      32.310 -13.202 -20.616  0.00  0.00    -0.474 OA
BRANCH  19  20
ATOM     20  C   UNL     1      31.498 -12.266 -21.323  0.00  0.00    +0.226 C 
BRANCH  20  21
ATOM     21  C   UNL     1      31.688 -10.882 -20.727  0.00  0.00    +0.135 C 
BRANCH  21  22
ATOM     22  N   UNL     1      31.892  -9.915 -21.779  0.00  0.00    -0.330 N 
ATOM     23  H   UNL     1      32.015 -10.246 -22.698  0.00  0.00    +0.147 HD
BRANCH  22  25
ATOM     24  N   UNL     1      31.992  -5.823 -21.152  0.00  0.00    -0.328 N 
ATOM     25  C   UNL     1      31.925  -8.544 -21.570  0.00  0.00    +0.043 C 
ATOM     26  C   UNL     1      32.388  -8.013 -20.355  0.00  0.00    +0.009 C 
ATOM     27  C   UNL     1      31.498  -7.651 -22.565  0.00  0.00    +0.030 C 
ATOM     28  C   UNL     1      32.410  -6.637 -20.173  0.00  0.00    +0.115 C 
ATOM     29  C   UNL     1      31.543  -6.285 -22.326  0.00  0.00    +0.059 C 
ATOM     30  H   UNL     1      32.016  -4.850 -21.002  0.00  0.00    +0.147 HD
ENDBRANCH  22  25
ENDBRANCH  21  22
ENDBRANCH  20  21
ENDBRANCH  19  20
ENDBRANCH   2  19
TORSDOF 8
ENDMDL
MODEL 6
REMARK VINA RESULT:     -10.0     10.780     14.585
REMARK  Name = 448955
REMARK  8 active torsions:
REMARK  status: ('A' for Active; 'I' for Inactive)
REMARK    1  A    between atoms: C_1  and  N_8
REMARK    2  A    between atoms: C_2  and  O_19
REMARK    3  A    between atoms: N_8  and  S_10
REMARK    4  A    between atoms: S_10  and  C_13
REMARK    5  A    between atoms: O_19  and  C_20
REMARK    6  A    between atoms: C_20  and  C_21
REMARK    7  A    between atoms: C_21  and  N_22
REMARK    8  A    between atoms: N_22  and  C_25
REMARK                            x       y       z     vdW  Elec       q    Type
REMARK                         _______ _______ _______ _____ _____    ______ ____
ROOT
ATOM      1  C   UNL     1      32.077 -10.089 -22.301  0.00  0.00    +0.067 C 
ATOM      2  C   UNL     1      32.057 -12.471 -21.897  0.00  0.00    +0.140 C 
ATOM      3  C   UNL     1      31.574 -10.936 -20.095  0.00  0.00    -0.018 C 
ATOM      4  C   UNL     1      32.231 -11.395 -22.767  0.00  0.00    +0.053 C 
ATOM      5  C   UNL     1      31.748  -9.859 -20.966  0.00  0.00    +0.012 C 
ATOM      6  C   UNL     1      31.728 -12.241 -20.561  0.00  0.00    +0.033 C 
ATOM      7  C   UNL     1      31.223 -10.690 -18.667  0.00  0.00    +0.031 C 
ENDROOT
BRANCH   1   8
ATOM      8  N   UNL     1      32.256  -8.988 -23.192  0.00  0.00    -0.215 N 
ATOM      9  H   UNL     1      31.554  -8.748 -23.840  0.00  0.00    +0.174 HD
BRANCH   8  10
ATOM     10  S   UNL     1      33.722  -8.087 -23.114  0.00  0.00    +0.074 S 
ATOM     11  O   UNL     1      33.829  -7.473 -21.804  0.00  0.00    -0.150 OA
ATOM     12  O   UNL     1      34.821  -8.880 -23.630  0.00  0.00    -0.150 OA
BRANCH  10  13
ATOM     13  C   UNL     1      33.410  -6.783 -24.268  0.00  0.00    +0.125 C 
ATOM     14  C   UNL     1      32.224  -6.074 -24.179  0.00  0.00    +0.020 C 
ATOM     15  C   UNL     1      34.356  -6.497 -25.235  0.00  0.00    +0.020 C 
ATOM     16  C   UNL     1      31.978  -5.046 -25.089  0.00  0.00    +0.001 C 
ATOM     17  C   UNL     1      34.110  -5.468 -26.145  0.00  0.00    +0.001 C 
ATOM     18  C   UNL     1      32.921  -4.743 -26.071  0.00  0.00    +0.000 C 
ENDBRANCH  10  13
ENDBRANCH   8  10
ENDBRANCH   1   8
BRANCH   2  19
ATOM     19  O   UNL     1      32.207 -13.745 -22.351  0.00  0.00    -0.474 OA
BRANCH  19  20
ATOM     20  C   UNL     1      32.815 -14.682 -21.464  0.00  0.00    +0.226 C 
BRANCH  20  21
ATOM     21  C   UNL     1      34.319 -14.675 -21.676  0.00  0.00    +0.135 C 
BRANCH  21  22
ATOM     22  N   UNL     1      34.821 -16.029 -21.709  0.00  0.00    -0.330 N 
ATOM     23  H   UNL     1      35.226 -16.394 -20.890  0.00  0.00    +0.147 HD
BRANCH  22  25
ATOM     24  N   UNL     1      34.646 -18.465 -25.052  0.00  0.00    -0.328 N 
ATOM     25  C   UNL     1      34.762 -16.844 -22.828  0.00  0.00    +0.043 C 
ATOM     26  C   UNL     1      34.810 -18.242 -22.705  0.00  0.00    +0.009 C 
ATOM     27  C   UNL     1      34.654 -16.296 -24.116  0.00  0.00    +0.030 C 
ATOM     28  C   UNL     1      34.749 -19.034 -23.843  0.00  0.00    +0.115 C 
ATOM     29  C   UNL     1      34.597 -17.137 -25.218  0.00  0.00    +0.059 C 
ATOM     30  H   UNL     1      34.604 -19.045 -25.846  0.00  0.00    +0.147 HD
ENDBRANCH  22  25
ENDBRANCH  21  22
ENDBRANCH  20  21
ENDBRANCH  19  20
ENDBRANCH   2  19
TORSDOF 8
ENDMDL
MODEL 7
REMARK VINA RESULT:     -10.0      3.912      6.027
REMARK  Name = 448955
REMARK  8 active torsions:
REMARK  status: ('A' for Active; 'I' for Inactive)
REMARK    1  A    between atoms: C_1  and  N_8
REMARK    2  A    between atoms: C_2  and  O_19
REMARK    3  A    between atoms: N_8  and  S_10
REMARK    4  A    between atoms: S_10  and  C_13
REMARK    5  A    between atoms: O_19  and  C_20
REMARK    6  A    between atoms: C_20  and  C_21
REMARK    7  A    between atoms: C_21  and  N_22
REMARK    8  A    between atoms: N_22  and  C_25
REMARK                            x       y       z     vdW  Elec       q    Type
REMARK                         _______ _______ _______ _____ _____    ______ ____
ROOT
ATOM      1  C   UNL     1      34.059 -19.676 -20.663  0.00  0.00    +0.067 C 
ATOM      2  C   UNL     1      33.466 -21.563 -19.276  0.00  0.00    +0.140 C 
ATOM      3  C   UNL     1      35.757 -21.252 -19.979  0.00  0.00    -0.018 C 
ATOM      4  C   UNL     1      33.098 -20.408 -19.967  0.00  0.00    +0.053 C 
ATOM      5  C   UNL     1      35.389 -20.097 -20.669  0.00  0.00    +0.012 C 
ATOM      6  C   UNL     1      34.796 -21.985 -19.282  0.00  0.00    +0.033 C 
ATOM      7  C   UNL     1      37.179 -21.702 -19.985  0.00  0.00    +0.031 C 
ENDROOT
BRANCH   1   8
ATOM      8  N   UNL     1      33.682 -18.494 -21.370  0.00  0.00    -0.215 N 
ATOM      9  H   UNL     1      32.767 -18.391 -21.721  0.00  0.00    +0.174 HD
BRANCH   8  10
ATOM     10  S   UNL     1      34.854 -17.253 -21.597  0.00  0.00    +0.074 S 
ATOM     11  O   UNL     1      35.614 -17.091 -20.371  0.00  0.00    -0.150 OA
ATOM     12  O   UNL     1      35.549 -17.451 -22.855  0.00  0.00    -0.150 OA
BRANCH  10  13
ATOM     13  C   UNL     1      33.836 -15.816 -21.763  0.00  0.00    +0.125 C 
ATOM     14  C   UNL     1      33.649 -15.264 -23.018  0.00  0.00    +0.020 C 
ATOM     15  C   UNL     1      33.247 -15.273 -20.636  0.00  0.00    +0.020 C 
ATOM     16  C   UNL     1      32.846 -14.131 -23.150  0.00  0.00    +0.001 C 
ATOM     17  C   UNL     1      32.443 -14.140 -20.767  0.00  0.00    +0.001 C 
ATOM     18  C   UNL     1      32.243 -13.569 -22.024  0.00  0.00    +0.000 C 
ENDBRANCH  10  13
ENDBRANCH   8  10
ENDBRANCH   1   8
BRANCH   2  19
ATOM     19  O   UNL     1      32.529 -22.278 -18.597  0.00  0.00    -0.474 OA
BRANCH  19  20
ATOM     20  C   UNL     1      33.001 -23.312 -17.735  0.00  0.00    +0.226 C 
BRANCH  20  21
ATOM     21  C   UNL     1      32.755 -22.916 -16.289  0.00  0.00    +0.135 C 
BRANCH  21  22
ATOM     22  N   UNL     1      33.500 -23.782 -15.405  0.00  0.00    -0.330 N 
ATOM     23  H   UNL     1      32.997 -24.346 -14.774  0.00  0.00    +0.147 HD
BRANCH  22  25
ATOM     24  N   UNL     1      37.633 -24.026 -15.376  0.00  0.00    -0.328 N 
ATOM     25  C   UNL     1      34.884 -23.864 -15.396  0.00  0.00    +0.043 C 
ATOM     26  C   UNL     1      35.674 -22.749 -15.718  0.00  0.00    +0.009 C 
ATOM     27  C   UNL     1      35.533 -25.064 -15.064  0.00  0.00    +0.030 C 
ATOM     28  C   UNL     1      37.057 -22.860 -15.699  0.00  0.00    +0.115 C 
ATOM     29  C   UNL     1      36.920 -25.116 -15.062  0.00  0.00    +0.059 C 
ATOM     30  H   UNL     1      38.615 -24.084 -15.369  0.00  0.00    +0.147 HD
ENDBRANCH  22  25
ENDBRANCH  21  22
ENDBRANCH  20  21
ENDBRANCH  19  20
ENDBRANCH   2  19
TORSDOF 8
ENDMDL
MODEL 8
REMARK VINA RESULT:      -9.9     10.292     15.633
REMARK  Name = 448955
REMARK  8 active torsions:
REMARK  status: ('A' for Active; 'I' for Inactive)
REMARK    1  A    between atoms: C_1  and  N_8
REMARK    2  A    between atoms: C_2  and  O_19
REMARK    3  A    between atoms: N_8  and  S_10
REMARK    4  A    between atoms: S_10  and  C_13
REMARK    5  A    between atoms: O_19  and  C_20
REMARK    6  A    between atoms: C_20  and  C_21
REMARK    7  A    between atoms: C_21  and  N_22
REMARK    8  A    between atoms: N_22  and  C_25
REMARK                            x       y       z     vdW  Elec       q    Type
REMARK                         _______ _______ _______ _____ _____    ______ ____
ROOT
ATOM      1  C   UNL     1      32.889 -13.122 -23.217  0.00  0.00    +0.067 C 
ATOM      2  C   UNL     1      32.316 -10.846 -22.641  0.00  0.00    +0.140 C 
ATOM      3  C   UNL     1      33.906 -11.283 -24.407  0.00  0.00    -0.018 C 
ATOM      4  C   UNL     1      32.168 -12.218 -22.436  0.00  0.00    +0.053 C 
ATOM      5  C   UNL     1      33.757 -12.655 -24.203  0.00  0.00    +0.012 C 
ATOM      6  C   UNL     1      33.186 -10.379 -23.627  0.00  0.00    +0.033 C 
ATOM      7  C   UNL     1      34.835 -10.783 -25.462  0.00  0.00    +0.031 C 
ENDROOT
BRANCH   1   8
ATOM      8  N   UNL     1      32.736 -14.526 -23.007  0.00  0.00    -0.215 N 
ATOM      9  H   UNL     1      32.169 -15.064 -23.606  0.00  0.00    +0.174 HD
BRANCH   8  10
ATOM     10  S   UNL     1      33.561 -15.262 -21.686  0.00  0.00    +0.074 S 
ATOM     11  O   UNL     1      34.704 -14.442 -21.327  0.00  0.00    -0.150 OA
ATOM     12  O   UNL     1      32.610 -15.658 -20.665  0.00  0.00    -0.150 OA
BRANCH  10  13
ATOM     13  C   UNL     1      34.200 -16.734 -22.430  0.00  0.00    +0.125 C 
ATOM     14  C   UNL     1      34.446 -17.839 -21.634  0.00  0.00    +0.020 C 
ATOM     15  C   UNL     1      34.441 -16.751 -23.792  0.00  0.00    +0.020 C 
ATOM     16  C   UNL     1      34.950 -19.000 -22.221  0.00  0.00    +0.001 C 
ATOM     17  C   UNL     1      34.944 -17.913 -24.379  0.00  0.00    +0.001 C 
ATOM     18  C   UNL     1      35.198 -19.036 -23.593  0.00  0.00    +0.000 C 
ENDBRANCH  10  13
ENDBRANCH   8  10
ENDBRANCH   1   8
BRANCH   2  19
ATOM     19  O   UNL     1      31.614  -9.964 -21.879  0.00  0.00    -0.474 OA
BRANCH  19  20
ATOM     20  C   UNL     1      31.944  -9.898 -20.493  0.00  0.00    +0.226 C 
BRANCH  20  21
ATOM     21  C   UNL     1      32.158  -8.448 -20.093  0.00  0.00    +0.135 C 
BRANCH  21  22
ATOM     22  N   UNL     1      32.781  -7.724 -21.176  0.00  0.00    -0.330 N 
ATOM     23  H   UNL     1      33.725  -7.915 -21.381  0.00  0.00    +0.147 HD
BRANCH  22  25
ATOM     24  N   UNL     1      30.824  -4.890 -23.475  0.00  0.00    -0.328 N 
ATOM     25  C   UNL     1      32.126  -6.775 -21.945  0.00  0.00    +0.043 C 
ATOM     26  C   UNL     1      32.390  -6.653 -23.319  0.00  0.00    +0.009 C 
ATOM     27  C   UNL     1      31.180  -5.910 -21.373  0.00  0.00    +0.030 C 
ATOM     28  C   UNL     1      31.719  -5.694 -24.065  0.00  0.00    +0.115 C 
ATOM     29  C   UNL     1      30.540  -4.970 -22.168  0.00  0.00    +0.059 C 
ATOM     30  H   UNL     1      30.359  -4.217 -24.021  0.00  0.00    +0.147 HD
ENDBRANCH  22  25
ENDBRANCH  21  22
ENDBRANCH  20  21
ENDBRANCH  19  20
ENDBRANCH   2  19
TORSDOF 8
ENDMDL
MODEL 9
REMARK VINA RESULT:      -9.9     10.356     15.613
REMARK  Name = 448955
REMARK  8 active torsions:
REMARK  status: ('A' for Active; 'I' for Inactive)
REMARK    1  A    between atoms: C_1  and  N_8
REMARK    2  A    between atoms: C_2  and  O_19
REMARK    3  A    between atoms: N_8  and  S_10
REMARK    4  A    between atoms: S_10  and  C_13
REMARK    5  A    between atoms: O_19  and  C_20
REMARK    6  A    between atoms: C_20  and  C_21
REMARK    7  A    between atoms: C_21  and  N_22
REMARK    8  A    between atoms: N_22  and  C_25
REMARK                            x       y       z     vdW  Elec       q    Type
REMARK                         _______ _______ _______ _____ _____    ______ ____
ROOT
ATOM      1  C   UNL     1      32.603 -13.036 -22.390  0.00  0.00    +0.067 C 
ATOM      2  C   UNL     1      32.711 -10.734 -23.115  0.00  0.00    +0.140 C 
ATOM      3  C   UNL     1      31.591 -11.299 -21.050  0.00  0.00    -0.018 C 
ATOM      4  C   UNL     1      33.012 -12.080 -23.319  0.00  0.00    +0.053 C 
ATOM      5  C   UNL     1      31.893 -12.645 -21.255  0.00  0.00    +0.012 C 
ATOM      6  C   UNL     1      32.001 -10.343 -21.980  0.00  0.00    +0.033 C 
ATOM      7  C   UNL     1      30.831 -10.881 -19.836  0.00  0.00    +0.031 C 
ENDROOT
BRANCH   1   8
ATOM      8  N   UNL     1      32.911 -14.414 -22.600  0.00  0.00    -0.215 N 
ATOM      9  H   UNL     1      32.757 -14.834 -23.477  0.00  0.00    +0.174 HD
BRANCH   8  10
ATOM     10  S   UNL     1      33.558 -15.328 -21.291  0.00  0.00    +0.074 S 
ATOM     11  O   UNL     1      34.697 -14.620 -20.737  0.00  0.00    -0.150 OA
ATOM     12  O   UNL     1      32.488 -15.768 -20.416  0.00  0.00    -0.150 OA
BRANCH  10  13
ATOM     13  C   UNL     1      34.196 -16.753 -22.123  0.00  0.00    +0.125 C 
ATOM     14  C   UNL     1      34.569 -16.647 -23.450  0.00  0.00    +0.020 C 
ATOM     15  C   UNL     1      34.308 -17.945 -21.429  0.00  0.00    +0.020 C 
ATOM     16  C   UNL     1      35.073 -17.771 -24.106  0.00  0.00    +0.001 C 
ATOM     17  C   UNL     1      34.811 -19.069 -22.085  0.00  0.00    +0.001 C 
ATOM     18  C   UNL     1      35.193 -18.981 -23.423  0.00  0.00    +0.000 C 
ENDBRANCH  10  13
ENDBRANCH   8  10
ENDBRANCH   1   8
BRANCH   2  19
ATOM     19  O   UNL     1      33.110  -9.801 -24.022  0.00  0.00    -0.474 OA
BRANCH  19  20
ATOM     20  C   UNL     1      34.491  -9.442 -24.018  0.00  0.00    +0.226 C 
BRANCH  20  21
ATOM     21  C   UNL     1      34.619  -7.930 -23.936  0.00  0.00    +0.135 C 
BRANCH  21  22
ATOM     22  N   UNL     1      33.894  -7.434 -22.790  0.00  0.00    -0.330 N 
ATOM     23  H   UNL     1      34.211  -7.690 -21.894  0.00  0.00    +0.147 HD
BRANCH  22  25
ATOM     24  N   UNL     1      30.559  -4.996 -23.057  0.00  0.00    -0.328 N 
ATOM     25  C   UNL     1      32.777  -6.618 -22.880  0.00  0.00    +0.043 C 
ATOM     26  C   UNL     1      31.993  -6.343 -21.748  0.00  0.00    +0.009 C 
ATOM     27  C   UNL     1      32.400  -6.043 -24.104  0.00  0.00    +0.030 C 
ATOM     28  C   UNL     1      30.880  -5.522 -21.867  0.00  0.00    +0.115 C 
ATOM     29  C   UNL     1      31.277  -5.230 -24.163  0.00  0.00    +0.059 C 
ATOM     30  H   UNL     1      29.766  -4.416 -23.120  0.00  0.00    +0.147 HD
ENDBRANCH  22  25
ENDBRANCH  21  22
ENDBRANCH  20  21
ENDBRANCH  19  20
ENDBRANCH   2  19
TORSDOF 8
ENDMDL
