MODEL 1
REMARK VINA RESULT:     -11.1      0.000      0.000
REMARK  Name = 11653652
REMARK  5 active torsions:
REMARK  status: ('A' for Active; 'I' for Inactive)
REMARK    1  A    between atoms: N_1  and  C_19
REMARK    2  A    between atoms: C_4  and  C_7
REMARK    3  A    between atoms: C_5  and  C_27
REMARK    4  A    between atoms: N_6  and  C_13
REMARK    5  A    between atoms: N_6  and  O_16
REMARK                            x       y       z     vdW  Elec       q    Type
REMARK                         _______ _______ _______ _____ _____    ______ ____
ROOT
ATOM      1  N   UNL     1      33.567 -22.184 -18.429  0.00  0.00    -0.212 N 
ATOM      2  N   UNL     1      32.285 -22.499 -18.180  0.00  0.00    -0.178 NA
ATOM      3  C   UNL     1      34.424 -22.522 -17.423  0.00  0.00    +0.085 C 
ATOM      4  C   UNL     1      33.646 -23.096 -16.452  0.00  0.00    +0.032 C 
ATOM      5  C   UNL     1      32.340 -23.057 -16.967  0.00  0.00    +0.100 C 
ENDROOT
BRANCH   4   6
ATOM      6  C   UNL     1      34.171 -23.596 -15.211  0.00  0.00    -0.015 C 
ATOM      7  C   UNL     1      35.881 -24.742 -13.991  0.00  0.00    -0.016 C 
ATOM      8  C   UNL     1      37.160 -25.484 -13.753  0.00  0.00    -0.002 C 
ATOM      9  C   UNL     1      35.148 -24.539 -12.826  0.00  0.00    +0.016 C 
ATOM     10  C   UNL     1      37.166 -25.747 -12.238  0.00  0.00    +0.021 C 
ATOM     11  C   UNL     1      35.397 -24.268 -15.199  0.00  0.00    +0.053 C 
ATOM     12  C   UNL     1      35.887 -25.132 -11.732  0.00  0.00    +0.107 C 
ATOM     13  C   UNL     1      33.445 -23.402 -14.023  0.00  0.00    -0.004 C 
ATOM     14  C   UNL     1      33.935 -23.878 -12.807  0.00  0.00    +0.001 C 
BRANCH  12  15
ATOM     15  N   UNL     1      35.545 -25.159 -10.490  0.00  0.00    -0.135 NA
BRANCH  15  16
ATOM     16  O   UNL     1      36.161 -24.087  -9.839  0.00  0.00    -0.265 OA
ATOM     17  H   UNL     1      36.469 -23.353 -10.334  0.00  0.00    +0.247 HD
ENDBRANCH  15  16
ENDBRANCH  12  15
ENDBRANCH   4   6
BRANCH   1  19
ATOM     18  N   UNL     1      34.747 -19.261 -21.333  0.00  0.00    +0.384 N 
ATOM     19  C   UNL     1      33.924 -21.538 -19.697  0.00  0.00    +0.092 C 
ATOM     20  C   UNL     1      32.950 -20.415 -20.086  0.00  0.00    -0.002 C 
ATOM     21  C   UNL     1      35.372 -21.024 -19.713  0.00  0.00    -0.002 C 
ATOM     22  C   UNL     1      33.372 -19.756 -21.398  0.00  0.00    -0.080 C 
ATOM     23  C   UNL     1      35.694 -20.340 -21.042  0.00  0.00    -0.080 C 
ATOM     24  H   UNL     1      34.811 -18.557 -20.597  0.00  0.00    -0.085 HD
ATOM     25  H   UNL     1      34.988 -18.862 -22.240  0.00  0.00    -0.085 HD
ENDBRANCH   1  19
BRANCH   5  27
ATOM     26  N   UNL     1      28.805 -24.466 -15.118  0.00  0.00    -0.242 NA
ATOM     27  C   UNL     1      31.136 -23.537 -16.337  0.00  0.00    +0.022 C 
ATOM     28  C   UNL     1      31.080 -24.834 -15.848  0.00  0.00    +0.022 C 
ATOM     29  C   UNL     1      30.034 -22.700 -16.221  0.00  0.00    +0.022 C 
ATOM     30  C   UNL     1      29.901 -25.248 -15.251  0.00  0.00    +0.099 C 
ATOM     31  C   UNL     1      28.901 -23.210 -15.608  0.00  0.00    +0.099 C 
ENDBRANCH   5  27
TORSDOF 5
ENDMDL
MODEL 2
REMARK VINA RESULT:     -10.3      1.473      1.808
REMARK  Name = 11653652
REMARK  5 active torsions:
REMARK  status: ('A' for Active; 'I' for Inactive)
REMARK    1  A    between atoms: N_1  and  C_19
REMARK    2  A    between atoms: C_4  and  C_7
REMARK    3  A    between atoms: C_5  and  C_27
REMARK    4  A    between atoms: N_6  and  C_13
REMARK    5  A    between atoms: N_6  and  O_16
REMARK                            x       y       z     vdW  Elec       q    Type
REMARK                         _______ _______ _______ _____ _____    ______ ____
ROOT
ATOM      1  N   UNL     1      33.828 -22.156 -18.474  0.00  0.00    -0.212 N 
ATOM      2  N   UNL     1      32.657 -22.486 -17.901  0.00  0.00    -0.178 NA
ATOM      3  C   UNL     1      34.921 -22.533 -17.750  0.00  0.00    +0.085 C 
ATOM      4  C   UNL     1      34.430 -23.149 -16.629  0.00  0.00    +0.032 C 
ATOM      5  C   UNL     1      33.033 -23.094 -16.772  0.00  0.00    +0.100 C 
ENDROOT
BRANCH   4   6
ATOM      6  C   UNL     1      35.265 -23.698 -15.598  0.00  0.00    -0.015 C 
ATOM      7  C   UNL     1      36.590 -23.411 -13.626  0.00  0.00    -0.016 C 
ATOM      8  C   UNL     1      37.247 -22.700 -12.484  0.00  0.00    -0.002 C 
ATOM      9  C   UNL     1      36.859 -24.776 -13.640  0.00  0.00    +0.016 C 
ATOM     10  C   UNL     1      38.001 -23.810 -11.733  0.00  0.00    +0.021 C 
ATOM     11  C   UNL     1      35.786 -22.858 -14.609  0.00  0.00    +0.053 C 
ATOM     12  C   UNL     1      37.713 -25.069 -12.509  0.00  0.00    +0.107 C 
ATOM     13  C   UNL     1      35.549 -25.075 -15.595  0.00  0.00    -0.004 C 
ATOM     14  C   UNL     1      36.358 -25.631 -14.604  0.00  0.00    +0.001 C 
BRANCH  12  15
ATOM     15  N   UNL     1      38.186 -26.219 -12.172  0.00  0.00    -0.135 NA
BRANCH  15  16
ATOM     16  O   UNL     1      37.143 -26.990 -11.653  0.00  0.00    -0.265 OA
ATOM     17  H   UNL     1      37.332 -27.707 -11.079  0.00  0.00    +0.247 HD
ENDBRANCH  15  16
ENDBRANCH  12  15
ENDBRANCH   4   6
BRANCH   1  19
ATOM     18  N   UNL     1      34.044 -19.079 -21.449  0.00  0.00    +0.384 N 
ATOM     19  C   UNL     1      33.835 -21.457 -19.763  0.00  0.00    +0.092 C 
ATOM     20  C   UNL     1      32.687 -20.443 -19.895  0.00  0.00    -0.002 C 
ATOM     21  C   UNL     1      35.183 -20.785 -20.065  0.00  0.00    -0.002 C 
ATOM     22  C   UNL     1      32.747 -19.723 -21.241  0.00  0.00    -0.080 C 
ATOM     23  C   UNL     1      35.139 -20.051 -21.405  0.00  0.00    -0.080 C 
ATOM     24  H   UNL     1      34.190 -18.383 -20.717  0.00  0.00    -0.085 HD
ATOM     25  H   UNL     1      34.041 -18.643 -22.370  0.00  0.00    -0.085 HD
ENDBRANCH   1  19
BRANCH   5  27
ATOM     26  N   UNL     1      30.117 -24.593 -14.098  0.00  0.00    -0.242 NA
ATOM     27  C   UNL     1      32.040 -23.604 -15.861  0.00  0.00    +0.022 C 
ATOM     28  C   UNL     1      32.433 -24.231 -14.688  0.00  0.00    +0.022 C 
ATOM     29  C   UNL     1      30.691 -23.468 -16.160  0.00  0.00    +0.022 C 
ATOM     30  C   UNL     1      31.441 -24.705 -13.846  0.00  0.00    +0.099 C 
ATOM     31  C   UNL     1      29.776 -23.976 -15.252  0.00  0.00    +0.099 C 
ENDBRANCH   5  27
TORSDOF 5
ENDMDL
MODEL 3
REMARK VINA RESULT:     -10.0      6.769     11.342
REMARK  Name = 11653652
REMARK  5 active torsions:
REMARK  status: ('A' for Active; 'I' for Inactive)
REMARK    1  A    between atoms: N_1  and  C_19
REMARK    2  A    between atoms: C_4  and  C_7
REMARK    3  A    between atoms: C_5  and  C_27
REMARK    4  A    between atoms: N_6  and  C_13
REMARK    5  A    between atoms: N_6  and  O_16
REMARK                            x       y       z     vdW  Elec       q    Type
REMARK                         _______ _______ _______ _____ _____    ______ ____
ROOT
ATOM      1  N   UNL     1      32.178 -12.613 -21.474  0.00  0.00    -0.212 N 
ATOM      2  N   UNL     1      32.298 -12.692 -22.810  0.00  0.00    -0.178 NA
ATOM      3  C   UNL     1      32.590 -13.734 -20.815  0.00  0.00    +0.085 C 
ATOM      4  C   UNL     1      33.007 -14.604 -21.789  0.00  0.00    +0.032 C 
ATOM      5  C   UNL     1      32.806 -13.914 -22.997  0.00  0.00    +0.100 C 
ENDROOT
BRANCH   4   6
ATOM      6  C   UNL     1      33.522 -15.916 -21.510  0.00  0.00    -0.015 C 
ATOM      7  C   UNL     1      33.160 -18.210 -20.931  0.00  0.00    -0.016 C 
ATOM      8  C   UNL     1      32.402 -19.451 -20.577  0.00  0.00    -0.002 C 
ATOM      9  C   UNL     1      34.535 -18.411 -20.981  0.00  0.00    +0.016 C 
ATOM     10  C   UNL     1      33.493 -20.520 -20.397  0.00  0.00    +0.021 C 
ATOM     11  C   UNL     1      32.639 -16.954 -21.198  0.00  0.00    +0.053 C 
ATOM     12  C   UNL     1      34.789 -19.800 -20.664  0.00  0.00    +0.107 C 
ATOM     13  C   UNL     1      34.909 -16.140 -21.555  0.00  0.00    -0.004 C 
ATOM     14  C   UNL     1      35.433 -17.405 -21.288  0.00  0.00    +0.001 C 
BRANCH  12  15
ATOM     15  N   UNL     1      35.936 -20.385 -20.604  0.00  0.00    -0.135 NA
BRANCH  15  16
ATOM     16  O   UNL     1      36.268 -20.570 -19.259  0.00  0.00    -0.265 OA
ATOM     17  H   UNL     1      36.432 -19.828 -18.711  0.00  0.00    +0.247 HD
ENDBRANCH  15  16
ENDBRANCH  12  15
ENDBRANCH   4   6
BRANCH   1  19
ATOM     18  N   UNL     1      31.872  -8.923 -19.316  0.00  0.00    +0.384 N 
ATOM     19  C   UNL     1      31.643 -11.391 -20.864  0.00  0.00    +0.092 C 
ATOM     20  C   UNL     1      31.758 -11.394 -19.331  0.00  0.00    -0.002 C 
ATOM     21  C   UNL     1      32.268 -10.115 -21.448  0.00  0.00    -0.002 C 
ATOM     22  C   UNL     1      31.211 -10.096 -18.741  0.00  0.00    -0.080 C 
ATOM     23  C   UNL     1      31.699  -8.869 -20.769  0.00  0.00    -0.080 C 
ATOM     24  H   UNL     1      32.868  -8.966 -19.102  0.00  0.00    -0.085 HD
ATOM     25  H   UNL     1      31.449  -8.088 -18.912  0.00  0.00    -0.085 HD
ENDBRANCH   1  19
BRANCH   5  27
ATOM     26  N   UNL     1      33.625 -15.298 -26.910  0.00  0.00    -0.242 NA
ATOM     27  C   UNL     1      33.085 -14.385 -24.330  0.00  0.00    +0.022 C 
ATOM     28  C   UNL     1      32.829 -13.568 -25.421  0.00  0.00    +0.022 C 
ATOM     29  C   UNL     1      33.610 -15.657 -24.519  0.00  0.00    +0.022 C 
ATOM     30  C   UNL     1      33.114 -14.067 -26.682  0.00  0.00    +0.099 C 
ATOM     31  C   UNL     1      33.860 -16.062 -25.820  0.00  0.00    +0.099 C 
ENDBRANCH   5  27
TORSDOF 5
ENDMDL
MODEL 4
REMARK VINA RESULT:      -9.8      2.229      5.390
REMARK  Name = 11653652
REMARK  5 active torsions:
REMARK  status: ('A' for Active; 'I' for Inactive)
REMARK    1  A    between atoms: N_1  and  C_19
REMARK    2  A    between atoms: C_4  and  C_7
REMARK    3  A    between atoms: C_5  and  C_27
REMARK    4  A    between atoms: N_6  and  C_13
REMARK    5  A    between atoms: N_6  and  O_16
REMARK                            x       y       z     vdW  Elec       q    Type
REMARK                         _______ _______ _______ _____ _____    ______ ____
ROOT
ATOM      1  N   UNL     1      31.647 -23.511 -15.888  0.00  0.00    -0.212 N 
ATOM      2  N   UNL     1      32.193 -22.909 -16.958  0.00  0.00    -0.178 NA
ATOM      3  C   UNL     1      32.562 -24.047 -15.030  0.00  0.00    +0.085 C 
ATOM      4  C   UNL     1      33.788 -23.776 -15.579  0.00  0.00    +0.032 C 
ATOM      5  C   UNL     1      33.504 -23.074 -16.763  0.00  0.00    +0.100 C 
ENDROOT
BRANCH   4   6
ATOM      6  C   UNL     1      35.030 -24.174 -14.977  0.00  0.00    -0.015 C 
ATOM      7  C   UNL     1      36.740 -23.852 -13.333  0.00  0.00    -0.016 C 
ATOM      8  C   UNL     1      37.459 -23.223 -12.181  0.00  0.00    -0.002 C 
ATOM      9  C   UNL     1      37.405 -24.960 -13.847  0.00  0.00    +0.016 C 
ATOM     10  C   UNL     1      38.717 -24.090 -12.004  0.00  0.00    +0.021 C 
ATOM     11  C   UNL     1      35.540 -23.448 -13.895  0.00  0.00    +0.053 C 
ATOM     12  C   UNL     1      38.614 -25.146 -13.073  0.00  0.00    +0.107 C 
ATOM     13  C   UNL     1      35.719 -25.291 -15.482  0.00  0.00    -0.004 C 
ATOM     14  C   UNL     1      36.926 -25.697 -14.914  0.00  0.00    +0.001 C 
BRANCH  12  15
ATOM     15  N   UNL     1      39.505 -26.063 -13.235  0.00  0.00    -0.135 NA
BRANCH  15  16
ATOM     16  O   UNL     1      40.572 -25.520 -13.954  0.00  0.00    -0.265 OA
ATOM     17  H   UNL     1      41.375 -25.997 -14.033  0.00  0.00    +0.247 HD
ENDBRANCH  15  16
ENDBRANCH  12  15
ENDBRANCH   4   6
BRANCH   1  19
ATOM     18  N   UNL     1      27.478 -22.613 -16.311  0.00  0.00    +0.384 N 
ATOM     19  C   UNL     1      30.189 -23.541 -15.736  0.00  0.00    +0.092 C 
ATOM     20  C   UNL     1      29.627 -22.239 -15.144  0.00  0.00    -0.002 C 
ATOM     21  C   UNL     1      29.463 -23.895 -17.044  0.00  0.00    -0.002 C 
ATOM     22  C   UNL     1      28.105 -22.306 -15.025  0.00  0.00    -0.080 C 
ATOM     23  C   UNL     1      27.948 -23.893 -16.845  0.00  0.00    -0.080 C 
ATOM     24  H   UNL     1      27.705 -21.874 -16.976  0.00  0.00    -0.085 HD
ATOM     25  H   UNL     1      26.470 -22.677 -16.169  0.00  0.00    -0.085 HD
ENDBRANCH   1  19
BRANCH   5  27
ATOM     26  N   UNL     1      36.277 -21.546 -19.570  0.00  0.00    -0.242 NA
ATOM     27  C   UNL     1      34.449 -22.553 -17.719  0.00  0.00    +0.022 C 
ATOM     28  C   UNL     1      34.089 -22.436 -19.054  0.00  0.00    +0.022 C 
ATOM     29  C   UNL     1      35.716 -22.171 -17.303  0.00  0.00    +0.022 C 
ATOM     30  C   UNL     1      35.032 -21.930 -19.934  0.00  0.00    +0.099 C 
ATOM     31  C   UNL     1      36.587 -21.678 -18.260  0.00  0.00    +0.099 C 
ENDBRANCH   5  27
TORSDOF 5
ENDMDL
MODEL 5
REMARK VINA RESULT:      -9.4      6.817     11.121
REMARK  Name = 11653652
REMARK  5 active torsions:
REMARK  status: ('A' for Active; 'I' for Inactive)
REMARK    1  A    between atoms: N_1  and  C_19
REMARK    2  A    between atoms: C_4  and  C_7
REMARK    3  A    between atoms: C_5  and  C_27
REMARK    4  A    between atoms: N_6  and  C_13
REMARK    5  A    between atoms: N_6  and  O_16
REMARK                            x       y       z     vdW  Elec       q    Type
REMARK                         _______ _______ _______ _____ _____    ______ ____
ROOT
ATOM      1  N   UNL     1      32.078 -12.681 -21.417  0.00  0.00    -0.212 N 
ATOM      2  N   UNL     1      32.314 -12.775 -22.736  0.00  0.00    -0.178 NA
ATOM      3  C   UNL     1      32.310 -13.837 -20.731  0.00  0.00    +0.085 C 
ATOM      4  C   UNL     1      32.725 -14.747 -21.668  0.00  0.00    +0.032 C 
ATOM      5  C   UNL     1      32.710 -14.042 -22.884  0.00  0.00    +0.100 C 
ENDROOT
BRANCH   4   6
ATOM      6  C   UNL     1      33.075 -16.104 -21.353  0.00  0.00    -0.015 C 
ATOM      7  C   UNL     1      34.722 -17.826 -21.129  0.00  0.00    -0.016 C 
ATOM      8  C   UNL     1      36.074 -18.468 -21.155  0.00  0.00    -0.002 C 
ATOM      9  C   UNL     1      33.714 -18.703 -20.743  0.00  0.00    +0.016 C 
ATOM     10  C   UNL     1      35.809 -19.920 -20.723  0.00  0.00    +0.021 C 
ATOM     11  C   UNL     1      34.410 -16.512 -21.437  0.00  0.00    +0.053 C 
ATOM     12  C   UNL     1      34.324 -19.990 -20.485  0.00  0.00    +0.107 C 
ATOM     13  C   UNL     1      32.071 -17.006 -20.961  0.00  0.00    -0.004 C 
ATOM     14  C   UNL     1      32.386 -18.328 -20.650  0.00  0.00    +0.001 C 
BRANCH  12  15
ATOM     15  N   UNL     1      33.729 -21.068 -20.108  0.00  0.00    -0.135 NA
BRANCH  15  16
ATOM     16  O   UNL     1      34.639 -21.847 -19.388  0.00  0.00    -0.265 OA
ATOM     17  H   UNL     1      35.157 -22.490 -19.831  0.00  0.00    +0.247 HD
ENDBRANCH  15  16
ENDBRANCH  12  15
ENDBRANCH   4   6
BRANCH   1  19
ATOM     18  N   UNL     1      31.995  -8.899 -19.401  0.00  0.00    +0.384 N 
ATOM     19  C   UNL     1      31.617 -11.409 -20.849  0.00  0.00    +0.092 C 
ATOM     20  C   UNL     1      31.750 -11.359 -19.319  0.00  0.00    -0.002 C 
ATOM     21  C   UNL     1      32.301 -10.192 -21.489  0.00  0.00    -0.002 C 
ATOM     22  C   UNL     1      31.280 -10.011 -18.774  0.00  0.00    -0.080 C 
ATOM     23  C   UNL     1      31.808  -8.892 -20.854  0.00  0.00    -0.080 C 
ATOM     24  H   UNL     1      32.990  -8.987 -19.196  0.00  0.00    -0.085 HD
ATOM     25  H   UNL     1      31.623  -8.027 -19.027  0.00  0.00    -0.085 HD
ENDBRANCH   1  19
BRANCH   5  27
ATOM     26  N   UNL     1      33.745 -15.510 -26.715  0.00  0.00    -0.242 NA
ATOM     27  C   UNL     1      33.062 -14.542 -24.189  0.00  0.00    +0.022 C 
ATOM     28  C   UNL     1      33.816 -15.701 -24.306  0.00  0.00    +0.022 C 
ATOM     29  C   UNL     1      32.647 -13.863 -25.326  0.00  0.00    +0.022 C 
ATOM     30  C   UNL     1      34.129 -16.140 -25.582  0.00  0.00    +0.099 C 
ATOM     31  C   UNL     1      33.012 -14.385 -26.556  0.00  0.00    +0.099 C 
ENDBRANCH   5  27
TORSDOF 5
ENDMDL
MODEL 6
REMARK VINA RESULT:      -9.3      8.621     12.730
REMARK  Name = 11653652
REMARK  5 active torsions:
REMARK  status: ('A' for Active; 'I' for Inactive)
REMARK    1  A    between atoms: N_1  and  C_19
REMARK    2  A    between atoms: C_4  and  C_7
REMARK    3  A    between atoms: C_5  and  C_27
REMARK    4  A    between atoms: N_6  and  C_13
REMARK    5  A    between atoms: N_6  and  O_16
REMARK                            x       y       z     vdW  Elec       q    Type
REMARK                         _______ _______ _______ _____ _____    ______ ____
ROOT
ATOM      1  N   UNL     1      32.298 -11.513 -22.037  0.00  0.00    -0.212 N 
ATOM      2  N   UNL     1      32.428 -11.470 -23.373  0.00  0.00    -0.178 NA
ATOM      3  C   UNL     1      32.688 -12.696 -21.481  0.00  0.00    +0.085 C 
ATOM      4  C   UNL     1      33.100 -13.478 -22.529  0.00  0.00    +0.032 C 
ATOM      5  C   UNL     1      32.920 -12.677 -23.669  0.00  0.00    +0.100 C 
ENDROOT
BRANCH   4   6
ATOM      6  C   UNL     1      33.594 -14.818 -22.369  0.00  0.00    -0.015 C 
ATOM      7  C   UNL     1      34.484 -16.830 -23.311  0.00  0.00    -0.016 C 
ATOM      8  C   UNL     1      34.978 -17.772 -24.365  0.00  0.00    -0.002 C 
ATOM      9  C   UNL     1      34.532 -17.375 -22.032  0.00  0.00    +0.016 C 
ATOM     10  C   UNL     1      35.365 -19.039 -23.585  0.00  0.00    +0.021 C 
ATOM     11  C   UNL     1      34.014 -15.539 -23.491  0.00  0.00    +0.053 C 
ATOM     12  C   UNL     1      35.061 -18.718 -22.145  0.00  0.00    +0.107 C 
ATOM     13  C   UNL     1      33.650 -15.388 -21.085  0.00  0.00    -0.004 C 
ATOM     14  C   UNL     1      34.125 -16.686 -20.905  0.00  0.00    +0.001 C 
BRANCH  12  15
ATOM     15  N   UNL     1      35.260 -19.556 -21.188  0.00  0.00    -0.135 NA
BRANCH  15  16
ATOM     16  O   UNL     1      36.421 -19.182 -20.507  0.00  0.00    -0.265 OA
ATOM     17  H   UNL     1      36.413 -18.432 -19.945  0.00  0.00    +0.247 HD
ENDBRANCH  15  16
ENDBRANCH  12  15
ENDBRANCH   4   6
BRANCH   1  19
ATOM     18  N   UNL     1      32.015  -8.064 -19.508  0.00  0.00    +0.384 N 
ATOM     19  C   UNL     1      31.776 -10.345 -21.319  0.00  0.00    +0.092 C 
ATOM     20  C   UNL     1      31.827 -10.514 -19.792  0.00  0.00    -0.002 C 
ATOM     21  C   UNL     1      32.463  -9.036 -21.739  0.00  0.00    -0.002 C 
ATOM     22  C   UNL     1      31.296  -9.267 -19.087  0.00  0.00    -0.080 C 
ATOM     23  C   UNL     1      31.904  -7.850 -20.952  0.00  0.00    -0.080 C 
ATOM     24  H   UNL     1      33.000  -8.164 -19.263  0.00  0.00    -0.085 HD
ATOM     25  H   UNL     1      31.602  -7.262 -19.033  0.00  0.00    -0.085 HD
ENDBRANCH   1  19
BRANCH   5  27
ATOM     26  N   UNL     1      33.751 -13.704 -27.688  0.00  0.00    -0.242 NA
ATOM     27  C   UNL     1      33.203 -13.027 -25.038  0.00  0.00    +0.022 C 
ATOM     28  C   UNL     1      33.955 -12.171 -25.830  0.00  0.00    +0.022 C 
ATOM     29  C   UNL     1      32.723 -14.219 -25.561  0.00  0.00    +0.022 C 
ATOM     30  C   UNL     1      34.200 -12.552 -27.139  0.00  0.00    +0.099 C 
ATOM     31  C   UNL     1      33.022 -14.509 -26.882  0.00  0.00    +0.099 C 
ENDBRANCH   5  27
TORSDOF 5
ENDMDL
MODEL 7
REMARK VINA RESULT:      -9.3      3.249      7.417
REMARK  Name = 11653652
REMARK  5 active torsions:
REMARK  status: ('A' for Active; 'I' for Inactive)
REMARK    1  A    between atoms: N_1  and  C_19
REMARK    2  A    between atoms: C_4  and  C_7
REMARK    3  A    between atoms: C_5  and  C_27
REMARK    4  A    between atoms: N_6  and  C_13
REMARK    5  A    between atoms: N_6  and  O_16
REMARK                            x       y       z     vdW  Elec       q    Type
REMARK                         _______ _______ _______ _____ _____    ______ ____
ROOT
ATOM      1  N   UNL     1      35.648 -24.508 -15.091  0.00  0.00    -0.212 N 
ATOM      2  N   UNL     1      34.354 -24.431 -14.739  0.00  0.00    -0.178 NA
ATOM      3  C   UNL     1      35.958 -23.800 -16.215  0.00  0.00    +0.085 C 
ATOM      4  C   UNL     1      34.784 -23.222 -16.624  0.00  0.00    +0.032 C 
ATOM      5  C   UNL     1      33.830 -23.642 -15.682  0.00  0.00    +0.100 C 
ENDROOT
BRANCH   4   6
ATOM      6  C   UNL     1      34.678 -22.384 -17.785  0.00  0.00    -0.015 C 
ATOM      7  C   UNL     1      35.689 -20.937 -19.402  0.00  0.00    -0.016 C 
ATOM      8  C   UNL     1      36.769 -20.163 -20.092  0.00  0.00    -0.002 C 
ATOM      9  C   UNL     1      34.445 -20.788 -20.006  0.00  0.00    +0.016 C 
ATOM     10  C   UNL     1      36.046 -19.469 -21.259  0.00  0.00    +0.021 C 
ATOM     11  C   UNL     1      35.817 -21.742 -18.282  0.00  0.00    +0.053 C 
ATOM     12  C   UNL     1      34.609 -19.903 -21.140  0.00  0.00    +0.107 C 
ATOM     13  C   UNL     1      33.430 -22.219 -18.410  0.00  0.00    -0.004 C 
ATOM     14  C   UNL     1      33.302 -21.410 -19.539  0.00  0.00    +0.001 C 
BRANCH  12  15
ATOM     15  N   UNL     1      33.693 -19.513 -21.958  0.00  0.00    -0.135 NA
BRANCH  15  16
ATOM     16  O   UNL     1      34.306 -19.112 -23.148  0.00  0.00    -0.265 OA
ATOM     17  H   UNL     1      34.734 -18.280 -23.197  0.00  0.00    +0.247 HD
ENDBRANCH  15  16
ENDBRANCH  12  15
ENDBRANCH   4   6
BRANCH   1  19
ATOM     18  N   UNL     1      38.729 -25.633 -12.332  0.00  0.00    +0.384 N 
ATOM     19  C   UNL     1      36.576 -25.304 -14.280  0.00  0.00    +0.092 C 
ATOM     20  C   UNL     1      38.048 -25.045 -14.636  0.00  0.00    -0.002 C 
ATOM     21  C   UNL     1      36.347 -25.126 -12.771  0.00  0.00    -0.002 C 
ATOM     22  C   UNL     1      38.978 -25.876 -13.753  0.00  0.00    -0.080 C 
ATOM     23  C   UNL     1      37.348 -25.954 -11.966  0.00  0.00    -0.080 C 
ATOM     24  H   UNL     1      38.904 -24.649 -12.128  0.00  0.00    -0.085 HD
ATOM     25  H   UNL     1      39.350 -26.233 -11.790  0.00  0.00    -0.085 HD
ENDBRANCH   1  19
BRANCH   5  27
ATOM     26  N   UNL     1      29.712 -22.676 -15.594  0.00  0.00    -0.242 NA
ATOM     27  C   UNL     1      32.427 -23.313 -15.652  0.00  0.00    +0.022 C 
ATOM     28  C   UNL     1      31.636 -23.550 -16.767  0.00  0.00    +0.022 C 
ATOM     29  C   UNL     1      31.870 -22.760 -14.507  0.00  0.00    +0.022 C 
ATOM     30  C   UNL     1      30.294 -23.217 -16.689  0.00  0.00    +0.099 C 
ATOM     31  C   UNL     1      30.518 -22.461 -14.530  0.00  0.00    +0.099 C 
ENDBRANCH   5  27
TORSDOF 5
ENDMDL
MODEL 8
REMARK VINA RESULT:      -8.8      8.986     13.747
REMARK  Name = 11653652
REMARK  5 active torsions:
REMARK  status: ('A' for Active; 'I' for Inactive)
REMARK    1  A    between atoms: N_1  and  C_19
REMARK    2  A    between atoms: C_4  and  C_7
REMARK    3  A    between atoms: C_5  and  C_27
REMARK    4  A    between atoms: N_6  and  C_13
REMARK    5  A    between atoms: N_6  and  O_16
REMARK                            x       y       z     vdW  Elec       q    Type
REMARK                         _______ _______ _______ _____ _____    ______ ____
ROOT
ATOM      1  N   UNL     1      32.310 -10.216 -22.709  0.00  0.00    -0.212 N 
ATOM      2  N   UNL     1      32.648 -10.307 -24.006  0.00  0.00    -0.178 NA
ATOM      3  C   UNL     1      32.525 -11.362 -22.000  0.00  0.00    +0.085 C 
ATOM      4  C   UNL     1      33.039 -12.261 -22.898  0.00  0.00    +0.032 C 
ATOM      5  C   UNL     1      33.094 -11.562 -24.116  0.00  0.00    +0.100 C 
ENDROOT
BRANCH   4   6
ATOM      6  C   UNL     1      33.406 -13.605 -22.549  0.00  0.00    -0.015 C 
ATOM      7  C   UNL     1      34.499 -15.666 -23.084  0.00  0.00    -0.016 C 
ATOM      8  C   UNL     1      35.291 -16.652 -23.886  0.00  0.00    -0.002 C 
ATOM      9  C   UNL     1      34.093 -16.170 -21.854  0.00  0.00    +0.016 C 
ATOM     10  C   UNL     1      35.351 -17.902 -22.991  0.00  0.00    +0.021 C 
ATOM     11  C   UNL     1      34.159 -14.372 -23.444  0.00  0.00    +0.053 C 
ATOM     12  C   UNL     1      34.585 -17.527 -21.749  0.00  0.00    +0.107 C 
ATOM     13  C   UNL     1      33.004 -14.134 -21.310  0.00  0.00    -0.004 C 
ATOM     14  C   UNL     1      33.349 -15.436 -20.949  0.00  0.00    +0.001 C 
BRANCH  12  15
ATOM     15  N   UNL     1      34.421 -18.338 -20.761  0.00  0.00    -0.135 NA
BRANCH  15  16
ATOM     16  O   UNL     1      33.293 -19.122 -21.017  0.00  0.00    -0.265 OA
ATOM     17  H   UNL     1      32.799 -18.990 -21.802  0.00  0.00    +0.247 HD
ENDBRANCH  15  16
ENDBRANCH  12  15
ENDBRANCH   4   6
BRANCH   1  19
ATOM     18  N   UNL     1      31.827  -6.073 -21.724  0.00  0.00    +0.384 N 
ATOM     19  C   UNL     1      31.767  -8.958 -22.186  0.00  0.00    +0.092 C 
ATOM     20  C   UNL     1      32.671  -8.318 -21.120  0.00  0.00    -0.002 C 
ATOM     21  C   UNL     1      31.443  -7.945 -23.295  0.00  0.00    -0.002 C 
ATOM     22  C   UNL     1      32.080  -7.001 -20.621  0.00  0.00    -0.080 C 
ATOM     23  C   UNL     1      30.902  -6.643 -22.705  0.00  0.00    -0.080 C 
ATOM     24  H   UNL     1      32.711  -5.860 -22.187  0.00  0.00    -0.085 HD
ATOM     25  H   UNL     1      31.405  -5.228 -21.341  0.00  0.00    -0.085 HD
ENDBRANCH   1  19
BRANCH   5  27
ATOM     26  N   UNL     1      34.463 -13.009 -27.848  0.00  0.00    -0.242 NA
ATOM     27  C   UNL     1      33.560 -12.055 -25.387  0.00  0.00    +0.022 C 
ATOM     28  C   UNL     1      32.944 -13.151 -25.973  0.00  0.00    +0.022 C 
ATOM     29  C   UNL     1      34.626 -11.432 -26.022  0.00  0.00    +0.022 C 
ATOM     30  C   UNL     1      33.429 -13.586 -27.196  0.00  0.00    +0.099 C 
ATOM     31  C   UNL     1      35.036 -11.945 -27.242  0.00  0.00    +0.099 C 
ENDBRANCH   5  27
TORSDOF 5
ENDMDL
MODEL 9
REMARK VINA RESULT:      -8.6      3.332      7.747
REMARK  Name = 11653652
REMARK  5 active torsions:
REMARK  status: ('A' for Active; 'I' for Inactive)
REMARK    1  A    between atoms: N_1  and  C_19
REMARK    2  A    between atoms: C_4  and  C_7
REMARK    3  A    between atoms: C_5  and  C_27
REMARK    4  A    between atoms: N_6  and  C_13
REMARK    5  A    between atoms: N_6  and  O_16
REMARK                            x       y       z     vdW  Elec       q    Type
REMARK                         _______ _______ _______ _____ _____    ______ ____
ROOT
ATOM      1  N   UNL     1      36.810 -23.566 -15.228  0.00  0.00    -0.212 N 
ATOM      2  N   UNL     1      35.512 -23.752 -14.934  0.00  0.00    -0.178 NA
ATOM      3  C   UNL     1      37.021 -22.862 -16.377  0.00  0.00    +0.085 C 
ATOM      4  C   UNL     1      35.775 -22.570 -16.866  0.00  0.00    +0.032 C 
ATOM      5  C   UNL     1      34.883 -23.139 -15.942  0.00  0.00    +0.100 C 
ENDROOT
BRANCH   4   6
ATOM      6  C   UNL     1      35.555 -21.829 -18.078  0.00  0.00    -0.015 C 
ATOM      7  C   UNL     1      34.064 -20.921 -19.715  0.00  0.00    -0.016 C 
ATOM      8  C   UNL     1      32.765 -20.603 -20.387  0.00  0.00    -0.002 C 
ATOM      9  C   UNL     1      35.165 -20.411 -20.394  0.00  0.00    +0.016 C 
ATOM     10  C   UNL     1      33.173 -19.794 -21.630  0.00  0.00    +0.021 C 
ATOM     11  C   UNL     1      34.250 -21.638 -18.544  0.00  0.00    +0.053 C 
ATOM     12  C   UNL     1      34.676 -19.717 -21.567  0.00  0.00    +0.107 C 
ATOM     13  C   UNL     1      36.654 -21.306 -18.780  0.00  0.00    -0.004 C 
ATOM     14  C   UNL     1      36.465 -20.584 -19.958  0.00  0.00    +0.001 C 
BRANCH  12  15
ATOM     15  N   UNL     1      35.380 -19.107 -22.457  0.00  0.00    -0.135 NA
BRANCH  15  16
ATOM     16  O   UNL     1      34.908 -17.797 -22.573  0.00  0.00    -0.265 OA
ATOM     17  H   UNL     1      35.039 -17.321 -23.369  0.00  0.00    +0.247 HD
ENDBRANCH  15  16
ENDBRANCH  12  15
ENDBRANCH   4   6
BRANCH   1  19
ATOM     18  N   UNL     1      38.958 -26.131 -12.549  0.00  0.00    +0.384 N 
ATOM     19  C   UNL     1      37.842 -24.105 -14.335  0.00  0.00    +0.092 C 
ATOM     20  C   UNL     1      37.341 -24.292 -12.894  0.00  0.00    -0.002 C 
ATOM     21  C   UNL     1      38.460 -25.409 -14.863  0.00  0.00    -0.002 C 
ATOM     22  C   UNL     1      38.438 -24.876 -12.006  0.00  0.00    -0.080 C 
ATOM     23  C   UNL     1      39.512 -25.947 -13.892  0.00  0.00    -0.080 C 
ATOM     24  H   UNL     1      38.200 -26.812 -12.594  0.00  0.00    -0.085 HD
ATOM     25  H   UNL     1      39.706 -26.459 -11.938  0.00  0.00    -0.085 HD
ENDBRANCH   1  19
BRANCH   5  27
ATOM     26  N   UNL     1      30.655 -23.077 -16.079  0.00  0.00    -0.242 NA
ATOM     27  C   UNL     1      33.443 -23.118 -15.988  0.00  0.00    +0.022 C 
ATOM     28  C   UNL     1      32.718 -22.778 -14.855  0.00  0.00    +0.022 C 
ATOM     29  C   UNL     1      32.784 -23.438 -17.167  0.00  0.00    +0.022 C 
ATOM     30  C   UNL     1      31.336 -22.772 -14.951  0.00  0.00    +0.099 C 
ATOM     31  C   UNL     1      31.399 -23.403 -17.160  0.00  0.00    +0.099 C 
ENDBRANCH   5  27
TORSDOF 5
ENDMDL
