MODEL 1
REMARK VINA RESULT:      -9.2      0.000      0.000
REMARK  Name = 4788
REMARK  8 active torsions:
REMARK  status: ('A' for Active; 'I' for Inactive)
REMARK    1  A    between atoms: C_2  and  C_3
REMARK    2  A    between atoms: C_2  and  C_15
REMARK    3  A    between atoms: C_4  and  O_9
REMARK    4  A    between atoms: C_5  and  O_11
REMARK    5  A    between atoms: C_8  and  O_13
REMARK    6  A    between atoms: C_15  and  C_16
REMARK    7  A    between atoms: C_16  and  C_17
REMARK    8  A    between atoms: C_22  and  O_23
REMARK                            x       y       z     vdW  Elec       q    Type
REMARK                         _______ _______ _______ _____ _____    ______ ____
ROOT
ATOM      1  O   UNL     1      35.336 -16.768 -20.201  0.00  0.00    -0.291 OA
ATOM      2  C   UNL     1      34.534 -16.799 -21.154  0.00  0.00    +0.179 C 
ENDROOT
BRANCH   2   3
ATOM      3  C   UNL     1      34.042 -15.564 -21.754  0.00  0.00    +0.102 C 
ATOM      4  C   UNL     1      33.061 -14.816 -21.103  0.00  0.00    +0.142 C 
ATOM      5  C   UNL     1      34.554 -15.129 -22.977  0.00  0.00    +0.142 C 
ATOM      6  C   UNL     1      32.591 -13.634 -21.675  0.00  0.00    +0.073 C 
ATOM      7  C   UNL     1      34.084 -13.947 -23.549  0.00  0.00    +0.073 C 
ATOM      8  C   UNL     1      33.103 -13.199 -22.898  0.00  0.00    +0.140 C 
BRANCH   4   9
ATOM      9  O   UNL     1      32.548 -15.222 -19.907  0.00  0.00    -0.505 OA
ATOM     10  H   UNL     1      32.744 -16.078 -19.579  0.00  0.00    +0.292 HD
ENDBRANCH   4   9
BRANCH   5  11
ATOM     11  O   UNL     1      35.513 -15.845 -23.629  0.00  0.00    -0.505 OA
ATOM     12  H   UNL     1      36.026 -15.439 -24.300  0.00  0.00    +0.292 HD
ENDBRANCH   5  11
BRANCH   8  13
ATOM     13  O   UNL     1      32.644 -12.046 -23.457  0.00  0.00    -0.505 OA
ATOM     14  H   UNL     1      32.199 -12.070 -24.281  0.00  0.00    +0.292 HD
ENDBRANCH   8  13
ENDBRANCH   2   3
BRANCH   2  15
ATOM     15  C   UNL     1      34.061 -18.156 -21.703  0.00  0.00    +0.074 C 
BRANCH  15  16
ATOM     16  C   UNL     1      35.163 -19.218 -21.722  0.00  0.00    +0.034 C 
BRANCH  16  17
ATOM     17  C   UNL     1      34.957 -20.254 -20.648  0.00  0.00    -0.022 C 
ATOM     18  C   UNL     1      36.059 -20.819 -20.026  0.00  0.00    -0.001 C 
ATOM     19  C   UNL     1      33.667 -20.628 -20.299  0.00  0.00    -0.001 C 
ATOM     20  C   UNL     1      35.870 -21.779 -19.031  0.00  0.00    +0.036 C 
ATOM     21  C   UNL     1      33.476 -21.587 -19.304  0.00  0.00    +0.036 C 
ATOM     22  C   UNL     1      34.578 -22.163 -18.671  0.00  0.00    +0.134 C 
BRANCH  22  23
ATOM     23  O   UNL     1      34.392 -23.098 -17.700  0.00  0.00    -0.506 OA
ATOM     24  H   UNL     1      33.696 -23.721 -17.775  0.00  0.00    +0.292 HD
ENDBRANCH  22  23
ENDBRANCH  16  17
ENDBRANCH  15  16
ENDBRANCH   2  15
TORSDOF 8
ENDMDL
MODEL 2
REMARK VINA RESULT:      -9.2      0.065      1.864
REMARK  Name = 4788
REMARK  8 active torsions:
REMARK  status: ('A' for Active; 'I' for Inactive)
REMARK    1  A    between atoms: C_2  and  C_3
REMARK    2  A    between atoms: C_2  and  C_15
REMARK    3  A    between atoms: C_4  and  O_9
REMARK    4  A    between atoms: C_5  and  O_11
REMARK    5  A    between atoms: C_8  and  O_13
REMARK    6  A    between atoms: C_15  and  C_16
REMARK    7  A    between atoms: C_16  and  C_17
REMARK    8  A    between atoms: C_22  and  O_23
REMARK                            x       y       z     vdW  Elec       q    Type
REMARK                         _______ _______ _______ _____ _____    ______ ____
ROOT
ATOM      1  O   UNL     1      35.372 -16.769 -20.217  0.00  0.00    -0.291 OA
ATOM      2  C   UNL     1      34.514 -16.801 -21.121  0.00  0.00    +0.179 C 
ENDROOT
BRANCH   2   3
ATOM      3  C   UNL     1      34.032 -15.567 -21.731  0.00  0.00    +0.102 C 
ATOM      4  C   UNL     1      34.554 -15.145 -22.954  0.00  0.00    +0.142 C 
ATOM      5  C   UNL     1      33.050 -14.809 -21.094  0.00  0.00    +0.142 C 
ATOM      6  C   UNL     1      34.094 -13.966 -23.539  0.00  0.00    +0.073 C 
ATOM      7  C   UNL     1      32.589 -13.630 -21.678  0.00  0.00    +0.073 C 
ATOM      8  C   UNL     1      33.111 -13.208 -22.901  0.00  0.00    +0.140 C 
BRANCH   4   9
ATOM      9  O   UNL     1      35.514 -15.870 -23.595  0.00  0.00    -0.505 OA
ATOM     10  H   UNL     1      35.340 -16.234 -24.441  0.00  0.00    +0.292 HD
ENDBRANCH   4   9
BRANCH   5  11
ATOM     11  O   UNL     1      32.527 -15.203 -19.899  0.00  0.00    -0.505 OA
ATOM     12  H   UNL     1      31.769 -14.774 -19.553  0.00  0.00    +0.292 HD
ENDBRANCH   5  11
BRANCH   8  13
ATOM     13  O   UNL     1      32.662 -12.057 -23.472  0.00  0.00    -0.505 OA
ATOM     14  H   UNL     1      32.030 -12.091 -24.162  0.00  0.00    +0.292 HD
ENDBRANCH   8  13
ENDBRANCH   2   3
BRANCH   2  15
ATOM     15  C   UNL     1      33.962 -18.155 -21.596  0.00  0.00    +0.074 C 
BRANCH  15  16
ATOM     16  C   UNL     1      35.035 -19.241 -21.703  0.00  0.00    +0.034 C 
BRANCH  16  17
ATOM     17  C   UNL     1      34.883 -20.283 -20.625  0.00  0.00    -0.022 C 
ATOM     18  C   UNL     1      36.016 -20.818 -20.031  0.00  0.00    -0.001 C 
ATOM     19  C   UNL     1      33.613 -20.690 -20.244  0.00  0.00    -0.001 C 
ATOM     20  C   UNL     1      35.876 -21.783 -19.033  0.00  0.00    +0.036 C 
ATOM     21  C   UNL     1      33.472 -21.655 -19.246  0.00  0.00    +0.036 C 
ATOM     22  C   UNL     1      34.604 -22.202 -18.641  0.00  0.00    +0.134 C 
BRANCH  22  23
ATOM     23  O   UNL     1      34.468 -23.141 -17.667  0.00  0.00    -0.506 OA
ATOM     24  H   UNL     1      34.039 -22.924 -16.862  0.00  0.00    +0.292 HD
ENDBRANCH  22  23
ENDBRANCH  16  17
ENDBRANCH  15  16
ENDBRANCH   2  15
TORSDOF 8
ENDMDL
MODEL 3
REMARK VINA RESULT:      -9.1      1.217      1.621
REMARK  Name = 4788
REMARK  8 active torsions:
REMARK  status: ('A' for Active; 'I' for Inactive)
REMARK    1  A    between atoms: C_2  and  C_3
REMARK    2  A    between atoms: C_2  and  C_15
REMARK    3  A    between atoms: C_4  and  O_9
REMARK    4  A    between atoms: C_5  and  O_11
REMARK    5  A    between atoms: C_8  and  O_13
REMARK    6  A    between atoms: C_15  and  C_16
REMARK    7  A    between atoms: C_16  and  C_17
REMARK    8  A    between atoms: C_22  and  O_23
REMARK                            x       y       z     vdW  Elec       q    Type
REMARK                         _______ _______ _______ _____ _____    ______ ____
ROOT
ATOM      1  O   UNL     1      36.838 -18.276 -22.148  0.00  0.00    -0.291 OA
ATOM      2  C   UNL     1      35.628 -18.122 -22.402  0.00  0.00    +0.179 C 
ENDROOT
BRANCH   2   3
ATOM      3  C   UNL     1      35.075 -16.787 -22.602  0.00  0.00    +0.102 C 
ATOM      4  C   UNL     1      34.822 -15.966 -21.503  0.00  0.00    +0.142 C 
ATOM      5  C   UNL     1      34.799 -16.331 -23.891  0.00  0.00    +0.142 C 
ATOM      6  C   UNL     1      34.294 -14.689 -21.694  0.00  0.00    +0.073 C 
ATOM      7  C   UNL     1      34.271 -15.055 -24.082  0.00  0.00    +0.073 C 
ATOM      8  C   UNL     1      34.018 -14.234 -22.983  0.00  0.00    +0.140 C 
BRANCH   4   9
ATOM      9  O   UNL     1      35.085 -16.391 -20.235  0.00  0.00    -0.505 OA
ATOM     10  H   UNL     1      34.948 -17.289 -20.004  0.00  0.00    +0.292 HD
ENDBRANCH   4   9
BRANCH   5  11
ATOM     11  O   UNL     1      35.038 -17.117 -24.978  0.00  0.00    -0.505 OA
ATOM     12  H   UNL     1      34.559 -16.980 -25.772  0.00  0.00    +0.292 HD
ENDBRANCH   5  11
BRANCH   8  13
ATOM     13  O   UNL     1      33.501 -12.988 -23.169  0.00  0.00    -0.505 OA
ATOM     14  H   UNL     1      34.031 -12.312 -23.542  0.00  0.00    +0.292 HD
ENDBRANCH   8  13
ENDBRANCH   2   3
BRANCH   2  15
ATOM     15  C   UNL     1      34.712 -19.353 -22.508  0.00  0.00    +0.074 C 
BRANCH  15  16
ATOM     16  C   UNL     1      33.642 -19.405 -21.416  0.00  0.00    +0.034 C 
BRANCH  16  17
ATOM     17  C   UNL     1      33.971 -20.430 -20.361  0.00  0.00    -0.022 C 
ATOM     18  C   UNL     1      35.298 -20.722 -20.086  0.00  0.00    -0.001 C 
ATOM     19  C   UNL     1      32.942 -21.065 -19.682  0.00  0.00    -0.001 C 
ATOM     20  C   UNL     1      35.604 -21.670 -19.110  0.00  0.00    +0.036 C 
ATOM     21  C   UNL     1      33.247 -22.013 -18.704  0.00  0.00    +0.036 C 
ATOM     22  C   UNL     1      34.578 -22.316 -18.419  0.00  0.00    +0.134 C 
BRANCH  22  23
ATOM     23  O   UNL     1      34.877 -23.239 -17.466  0.00  0.00    -0.506 OA
ATOM     24  H   UNL     1      35.766 -23.368 -17.200  0.00  0.00    +0.292 HD
ENDBRANCH  22  23
ENDBRANCH  16  17
ENDBRANCH  15  16
ENDBRANCH   2  15
TORSDOF 8
ENDMDL
MODEL 4
REMARK VINA RESULT:      -9.1      1.716      7.381
REMARK  Name = 4788
REMARK  8 active torsions:
REMARK  status: ('A' for Active; 'I' for Inactive)
REMARK    1  A    between atoms: C_2  and  C_3
REMARK    2  A    between atoms: C_2  and  C_15
REMARK    3  A    between atoms: C_4  and  O_9
REMARK    4  A    between atoms: C_5  and  O_11
REMARK    5  A    between atoms: C_8  and  O_13
REMARK    6  A    between atoms: C_15  and  C_16
REMARK    7  A    between atoms: C_16  and  C_17
REMARK    8  A    between atoms: C_22  and  O_23
REMARK                            x       y       z     vdW  Elec       q    Type
REMARK                         _______ _______ _______ _____ _____    ______ ____
ROOT
ATOM      1  O   UNL     1      34.627 -19.323 -22.864  0.00  0.00    -0.291 OA
ATOM      2  C   UNL     1      34.761 -19.057 -21.654  0.00  0.00    +0.179 C 
ENDROOT
BRANCH   2   3
ATOM      3  C   UNL     1      34.713 -20.115 -20.651  0.00  0.00    +0.102 C 
ATOM      4  C   UNL     1      33.485 -20.649 -20.259  0.00  0.00    +0.142 C 
ATOM      5  C   UNL     1      35.894 -20.594 -20.084  0.00  0.00    +0.142 C 
ATOM      6  C   UNL     1      33.439 -21.660 -19.300  0.00  0.00    +0.073 C 
ATOM      7  C   UNL     1      35.848 -21.605 -19.125  0.00  0.00    +0.073 C 
ATOM      8  C   UNL     1      34.621 -22.139 -18.733  0.00  0.00    +0.140 C 
BRANCH   4   9
ATOM      9  O   UNL     1      32.319 -20.196 -20.800  0.00  0.00    -0.505 OA
ATOM     10  H   UNL     1      32.032 -20.520 -21.631  0.00  0.00    +0.292 HD
ENDBRANCH   4   9
BRANCH   5  11
ATOM     11  O   UNL     1      37.104 -20.086 -20.453  0.00  0.00    -0.505 OA
ATOM     12  H   UNL     1      37.664 -20.575 -21.023  0.00  0.00    +0.292 HD
ENDBRANCH   5  11
BRANCH   8  13
ATOM     13  O   UNL     1      34.575 -23.126 -17.797  0.00  0.00    -0.505 OA
ATOM     14  H   UNL     1      35.285 -23.733 -17.721  0.00  0.00    +0.292 HD
ENDBRANCH   8  13
ENDBRANCH   2   3
BRANCH   2  15
ATOM     15  C   UNL     1      34.981 -17.599 -21.217  0.00  0.00    +0.074 C 
BRANCH  15  16
ATOM     16  C   UNL     1      35.123 -16.631 -22.394  0.00  0.00    +0.034 C 
BRANCH  16  17
ATOM     17  C   UNL     1      34.136 -15.496 -22.304  0.00  0.00    -0.022 C 
ATOM     18  C   UNL     1      33.771 -14.818 -23.457  0.00  0.00    -0.001 C 
ATOM     19  C   UNL     1      33.608 -15.147 -21.069  0.00  0.00    -0.001 C 
ATOM     20  C   UNL     1      32.857 -13.767 -23.375  0.00  0.00    +0.036 C 
ATOM     21  C   UNL     1      32.694 -14.096 -20.986  0.00  0.00    +0.036 C 
ATOM     22  C   UNL     1      32.319 -13.405 -22.139  0.00  0.00    +0.134 C 
BRANCH  22  23
ATOM     23  O   UNL     1      31.427 -12.382 -22.059  0.00  0.00    -0.506 OA
ATOM     24  H   UNL     1      30.921 -12.261 -21.280  0.00  0.00    +0.292 HD
ENDBRANCH  22  23
ENDBRANCH  16  17
ENDBRANCH  15  16
ENDBRANCH   2  15
TORSDOF 8
ENDMDL
MODEL 5
REMARK VINA RESULT:      -9.1      1.718      7.513
REMARK  Name = 4788
REMARK  8 active torsions:
REMARK  status: ('A' for Active; 'I' for Inactive)
REMARK    1  A    between atoms: C_2  and  C_3
REMARK    2  A    between atoms: C_2  and  C_15
REMARK    3  A    between atoms: C_4  and  O_9
REMARK    4  A    between atoms: C_5  and  O_11
REMARK    5  A    between atoms: C_8  and  O_13
REMARK    6  A    between atoms: C_15  and  C_16
REMARK    7  A    between atoms: C_16  and  C_17
REMARK    8  A    between atoms: C_22  and  O_23
REMARK                            x       y       z     vdW  Elec       q    Type
REMARK                         _______ _______ _______ _____ _____    ______ ____
ROOT
ATOM      1  O   UNL     1      34.643 -19.341 -22.870  0.00  0.00    -0.291 OA
ATOM      2  C   UNL     1      34.763 -19.070 -21.659  0.00  0.00    +0.179 C 
ENDROOT
BRANCH   2   3
ATOM      3  C   UNL     1      34.713 -20.125 -20.653  0.00  0.00    +0.102 C 
ATOM      4  C   UNL     1      35.893 -20.604 -20.086  0.00  0.00    +0.142 C 
ATOM      5  C   UNL     1      33.484 -20.653 -20.256  0.00  0.00    +0.142 C 
ATOM      6  C   UNL     1      35.846 -21.613 -19.124  0.00  0.00    +0.073 C 
ATOM      7  C   UNL     1      33.436 -21.661 -19.293  0.00  0.00    +0.073 C 
ATOM      8  C   UNL     1      34.617 -22.141 -18.727  0.00  0.00    +0.140 C 
BRANCH   4   9
ATOM      9  O   UNL     1      37.105 -20.102 -20.459  0.00  0.00    -0.505 OA
ATOM     10  H   UNL     1      37.586 -19.554 -19.871  0.00  0.00    +0.292 HD
ENDBRANCH   4   9
BRANCH   5  11
ATOM     11  O   UNL     1      32.319 -20.198 -20.797  0.00  0.00    -0.505 OA
ATOM     12  H   UNL     1      31.507 -20.610 -20.575  0.00  0.00    +0.292 HD
ENDBRANCH   5  11
BRANCH   8  13
ATOM     13  O   UNL     1      34.571 -23.125 -17.788  0.00  0.00    -0.505 OA
ATOM     14  H   UNL     1      33.766 -23.573 -17.619  0.00  0.00    +0.292 HD
ENDBRANCH   8  13
ENDBRANCH   2   3
BRANCH   2  15
ATOM     15  C   UNL     1      34.970 -17.609 -21.226  0.00  0.00    +0.074 C 
BRANCH  15  16
ATOM     16  C   UNL     1      35.108 -16.643 -22.404  0.00  0.00    +0.034 C 
BRANCH  16  17
ATOM     17  C   UNL     1      34.128 -15.502 -22.307  0.00  0.00    -0.022 C 
ATOM     18  C   UNL     1      33.768 -14.814 -23.456  0.00  0.00    -0.001 C 
ATOM     19  C   UNL     1      33.602 -15.158 -21.070  0.00  0.00    -0.001 C 
ATOM     20  C   UNL     1      32.861 -13.758 -23.367  0.00  0.00    +0.036 C 
ATOM     21  C   UNL     1      32.694 -14.103 -20.981  0.00  0.00    +0.036 C 
ATOM     22  C   UNL     1      32.325 -13.402 -22.129  0.00  0.00    +0.134 C 
BRANCH  22  23
ATOM     23  O   UNL     1      31.439 -12.373 -22.043  0.00  0.00    -0.506 OA
ATOM     24  H   UNL     1      30.564 -12.479 -22.362  0.00  0.00    +0.292 HD
ENDBRANCH  22  23
ENDBRANCH  16  17
ENDBRANCH  15  16
ENDBRANCH   2  15
TORSDOF 8
ENDMDL
MODEL 6
REMARK VINA RESULT:      -9.1      1.375      2.376
REMARK  Name = 4788
REMARK  8 active torsions:
REMARK  status: ('A' for Active; 'I' for Inactive)
REMARK    1  A    between atoms: C_2  and  C_3
REMARK    2  A    between atoms: C_2  and  C_15
REMARK    3  A    between atoms: C_4  and  O_9
REMARK    4  A    between atoms: C_5  and  O_11
REMARK    5  A    between atoms: C_8  and  O_13
REMARK    6  A    between atoms: C_15  and  C_16
REMARK    7  A    between atoms: C_16  and  C_17
REMARK    8  A    between atoms: C_22  and  O_23
REMARK                            x       y       z     vdW  Elec       q    Type
REMARK                         _______ _______ _______ _____ _____    ______ ____
ROOT
ATOM      1  O   UNL     1      36.718 -18.172 -22.510  0.00  0.00    -0.291 OA
ATOM      2  C   UNL     1      35.495 -18.103 -22.739  0.00  0.00    +0.179 C 
ENDROOT
BRANCH   2   3
ATOM      3  C   UNL     1      34.877 -16.831 -23.094  0.00  0.00    +0.102 C 
ATOM      4  C   UNL     1      34.490 -16.588 -24.412  0.00  0.00    +0.142 C 
ATOM      5  C   UNL     1      34.670 -15.857 -22.117  0.00  0.00    +0.142 C 
ATOM      6  C   UNL     1      33.899 -15.372 -24.753  0.00  0.00    +0.073 C 
ATOM      7  C   UNL     1      34.078 -14.642 -22.457  0.00  0.00    +0.073 C 
ATOM      8  C   UNL     1      33.692 -14.399 -23.775  0.00  0.00    +0.140 C 
BRANCH   4   9
ATOM      9  O   UNL     1      34.683 -17.525 -25.383  0.00  0.00    -0.505 OA
ATOM     10  H   UNL     1      34.962 -17.263 -26.239  0.00  0.00    +0.292 HD
ENDBRANCH   4   9
BRANCH   5  11
ATOM     11  O   UNL     1      35.039 -16.074 -20.823  0.00  0.00    -0.505 OA
ATOM     12  H   UNL     1      34.741 -16.840 -20.372  0.00  0.00    +0.292 HD
ENDBRANCH   5  11
BRANCH   8  13
ATOM     13  O   UNL     1      33.115 -13.212 -24.108  0.00  0.00    -0.505 OA
ATOM     14  H   UNL     1      32.720 -13.103 -24.951  0.00  0.00    +0.292 HD
ENDBRANCH   8  13
ENDBRANCH   2   3
BRANCH   2  15
ATOM     15  C   UNL     1      34.633 -19.373 -22.647  0.00  0.00    +0.074 C 
BRANCH  15  16
ATOM     16  C   UNL     1      33.643 -19.349 -21.481  0.00  0.00    +0.034 C 
BRANCH  16  17
ATOM     17  C   UNL     1      34.001 -20.362 -20.425  0.00  0.00    -0.022 C 
ATOM     18  C   UNL     1      35.335 -20.604 -20.137  0.00  0.00    -0.001 C 
ATOM     19  C   UNL     1      32.990 -21.038 -19.757  0.00  0.00    -0.001 C 
ATOM     20  C   UNL     1      35.668 -21.542 -19.160  0.00  0.00    +0.036 C 
ATOM     21  C   UNL     1      33.321 -21.976 -18.778  0.00  0.00    +0.036 C 
ATOM     22  C   UNL     1      34.660 -22.229 -18.481  0.00  0.00    +0.134 C 
BRANCH  22  23
ATOM     23  O   UNL     1      34.985 -23.142 -17.526  0.00  0.00    -0.506 OA
ATOM     24  H   UNL     1      35.322 -23.980 -17.774  0.00  0.00    +0.292 HD
ENDBRANCH  22  23
ENDBRANCH  16  17
ENDBRANCH  15  16
ENDBRANCH   2  15
TORSDOF 8
ENDMDL
MODEL 7
REMARK VINA RESULT:      -8.9      1.966      7.395
REMARK  Name = 4788
REMARK  8 active torsions:
REMARK  status: ('A' for Active; 'I' for Inactive)
REMARK    1  A    between atoms: C_2  and  C_3
REMARK    2  A    between atoms: C_2  and  C_15
REMARK    3  A    between atoms: C_4  and  O_9
REMARK    4  A    between atoms: C_5  and  O_11
REMARK    5  A    between atoms: C_8  and  O_13
REMARK    6  A    between atoms: C_15  and  C_16
REMARK    7  A    between atoms: C_16  and  C_17
REMARK    8  A    between atoms: C_22  and  O_23
REMARK                            x       y       z     vdW  Elec       q    Type
REMARK                         _______ _______ _______ _____ _____    ______ ____
ROOT
ATOM      1  O   UNL     1      35.414 -18.049 -20.696  0.00  0.00    -0.291 OA
ATOM      2  C   UNL     1      34.941 -19.096 -21.178  0.00  0.00    +0.179 C 
ENDROOT
BRANCH   2   3
ATOM      3  C   UNL     1      34.673 -20.251 -20.328  0.00  0.00    +0.102 C 
ATOM      4  C   UNL     1      33.358 -20.626 -20.057  0.00  0.00    +0.142 C 
ATOM      5  C   UNL     1      35.732 -20.980 -19.787  0.00  0.00    +0.142 C 
ATOM      6  C   UNL     1      33.101 -21.730 -19.244  0.00  0.00    +0.073 C 
ATOM      7  C   UNL     1      35.476 -22.085 -18.975  0.00  0.00    +0.073 C 
ATOM      8  C   UNL     1      34.160 -22.460 -18.704  0.00  0.00    +0.140 C 
BRANCH   4   9
ATOM      9  O   UNL     1      32.308 -19.928 -20.575  0.00  0.00    -0.505 OA
ATOM     10  H   UNL     1      32.103 -19.075 -20.244  0.00  0.00    +0.292 HD
ENDBRANCH   4   9
BRANCH   5  11
ATOM     11  O   UNL     1      37.025 -20.631 -20.040  0.00  0.00    -0.505 OA
ATOM     12  H   UNL     1      37.666 -20.679 -19.358  0.00  0.00    +0.292 HD
ENDBRANCH   5  11
BRANCH   8  13
ATOM     13  O   UNL     1      33.909 -23.537 -17.910  0.00  0.00    -0.505 OA
ATOM     14  H   UNL     1      34.060 -24.403 -18.234  0.00  0.00    +0.292 HD
ENDBRANCH   8  13
ENDBRANCH   2   3
BRANCH   2  15
ATOM     15  C   UNL     1      34.635 -19.168 -22.684  0.00  0.00    +0.074 C 
BRANCH  15  16
ATOM     16  C   UNL     1      35.558 -18.289 -23.530  0.00  0.00    +0.034 C 
BRANCH  16  17
ATOM     17  C   UNL     1      34.867 -17.028 -23.982  0.00  0.00    -0.022 C 
ATOM     18  C   UNL     1      34.850 -15.923 -23.146  0.00  0.00    -0.001 C 
ATOM     19  C   UNL     1      34.258 -16.994 -25.229  0.00  0.00    -0.001 C 
ATOM     20  C   UNL     1      34.210 -14.756 -23.563  0.00  0.00    +0.036 C 
ATOM     21  C   UNL     1      33.619 -15.827 -25.648  0.00  0.00    +0.036 C 
ATOM     22  C   UNL     1      33.594 -14.708 -24.814  0.00  0.00    +0.134 C 
BRANCH  22  23
ATOM     23  O   UNL     1      32.971 -13.569 -25.223  0.00  0.00    -0.506 OA
ATOM     24  H   UNL     1      32.117 -13.361 -24.901  0.00  0.00    +0.292 HD
ENDBRANCH  22  23
ENDBRANCH  16  17
ENDBRANCH  15  16
ENDBRANCH   2  15
TORSDOF 8
ENDMDL
MODEL 8
REMARK VINA RESULT:      -8.9      1.987      7.536
REMARK  Name = 4788
REMARK  8 active torsions:
REMARK  status: ('A' for Active; 'I' for Inactive)
REMARK    1  A    between atoms: C_2  and  C_3
REMARK    2  A    between atoms: C_2  and  C_15
REMARK    3  A    between atoms: C_4  and  O_9
REMARK    4  A    between atoms: C_5  and  O_11
REMARK    5  A    between atoms: C_8  and  O_13
REMARK    6  A    between atoms: C_15  and  C_16
REMARK    7  A    between atoms: C_16  and  C_17
REMARK    8  A    between atoms: C_22  and  O_23
REMARK                            x       y       z     vdW  Elec       q    Type
REMARK                         _______ _______ _______ _____ _____    ______ ____
ROOT
ATOM      1  O   UNL     1      35.329 -18.036 -20.693  0.00  0.00    -0.291 OA
ATOM      2  C   UNL     1      34.924 -19.109 -21.180  0.00  0.00    +0.179 C 
ENDROOT
BRANCH   2   3
ATOM      3  C   UNL     1      34.661 -20.261 -20.325  0.00  0.00    +0.102 C 
ATOM      4  C   UNL     1      35.723 -20.978 -19.775  0.00  0.00    +0.142 C 
ATOM      5  C   UNL     1      33.347 -20.645 -20.056  0.00  0.00    +0.142 C 
ATOM      6  C   UNL     1      35.473 -22.079 -18.957  0.00  0.00    +0.073 C 
ATOM      7  C   UNL     1      33.096 -21.746 -19.237  0.00  0.00    +0.073 C 
ATOM      8  C   UNL     1      34.159 -22.463 -18.688  0.00  0.00    +0.140 C 
BRANCH   4   9
ATOM      9  O   UNL     1      37.015 -20.619 -20.025  0.00  0.00    -0.505 OA
ATOM     10  H   UNL     1      37.341 -19.797 -19.716  0.00  0.00    +0.292 HD
ENDBRANCH   4   9
BRANCH   5  11
ATOM     11  O   UNL     1      32.295 -19.958 -20.582  0.00  0.00    -0.505 OA
ATOM     12  H   UNL     1      32.338 -19.633 -21.460  0.00  0.00    +0.292 HD
ENDBRANCH   5  11
BRANCH   8  13
ATOM     13  O   UNL     1      33.914 -23.539 -17.890  0.00  0.00    -0.505 OA
ATOM     14  H   UNL     1      34.418 -24.322 -17.993  0.00  0.00    +0.292 HD
ENDBRANCH   8  13
ENDBRANCH   2   3
BRANCH   2  15
ATOM     15  C   UNL     1      34.697 -19.215 -22.698  0.00  0.00    +0.074 C 
BRANCH  15  16
ATOM     16  C   UNL     1      35.614 -18.300 -23.511  0.00  0.00    +0.034 C 
BRANCH  16  17
ATOM     17  C   UNL     1      34.893 -17.063 -23.981  0.00  0.00    -0.022 C 
ATOM     18  C   UNL     1      34.264 -17.068 -25.217  0.00  0.00    -0.001 C 
ATOM     19  C   UNL     1      34.869 -15.938 -23.169  0.00  0.00    -0.001 C 
ATOM     20  C   UNL     1      33.596 -15.924 -25.652  0.00  0.00    +0.036 C 
ATOM     21  C   UNL     1      34.200 -14.793 -23.604  0.00  0.00    +0.036 C 
ATOM     22  C   UNL     1      33.565 -14.785 -24.846  0.00  0.00    +0.134 C 
BRANCH  22  23
ATOM     23  O   UNL     1      32.912 -13.670 -25.269  0.00  0.00    -0.506 OA
ATOM     24  H   UNL     1      33.125 -12.834 -24.903  0.00  0.00    +0.292 HD
ENDBRANCH  22  23
ENDBRANCH  16  17
ENDBRANCH  15  16
ENDBRANCH   2  15
TORSDOF 8
ENDMDL
MODEL 9
REMARK VINA RESULT:      -8.9      1.257      2.028
REMARK  Name = 4788
REMARK  8 active torsions:
REMARK  status: ('A' for Active; 'I' for Inactive)
REMARK    1  A    between atoms: C_2  and  C_3
REMARK    2  A    between atoms: C_2  and  C_15
REMARK    3  A    between atoms: C_4  and  O_9
REMARK    4  A    between atoms: C_5  and  O_11
REMARK    5  A    between atoms: C_8  and  O_13
REMARK    6  A    between atoms: C_15  and  C_16
REMARK    7  A    between atoms: C_16  and  C_17
REMARK    8  A    between atoms: C_22  and  O_23
REMARK                            x       y       z     vdW  Elec       q    Type
REMARK                         _______ _______ _______ _____ _____    ______ ____
ROOT
ATOM      1  O   UNL     1      35.966 -16.132 -23.641  0.00  0.00    -0.291 OA
ATOM      2  C   UNL     1      34.915 -16.419 -23.037  0.00  0.00    +0.179 C 
ENDROOT
BRANCH   2   3
ATOM      3  C   UNL     1      34.034 -15.370 -22.538  0.00  0.00    +0.102 C 
ATOM      4  C   UNL     1      33.999 -15.079 -21.174  0.00  0.00    +0.142 C 
ATOM      5  C   UNL     1      33.227 -14.655 -23.423  0.00  0.00    +0.142 C 
ATOM      6  C   UNL     1      33.157 -14.076 -20.695  0.00  0.00    +0.073 C 
ATOM      7  C   UNL     1      32.386 -13.651 -22.946  0.00  0.00    +0.073 C 
ATOM      8  C   UNL     1      32.350 -13.361 -21.582  0.00  0.00    +0.140 C 
BRANCH   4   9
ATOM      9  O   UNL     1      34.779 -15.765 -20.291  0.00  0.00    -0.505 OA
ATOM     10  H   UNL     1      34.833 -15.486 -19.398  0.00  0.00    +0.292 HD
ENDBRANCH   4   9
BRANCH   5  11
ATOM     11  O   UNL     1      33.246 -14.922 -24.759  0.00  0.00    -0.505 OA
ATOM     12  H   UNL     1      32.445 -15.085 -25.217  0.00  0.00    +0.292 HD
ENDBRANCH   5  11
BRANCH   8  13
ATOM     13  O   UNL     1      31.528 -12.382 -21.115  0.00  0.00    -0.505 OA
ATOM     14  H   UNL     1      30.735 -12.180 -21.570  0.00  0.00    +0.292 HD
ENDBRANCH   8  13
ENDBRANCH   2   3
BRANCH   2  15
ATOM     15  C   UNL     1      34.545 -17.896 -22.819  0.00  0.00    +0.074 C 
BRANCH  15  16
ATOM     16  C   UNL     1      35.526 -18.637 -21.909  0.00  0.00    +0.034 C 
BRANCH  16  17
ATOM     17  C   UNL     1      34.824 -19.645 -21.036  0.00  0.00    -0.022 C 
ATOM     18  C   UNL     1      33.445 -19.589 -20.904  0.00  0.00    -0.001 C 
ATOM     19  C   UNL     1      35.569 -20.614 -20.378  0.00  0.00    -0.001 C 
ATOM     20  C   UNL     1      32.795 -20.522 -20.096  0.00  0.00    +0.036 C 
ATOM     21  C   UNL     1      34.919 -21.547 -19.570  0.00  0.00    +0.036 C 
ATOM     22  C   UNL     1      33.532 -21.501 -19.428  0.00  0.00    +0.134 C 
BRANCH  22  23
ATOM     23  O   UNL     1      32.897 -22.411 -18.642  0.00  0.00    -0.506 OA
ATOM     24  H   UNL     1      32.042 -22.716 -18.874  0.00  0.00    +0.292 HD
ENDBRANCH  22  23
ENDBRANCH  16  17
ENDBRANCH  15  16
ENDBRANCH   2  15
TORSDOF 8
ENDMDL
