MODEL 1
REMARK VINA RESULT:     -10.3      0.000      0.000
REMARK  Name = 1117937
REMARK  7 active torsions:
REMARK  status: ('A' for Active; 'I' for Inactive)
REMARK    1  A    between atoms: C_2  and  S_22
REMARK    2  A    between atoms: C_3  and  C_10
REMARK    3  A    between atoms: N_9  and  C_19
REMARK    4  A    between atoms: C_18  and  C_21
REMARK    5  A    between atoms: S_22  and  N_25
REMARK    6  A    between atoms: N_25  and  C_26
REMARK    7  A    between atoms: N_25  and  C_28
REMARK                            x       y       z     vdW  Elec       q    Type
REMARK                         _______ _______ _______ _____ _____    ______ ____
ROOT
ATOM      1 CL   UNL     1      33.090 -15.101 -26.277  0.00  0.00    -0.082 Cl
ATOM      2  C   UNL     1      35.069 -17.269 -22.844  0.00  0.00    +0.122 C 
ATOM      3  C   UNL     1      33.842 -15.389 -23.669  0.00  0.00    +0.066 C 
ATOM      4  C   UNL     1      34.444 -16.044 -22.612  0.00  0.00    +0.025 C 
ATOM      5  C   UNL     1      35.080 -17.813 -24.128  0.00  0.00    +0.021 C 
ATOM      6  C   UNL     1      33.839 -15.910 -24.947  0.00  0.00    +0.062 C 
ATOM      7  C   UNL     1      34.465 -17.134 -25.180  0.00  0.00    +0.013 C 
ENDROOT
BRANCH   3  10
ATOM      8  O   UNL     1      32.094 -14.110 -22.819  0.00  0.00    -0.270 OA
ATOM      9  N   UNL     1      33.909 -12.926 -23.747  0.00  0.00    -0.275 N 
ATOM     10  C   UNL     1      33.187 -14.088 -23.374  0.00  0.00    +0.251 C 
ATOM     11  H   UNL     1      34.775 -13.086 -24.186  0.00  0.00    +0.156 HD
BRANCH   9  19
ATOM     12  S   UNL     1      32.356 -11.287 -22.383  0.00  0.00    -0.076 S 
ATOM     13  C   UNL     1      32.105  -7.378 -23.177  0.00  0.00    +0.010 C 
ATOM     14  C   UNL     1      33.390  -7.862 -23.921  0.00  0.00    +0.028 C 
ATOM     15  C   UNL     1      31.737  -8.486 -22.141  0.00  0.00    +0.033 C 
ATOM     16  C   UNL     1      33.356  -9.325 -23.685  0.00  0.00    -0.009 A 
ATOM     17  C   UNL     1      32.453  -9.650 -22.713  0.00  0.00    +0.005 A 
ATOM     18  C   UNL     1      34.016 -10.459 -24.203  0.00  0.00    +0.084 A 
ATOM     19  C   UNL     1      33.565 -11.611 -23.578  0.00  0.00    +0.090 A 
BRANCH  18  21
ATOM     20  N   UNL     1      35.828 -10.432 -26.058  0.00  0.00    -0.191 NA
ATOM     21  C   UNL     1      35.014 -10.445 -25.224  0.00  0.00    +0.102 C 
ENDBRANCH  18  21
ENDBRANCH   9  19
ENDBRANCH   3  10
BRANCH   2  22
ATOM     22  S   UNL     1      35.840 -18.120 -21.529  0.00  0.00    +0.063 S 
ATOM     23  O   UNL     1      37.179 -18.509 -21.961  0.00  0.00    -0.153 OA
ATOM     24  O   UNL     1      35.707 -17.310 -20.323  0.00  0.00    -0.153 OA
BRANCH  22  25
ATOM     25  N   UNL     1      34.876 -19.546 -21.354  0.00  0.00    -0.156 NA
BRANCH  25  26
ATOM     26  C   UNL     1      35.139 -20.412 -20.177  0.00  0.00    +0.096 C 
ATOM     27  C   UNL     1      36.389 -21.235 -20.417  0.00  0.00    +0.021 C 
ENDBRANCH  25  26
BRANCH  25  28
ATOM     28  C   UNL     1      33.425 -19.433 -21.647  0.00  0.00    +0.096 C 
ATOM     29  C   UNL     1      32.627 -20.102 -20.546  0.00  0.00    +0.021 C 
ENDBRANCH  25  28
ENDBRANCH  22  25
ENDBRANCH   2  22
TORSDOF 7
ENDMDL
MODEL 2
REMARK VINA RESULT:      -9.9      2.255      3.408
REMARK  Name = 1117937
REMARK  7 active torsions:
REMARK  status: ('A' for Active; 'I' for Inactive)
REMARK    1  A    between atoms: C_2  and  S_22
REMARK    2  A    between atoms: C_3  and  C_10
REMARK    3  A    between atoms: N_9  and  C_19
REMARK    4  A    between atoms: C_18  and  C_21
REMARK    5  A    between atoms: S_22  and  N_25
REMARK    6  A    between atoms: N_25  and  C_26
REMARK    7  A    between atoms: N_25  and  C_28
REMARK                            x       y       z     vdW  Elec       q    Type
REMARK                         _______ _______ _______ _____ _____    ______ ____
ROOT
ATOM      1 CL   UNL     1      33.409 -12.696 -26.442  0.00  0.00    -0.082 Cl
ATOM      2  C   UNL     1      33.648 -14.953 -22.538  0.00  0.00    +0.122 C 
ATOM      3  C   UNL     1      33.552 -12.877 -23.724  0.00  0.00    +0.066 C 
ATOM      4  C   UNL     1      33.624 -13.558 -22.523  0.00  0.00    +0.025 C 
ATOM      5  C   UNL     1      33.598 -15.638 -23.751  0.00  0.00    +0.021 C 
ATOM      6  C   UNL     1      33.501 -13.535 -24.936  0.00  0.00    +0.062 C 
ATOM      7  C   UNL     1      33.524 -14.929 -24.950  0.00  0.00    +0.013 C 
ENDROOT
BRANCH   3  10
ATOM      8  O   UNL     1      34.414 -10.781 -24.244  0.00  0.00    -0.270 OA
ATOM      9  N   UNL     1      32.455 -10.816 -22.934  0.00  0.00    -0.275 N 
ATOM     10  C   UNL     1      33.529 -11.393 -23.659  0.00  0.00    +0.251 C 
ATOM     11  H   UNL     1      31.828 -11.454 -22.522  0.00  0.00    +0.156 HD
BRANCH   9  19
ATOM     12  S   UNL     1      31.934  -8.535 -24.153  0.00  0.00    -0.076 S 
ATOM     13  C   UNL     1      31.577  -5.067 -22.198  0.00  0.00    +0.010 C 
ATOM     14  C   UNL     1      31.479  -6.168 -21.094  0.00  0.00    +0.028 C 
ATOM     15  C   UNL     1      31.346  -5.779 -23.569  0.00  0.00    +0.033 C 
ATOM     16  C   UNL     1      31.736  -7.408 -21.865  0.00  0.00    -0.009 A 
ATOM     17  C   UNL     1      31.659  -7.181 -23.210  0.00  0.00    +0.005 A 
ATOM     18  C   UNL     1      32.035  -8.753 -21.565  0.00  0.00    +0.084 A 
ATOM     19  C   UNL     1      32.171  -9.492 -22.730  0.00  0.00    +0.090 A 
BRANCH  18  21
ATOM     20  N   UNL     1      32.292  -9.747 -19.184  0.00  0.00    -0.191 NA
ATOM     21  C   UNL     1      32.177  -9.300 -20.254  0.00  0.00    +0.102 C 
ENDBRANCH  18  21
ENDBRANCH   9  19
ENDBRANCH   3  10
BRANCH   2  22
ATOM     22  S   UNL     1      33.741 -15.841 -21.037  0.00  0.00    +0.063 S 
ATOM     23  O   UNL     1      34.847 -15.297 -20.254  0.00  0.00    -0.153 OA
ATOM     24  O   UNL     1      32.411 -15.864 -20.439  0.00  0.00    -0.153 OA
BRANCH  22  25
ATOM     25  N   UNL     1      34.153 -17.443 -21.544  0.00  0.00    -0.156 NA
BRANCH  25  26
ATOM     26  C   UNL     1      35.579 -17.848 -21.447  0.00  0.00    +0.096 C 
ATOM     27  C   UNL     1      36.119 -18.149 -22.831  0.00  0.00    +0.021 C 
ENDBRANCH  25  26
BRANCH  25  28
ATOM     28  C   UNL     1      33.235 -18.543 -21.155  0.00  0.00    +0.096 C 
ATOM     29  C   UNL     1      34.041 -19.740 -20.690  0.00  0.00    +0.021 C 
ENDBRANCH  25  28
ENDBRANCH  22  25
ENDBRANCH   2  22
TORSDOF 7
ENDMDL
MODEL 3
REMARK VINA RESULT:      -9.9      3.235      9.203
REMARK  Name = 1117937
REMARK  7 active torsions:
REMARK  status: ('A' for Active; 'I' for Inactive)
REMARK    1  A    between atoms: C_2  and  S_22
REMARK    2  A    between atoms: C_3  and  C_10
REMARK    3  A    between atoms: N_9  and  C_19
REMARK    4  A    between atoms: C_18  and  C_21
REMARK    5  A    between atoms: S_22  and  N_25
REMARK    6  A    between atoms: N_25  and  C_26
REMARK    7  A    between atoms: N_25  and  C_28
REMARK                            x       y       z     vdW  Elec       q    Type
REMARK                         _______ _______ _______ _____ _____    ______ ____
ROOT
ATOM      1 CL   UNL     1      35.835 -10.556 -26.170  0.00  0.00    -0.082 Cl
ATOM      2  C   UNL     1      33.202  -9.080 -22.811  0.00  0.00    +0.122 C 
ATOM      3  C   UNL     1      33.960 -10.865 -24.212  0.00  0.00    +0.066 C 
ATOM      4  C   UNL     1      33.150 -10.424 -23.182  0.00  0.00    +0.025 C 
ATOM      5  C   UNL     1      34.061  -8.206 -23.475  0.00  0.00    +0.021 C 
ATOM      6  C   UNL     1      34.818 -10.017 -24.882  0.00  0.00    +0.062 C 
ATOM      7  C   UNL     1      34.869  -8.674 -24.510  0.00  0.00    +0.013 C 
ENDROOT
BRANCH   3  10
ATOM      8  O   UNL     1      33.430 -12.590 -25.679  0.00  0.00    -0.270 OA
ATOM      9  N   UNL     1      34.336 -13.222 -23.597  0.00  0.00    -0.275 N 
ATOM     10  C   UNL     1      33.872 -12.304 -24.573  0.00  0.00    +0.251 C 
ATOM     11  H   UNL     1      34.659 -12.823 -22.757  0.00  0.00    +0.156 HD
BRANCH   9  19
ATOM     12  S   UNL     1      34.218 -15.282 -25.241  0.00  0.00    -0.076 S 
ATOM     13  C   UNL     1      34.225 -19.071 -23.968  0.00  0.00    +0.010 C 
ATOM     14  C   UNL     1      34.702 -18.230 -22.741  0.00  0.00    +0.028 C 
ATOM     15  C   UNL     1      34.363 -18.157 -25.226  0.00  0.00    +0.033 C 
ATOM     16  C   UNL     1      34.563 -16.841 -23.241  0.00  0.00    -0.009 A 
ATOM     17  C   UNL     1      34.381 -16.816 -24.595  0.00  0.00    +0.005 A 
ATOM     18  C   UNL     1      34.574 -15.548 -22.679  0.00  0.00    +0.084 A 
ATOM     19  C   UNL     1      34.394 -14.588 -23.664  0.00  0.00    +0.090 A 
BRANCH  18  21
ATOM     20  N   UNL     1      34.890 -14.997 -20.165  0.00  0.00    -0.191 NA
ATOM     21  C   UNL     1      34.747 -15.245 -21.295  0.00  0.00    +0.102 C 
ENDBRANCH  18  21
ENDBRANCH   9  19
ENDBRANCH   3  10
BRANCH   2  22
ATOM     22  S   UNL     1      32.190  -8.493 -21.515  0.00  0.00    +0.063 S 
ATOM     23  O   UNL     1      31.353  -9.597 -21.054  0.00  0.00    -0.153 OA
ATOM     24  O   UNL     1      33.041  -7.815 -20.544  0.00  0.00    -0.153 OA
BRANCH  22  25
ATOM     25  N   UNL     1      31.183  -7.320 -22.291  0.00  0.00    -0.156 NA
BRANCH  25  26
ATOM     26  C   UNL     1      31.528  -5.888 -22.105  0.00  0.00    +0.096 C 
ATOM     27  C   UNL     1      30.404  -5.182 -21.373  0.00  0.00    +0.021 C 
ENDBRANCH  25  26
BRANCH  25  28
ATOM     28  C   UNL     1      30.738  -7.608 -23.679  0.00  0.00    +0.096 C 
ATOM     29  C   UNL     1      31.144  -6.468 -24.592  0.00  0.00    +0.021 C 
ENDBRANCH  25  28
ENDBRANCH  22  25
ENDBRANCH   2  22
TORSDOF 7
ENDMDL
MODEL 4
REMARK VINA RESULT:      -9.6      3.775      6.105
REMARK  Name = 1117937
REMARK  7 active torsions:
REMARK  status: ('A' for Active; 'I' for Inactive)
REMARK    1  A    between atoms: C_2  and  S_22
REMARK    2  A    between atoms: C_3  and  C_10
REMARK    3  A    between atoms: N_9  and  C_19
REMARK    4  A    between atoms: C_18  and  C_21
REMARK    5  A    between atoms: S_22  and  N_25
REMARK    6  A    between atoms: N_25  and  C_26
REMARK    7  A    between atoms: N_25  and  C_28
REMARK                            x       y       z     vdW  Elec       q    Type
REMARK                         _______ _______ _______ _____ _____    ______ ____
ROOT
ATOM      1 CL   UNL     1      37.182 -18.650 -21.756  0.00  0.00    -0.082 Cl
ATOM      2  C   UNL     1      34.675 -21.611 -19.445  0.00  0.00    +0.122 C 
ATOM      3  C   UNL     1      34.831 -19.629 -20.774  0.00  0.00    +0.066 C 
ATOM      4  C   UNL     1      34.055 -20.529 -20.070  0.00  0.00    +0.025 C 
ATOM      5  C   UNL     1      36.057 -21.771 -19.537  0.00  0.00    +0.021 C 
ATOM      6  C   UNL     1      36.201 -19.768 -20.879  0.00  0.00    +0.062 C 
ATOM      7  C   UNL     1      36.820 -20.850 -20.253  0.00  0.00    +0.013 C 
ENDROOT
BRANCH   3  10
ATOM      8  O   UNL     1      33.058 -18.134 -20.946  0.00  0.00    -0.270 OA
ATOM      9  N   UNL     1      34.781 -17.908 -22.539  0.00  0.00    -0.275 N 
ATOM     10  C   UNL     1      34.128 -18.493 -21.424  0.00  0.00    +0.251 C 
ATOM     11  H   UNL     1      35.638 -18.320 -22.794  0.00  0.00    +0.156 HD
BRANCH   9  19
ATOM     12  S   UNL     1      34.119 -17.180 -24.986  0.00  0.00    -0.076 S 
ATOM     13  C   UNL     1      33.407 -13.380 -25.998  0.00  0.00    +0.010 C 
ATOM     14  C   UNL     1      33.359 -13.400 -24.437  0.00  0.00    +0.028 C 
ATOM     15  C   UNL     1      33.286 -14.862 -26.474  0.00  0.00    +0.033 C 
ATOM     16  C   UNL     1      33.745 -14.799 -24.130  0.00  0.00    -0.009 A 
ATOM     17  C   UNL     1      33.699 -15.583 -25.248  0.00  0.00    +0.005 A 
ATOM     18  C   UNL     1      34.143 -15.521 -22.986  0.00  0.00    +0.084 A 
ATOM     19  C   UNL     1      34.382 -16.848 -23.308  0.00  0.00    +0.090 A 
BRANCH  18  21
ATOM     20  N   UNL     1      34.394 -14.544 -20.597  0.00  0.00    -0.191 NA
ATOM     21  C   UNL     1      34.282 -14.983 -21.671  0.00  0.00    +0.102 C 
ENDBRANCH  18  21
ENDBRANCH   9  19
ENDBRANCH   3  10
BRANCH   2  22
ATOM     22  S   UNL     1      33.720 -22.765 -18.547  0.00  0.00    +0.063 S 
ATOM     23  O   UNL     1      32.367 -22.235 -18.418  0.00  0.00    -0.153 OA
ATOM     24  O   UNL     1      33.898 -24.077 -19.159  0.00  0.00    -0.153 OA
BRANCH  22  25
ATOM     25  N   UNL     1      34.465 -22.773 -16.985  0.00  0.00    -0.156 NA
BRANCH  25  26
ATOM     26  C   UNL     1      34.070 -23.849 -16.041  0.00  0.00    +0.096 C 
ATOM     27  C   UNL     1      32.900 -23.385 -15.197  0.00  0.00    +0.021 C 
ENDBRANCH  25  26
BRANCH  25  28
ATOM     28  C   UNL     1      35.919 -22.480 -16.916  0.00  0.00    +0.096 C 
ATOM     29  C   UNL     1      36.526 -23.181 -15.717  0.00  0.00    +0.021 C 
ENDBRANCH  25  28
ENDBRANCH  22  25
ENDBRANCH   2  22
TORSDOF 7
ENDMDL
MODEL 5
REMARK VINA RESULT:      -9.5      4.155      6.817
REMARK  Name = 1117937
REMARK  7 active torsions:
REMARK  status: ('A' for Active; 'I' for Inactive)
REMARK    1  A    between atoms: C_2  and  S_22
REMARK    2  A    between atoms: C_3  and  C_10
REMARK    3  A    between atoms: N_9  and  C_19
REMARK    4  A    between atoms: C_18  and  C_21
REMARK    5  A    between atoms: S_22  and  N_25
REMARK    6  A    between atoms: N_25  and  C_26
REMARK    7  A    between atoms: N_25  and  C_28
REMARK                            x       y       z     vdW  Elec       q    Type
REMARK                         _______ _______ _______ _____ _____    ______ ____
ROOT
ATOM      1 CL   UNL     1      37.285 -19.357 -20.781  0.00  0.00    -0.082 Cl
ATOM      2  C   UNL     1      34.447 -22.120 -18.612  0.00  0.00    +0.122 C 
ATOM      3  C   UNL     1      34.818 -20.363 -20.193  0.00  0.00    +0.066 C 
ATOM      4  C   UNL     1      33.941 -21.204 -19.535  0.00  0.00    +0.025 C 
ATOM      5  C   UNL     1      35.818 -22.176 -18.367  0.00  0.00    +0.021 C 
ATOM      6  C   UNL     1      36.179 -20.402 -19.966  0.00  0.00    +0.062 C 
ATOM      7  C   UNL     1      36.684 -21.318 -19.043  0.00  0.00    +0.013 C 
ENDROOT
BRANCH   3  10
ATOM      8  O   UNL     1      33.197 -19.728 -21.735  0.00  0.00    -0.270 OA
ATOM      9  N   UNL     1      34.929 -18.180 -21.333  0.00  0.00    -0.275 N 
ATOM     10  C   UNL     1      34.234 -19.405 -21.167  0.00  0.00    +0.251 C 
ATOM     11  H   UNL     1      35.750 -18.082 -20.799  0.00  0.00    +0.156 HD
BRANCH   9  19
ATOM     12  S   UNL     1      34.431 -15.590 -21.341  0.00  0.00    -0.076 S 
ATOM     13  C   UNL     1      33.243 -13.623 -24.611  0.00  0.00    +0.010 C 
ATOM     14  C   UNL     1      33.794 -14.987 -25.135  0.00  0.00    +0.028 C 
ATOM     15  C   UNL     1      33.770 -13.452 -23.151  0.00  0.00    +0.033 C 
ATOM     16  C   UNL     1      34.103 -15.705 -23.875  0.00  0.00    -0.009 A 
ATOM     17  C   UNL     1      34.088 -14.857 -22.804  0.00  0.00    +0.005 A 
ATOM     18  C   UNL     1      34.409 -17.031 -23.504  0.00  0.00    +0.084 A 
ATOM     19  C   UNL     1      34.614 -17.117 -22.136  0.00  0.00    +0.090 A 
BRANCH  18  21
ATOM     20  N   UNL     1      34.580 -19.050 -25.122  0.00  0.00    -0.191 NA
ATOM     21  C   UNL     1      34.503 -18.142 -24.395  0.00  0.00    +0.102 C 
ENDBRANCH  18  21
ENDBRANCH   9  19
ENDBRANCH   3  10
BRANCH   2  22
ATOM     22  S   UNL     1      33.363 -23.195 -17.764  0.00  0.00    +0.063 S 
ATOM     23  O   UNL     1      32.021 -22.624 -17.818  0.00  0.00    -0.153 OA
ATOM     24  O   UNL     1      33.565 -24.544 -18.279  0.00  0.00    -0.153 OA
BRANCH  22  25
ATOM     25  N   UNL     1      33.930 -23.129 -16.131  0.00  0.00    -0.156 NA
BRANCH  25  26
ATOM     26  C   UNL     1      32.928 -22.868 -15.066  0.00  0.00    +0.096 C 
ATOM     27  C   UNL     1      32.356 -24.181 -14.569  0.00  0.00    +0.021 C 
ENDBRANCH  25  26
BRANCH  25  28
ATOM     28  C   UNL     1      34.935 -24.139 -15.712  0.00  0.00    +0.096 C 
ATOM     29  C   UNL     1      36.026 -23.469 -14.903  0.00  0.00    +0.021 C 
ENDBRANCH  25  28
ENDBRANCH  22  25
ENDBRANCH   2  22
TORSDOF 7
ENDMDL
MODEL 6
REMARK VINA RESULT:      -9.5      2.499      9.104
REMARK  Name = 1117937
REMARK  7 active torsions:
REMARK  status: ('A' for Active; 'I' for Inactive)
REMARK    1  A    between atoms: C_2  and  S_22
REMARK    2  A    between atoms: C_3  and  C_10
REMARK    3  A    between atoms: N_9  and  C_19
REMARK    4  A    between atoms: C_18  and  C_21
REMARK    5  A    between atoms: S_22  and  N_25
REMARK    6  A    between atoms: N_25  and  C_26
REMARK    7  A    between atoms: N_25  and  C_28
REMARK                            x       y       z     vdW  Elec       q    Type
REMARK                         _______ _______ _______ _____ _____    ______ ____
ROOT
ATOM      1 CL   UNL     1      34.913 -15.707 -24.108  0.00  0.00    -0.082 Cl
ATOM      2  C   UNL     1      32.411 -12.716 -21.830  0.00  0.00    +0.122 C 
ATOM      3  C   UNL     1      33.658 -14.757 -21.879  0.00  0.00    +0.066 C 
ATOM      4  C   UNL     1      32.895 -13.847 -21.173  0.00  0.00    +0.025 C 
ATOM      5  C   UNL     1      32.702 -12.516 -23.179  0.00  0.00    +0.021 C 
ATOM      6  C   UNL     1      33.959 -14.579 -23.214  0.00  0.00    +0.062 C 
ATOM      7  C   UNL     1      33.475 -13.447 -23.871  0.00  0.00    +0.013 C 
ENDROOT
BRANCH   3  10
ATOM      8  O   UNL     1      34.883 -15.755 -20.172  0.00  0.00    -0.270 OA
ATOM      9  N   UNL     1      33.706 -17.206 -21.609  0.00  0.00    -0.275 N 
ATOM     10  C   UNL     1      34.152 -15.946 -21.137  0.00  0.00    +0.251 C 
ATOM     11  H   UNL     1      33.121 -17.181 -22.401  0.00  0.00    +0.156 HD
BRANCH   9  19
ATOM     12  S   UNL     1      32.646 -19.300 -20.405  0.00  0.00    -0.076 S 
ATOM     13  C   UNL     1      34.822 -22.407 -19.146  0.00  0.00    +0.010 C 
ATOM     14  C   UNL     1      35.757 -21.626 -20.124  0.00  0.00    +0.028 C 
ATOM     15  C   UNL     1      33.368 -21.902 -19.409  0.00  0.00    +0.033 C 
ATOM     16  C   UNL     1      34.938 -20.435 -20.456  0.00  0.00    -0.009 A 
ATOM     17  C   UNL     1      33.640 -20.601 -20.063  0.00  0.00    +0.005 A 
ATOM     18  C   UNL     1      35.155 -19.186 -21.072  0.00  0.00    +0.084 A 
ATOM     19  C   UNL     1      33.979 -18.453 -21.114  0.00  0.00    +0.090 A 
BRANCH  18  21
ATOM     20  N   UNL     1      37.419 -18.343 -22.015  0.00  0.00    -0.191 NA
ATOM     21  C   UNL     1      36.401 -18.721 -21.592  0.00  0.00    +0.102 C 
ENDBRANCH  18  21
ENDBRANCH   9  19
ENDBRANCH   3  10
BRANCH   2  22
ATOM     22  S   UNL     1      31.442 -11.550 -20.964  0.00  0.00    +0.063 S 
ATOM     23  O   UNL     1      30.102 -11.552 -21.543  0.00  0.00    -0.153 OA
ATOM     24  O   UNL     1      31.583 -11.812 -19.536  0.00  0.00    -0.153 OA
BRANCH  22  25
ATOM     25  N   UNL     1      32.204 -10.041 -21.333  0.00  0.00    -0.156 NA
BRANCH  25  26
ATOM     26  C   UNL     1      31.729  -9.308 -22.535  0.00  0.00    +0.096 C 
ATOM     27  C   UNL     1      32.860  -9.180 -23.535  0.00  0.00    +0.021 C 
ENDBRANCH  25  26
BRANCH  25  28
ATOM     28  C   UNL     1      32.495  -9.124 -20.202  0.00  0.00    +0.096 C 
ATOM     29  C   UNL     1      32.062  -7.717 -20.561  0.00  0.00    +0.021 C 
ENDBRANCH  25  28
ENDBRANCH  22  25
ENDBRANCH   2  22
TORSDOF 7
ENDMDL
MODEL 7
REMARK VINA RESULT:      -9.5      2.972      9.135
REMARK  Name = 1117937
REMARK  7 active torsions:
REMARK  status: ('A' for Active; 'I' for Inactive)
REMARK    1  A    between atoms: C_2  and  S_22
REMARK    2  A    between atoms: C_3  and  C_10
REMARK    3  A    between atoms: N_9  and  C_19
REMARK    4  A    between atoms: C_18  and  C_21
REMARK    5  A    between atoms: S_22  and  N_25
REMARK    6  A    between atoms: N_25  and  C_26
REMARK    7  A    between atoms: N_25  and  C_28
REMARK                            x       y       z     vdW  Elec       q    Type
REMARK                         _______ _______ _______ _____ _____    ______ ____
ROOT
ATOM      1 CL   UNL     1      34.949 -11.554 -25.862  0.00  0.00    -0.082 Cl
ATOM      2  C   UNL     1      33.051  -9.141 -22.549  0.00  0.00    +0.122 C 
ATOM      3  C   UNL     1      33.426 -11.248 -23.619  0.00  0.00    +0.066 C 
ATOM      4  C   UNL     1      32.841 -10.519 -22.601  0.00  0.00    +0.025 C 
ATOM      5  C   UNL     1      33.842  -8.520 -23.516  0.00  0.00    +0.021 C 
ATOM      6  C   UNL     1      34.212 -10.654 -24.585  0.00  0.00    +0.062 C 
ATOM      7  C   UNL     1      34.423  -9.276 -24.534  0.00  0.00    +0.013 C 
ENDROOT
BRANCH   3  10
ATOM      8  O   UNL     1      32.031 -13.094 -23.852  0.00  0.00    -0.270 OA
ATOM      9  N   UNL     1      34.302 -13.542 -23.409  0.00  0.00    -0.275 N 
ATOM     10  C   UNL     1      33.175 -12.712 -23.632  0.00  0.00    +0.251 C 
ATOM     11  H   UNL     1      35.151 -13.071 -23.246  0.00  0.00    +0.156 HD
BRANCH   9  19
ATOM     12  S   UNL     1      34.801 -15.628 -21.873  0.00  0.00    -0.076 S 
ATOM     13  C   UNL     1      34.965 -19.364 -23.283  0.00  0.00    +0.010 C 
ATOM     14  C   UNL     1      34.268 -18.536 -24.409  0.00  0.00    +0.028 C 
ATOM     15  C   UNL     1      34.904 -18.502 -21.983  0.00  0.00    +0.033 C 
ATOM     16  C   UNL     1      34.347 -17.155 -23.876  0.00  0.00    -0.009 A 
ATOM     17  C   UNL     1      34.693 -17.152 -22.554  0.00  0.00    +0.005 A 
ATOM     18  C   UNL     1      34.155 -15.853 -24.381  0.00  0.00    +0.084 A 
ATOM     19  C   UNL     1      34.371 -14.909 -23.389  0.00  0.00    +0.090 A 
BRANCH  18  21
ATOM     20  N   UNL     1      33.483 -15.262 -26.815  0.00  0.00    -0.191 NA
ATOM     21  C   UNL     1      33.785 -15.528 -25.722  0.00  0.00    +0.102 C 
ENDBRANCH  18  21
ENDBRANCH   9  19
ENDBRANCH   3  10
BRANCH   2  22
ATOM     22  S   UNL     1      32.324  -8.192 -21.276  0.00  0.00    +0.063 S 
ATOM     23  O   UNL     1      31.550  -9.090 -20.425  0.00  0.00    -0.153 OA
ATOM     24  O   UNL     1      33.368  -7.380 -20.661  0.00  0.00    -0.153 OA
BRANCH  22  25
ATOM     25  N   UNL     1      31.233  -7.151 -22.124  0.00  0.00    -0.156 NA
BRANCH  25  26
ATOM     26  C   UNL     1      31.522  -5.695 -22.107  0.00  0.00    +0.096 C 
ATOM     27  C   UNL     1      30.352  -4.949 -21.497  0.00  0.00    +0.021 C 
ENDBRANCH  25  26
BRANCH  25  28
ATOM     28  C   UNL     1      30.742  -7.605 -23.450  0.00  0.00    +0.096 C 
ATOM     29  C   UNL     1      31.099  -6.578 -24.506  0.00  0.00    +0.021 C 
ENDBRANCH  25  28
ENDBRANCH  22  25
ENDBRANCH   2  22
TORSDOF 7
ENDMDL
MODEL 8
REMARK VINA RESULT:      -9.4      4.988     11.692
REMARK  Name = 1117937
REMARK  7 active torsions:
REMARK  status: ('A' for Active; 'I' for Inactive)
REMARK    1  A    between atoms: C_2  and  S_22
REMARK    2  A    between atoms: C_3  and  C_10
REMARK    3  A    between atoms: N_9  and  C_19
REMARK    4  A    between atoms: C_18  and  C_21
REMARK    5  A    between atoms: S_22  and  N_25
REMARK    6  A    between atoms: N_25  and  C_26
REMARK    7  A    between atoms: N_25  and  C_28
REMARK                            x       y       z     vdW  Elec       q    Type
REMARK                         _______ _______ _______ _____ _____    ______ ____
ROOT
ATOM      1 CL   UNL     1      32.731 -22.253 -18.374  0.00  0.00    -0.082 Cl
ATOM      2  C   UNL     1      34.867 -19.576 -21.317  0.00  0.00    +0.122 C 
ATOM      3  C   UNL     1      34.946 -21.110 -19.483  0.00  0.00    +0.066 C 
ATOM      4  C   UNL     1      35.610 -20.294 -20.379  0.00  0.00    +0.025 C 
ATOM      5  C   UNL     1      33.478 -19.689 -21.340  0.00  0.00    +0.021 C 
ATOM      6  C   UNL     1      33.572 -21.237 -19.488  0.00  0.00    +0.062 C 
ATOM      7  C   UNL     1      32.830 -20.519 -20.426  0.00  0.00    +0.013 C 
ENDROOT
BRANCH   3  10
ATOM      8  O   UNL     1      36.939 -22.103 -18.810  0.00  0.00    -0.270 OA
ATOM      9  N   UNL     1      35.148 -22.196 -17.279  0.00  0.00    -0.275 N 
ATOM     10  C   UNL     1      35.778 -21.856 -18.503  0.00  0.00    +0.251 C 
ATOM     11  H   UNL     1      34.206 -21.922 -17.195  0.00  0.00    +0.156 HD
BRANCH   9  19
ATOM     12  S   UNL     1      37.394 -22.794 -16.031  0.00  0.00    -0.076 S 
ATOM     13  C   UNL     1      37.536 -25.260 -12.890  0.00  0.00    +0.010 C 
ATOM     14  C   UNL     1      36.027 -24.886 -13.044  0.00  0.00    +0.028 C 
ATOM     15  C   UNL     1      38.349 -24.217 -13.719  0.00  0.00    +0.033 C 
ATOM     16  C   UNL     1      36.031 -24.074 -14.285  0.00  0.00    -0.009 A 
ATOM     17  C   UNL     1      37.302 -23.716 -14.639  0.00  0.00    +0.005 A 
ATOM     18  C   UNL     1      35.065 -23.579 -15.185  0.00  0.00    +0.084 A 
ATOM     19  C   UNL     1      35.672 -22.854 -16.199  0.00  0.00    +0.090 A 
BRANCH  18  21
ATOM     20  N   UNL     1      32.505 -23.944 -15.001  0.00  0.00    -0.191 NA
ATOM     21  C   UNL     1      33.655 -23.781 -15.084  0.00  0.00    +0.102 C 
ENDBRANCH  18  21
ENDBRANCH   9  19
ENDBRANCH   3  10
BRANCH   2  22
ATOM     22  S   UNL     1      35.678 -18.536 -22.462  0.00  0.00    +0.063 S 
ATOM     23  O   UNL     1      37.068 -18.392 -22.042  0.00  0.00    -0.153 OA
ATOM     24  O   UNL     1      35.406 -19.038 -23.804  0.00  0.00    -0.153 OA
BRANCH  22  25
ATOM     25  N   UNL     1      34.876 -17.017 -22.261  0.00  0.00    -0.156 NA
BRANCH  25  26
ATOM     26  C   UNL     1      34.828 -16.441 -20.893  0.00  0.00    +0.096 C 
ATOM     27  C   UNL     1      33.563 -15.623 -20.726  0.00  0.00    +0.021 C 
ENDBRANCH  25  26
BRANCH  25  28
ATOM     28  C   UNL     1      35.109 -15.975 -23.293  0.00  0.00    +0.096 C 
ATOM     29  C   UNL     1      33.998 -16.019 -24.324  0.00  0.00    +0.021 C 
ENDBRANCH  25  28
ENDBRANCH  22  25
ENDBRANCH   2  22
TORSDOF 7
ENDMDL
MODEL 9
REMARK VINA RESULT:      -9.1      5.377     11.544
REMARK  Name = 1117937
REMARK  7 active torsions:
REMARK  status: ('A' for Active; 'I' for Inactive)
REMARK    1  A    between atoms: C_2  and  S_22
REMARK    2  A    between atoms: C_3  and  C_10
REMARK    3  A    between atoms: N_9  and  C_19
REMARK    4  A    between atoms: C_18  and  C_21
REMARK    5  A    between atoms: S_22  and  N_25
REMARK    6  A    between atoms: N_25  and  C_26
REMARK    7  A    between atoms: N_25  and  C_28
REMARK                            x       y       z     vdW  Elec       q    Type
REMARK                         _______ _______ _______ _____ _____    ______ ____
ROOT
ATOM      1 CL   UNL     1      37.064 -22.168 -17.641  0.00  0.00    -0.082 Cl
ATOM      2  C   UNL     1      35.225 -19.922 -21.101  0.00  0.00    +0.122 C 
ATOM      3  C   UNL     1      35.037 -21.553 -19.360  0.00  0.00    +0.066 C 
ATOM      4  C   UNL     1      34.464 -20.870 -20.417  0.00  0.00    +0.025 C 
ATOM      5  C   UNL     1      36.542 -19.675 -20.714  0.00  0.00    +0.021 C 
ATOM      6  C   UNL     1      36.337 -21.323 -18.960  0.00  0.00    +0.062 C 
ATOM      7  C   UNL     1      37.098 -20.375 -19.643  0.00  0.00    +0.013 C 
ENDROOT
BRANCH   3  10
ATOM      8  O   UNL     1      33.921 -23.591 -19.255  0.00  0.00    -0.270 OA
ATOM      9  N   UNL     1      33.779 -22.215 -17.346  0.00  0.00    -0.275 N 
ATOM     10  C   UNL     1      34.188 -22.552 -18.662  0.00  0.00    +0.251 C 
ATOM     11  H   UNL     1      34.081 -21.337 -17.019  0.00  0.00    +0.156 HD
BRANCH   9  19
ATOM     12  S   UNL     1      31.320 -22.986 -16.783  0.00  0.00    -0.076 S 
ATOM     13  C   UNL     1      30.392 -25.019 -13.471  0.00  0.00    +0.010 C 
ATOM     14  C   UNL     1      31.945 -25.129 -13.593  0.00  0.00    +0.028 C 
ATOM     15  C   UNL     1      29.860 -24.555 -14.863  0.00  0.00    +0.033 C 
ATOM     16  C   UNL     1      32.230 -24.263 -14.762  0.00  0.00    -0.009 A 
ATOM     17  C   UNL     1      31.085 -23.960 -15.445  0.00  0.00    +0.005 A 
ATOM     18  C   UNL     1      33.372 -23.678 -15.347  0.00  0.00    +0.084 A 
ATOM     19  C   UNL     1      33.022 -22.945 -16.470  0.00  0.00    +0.090 A 
BRANCH  18  21
ATOM     20  N   UNL     1      35.803 -23.924 -14.479  0.00  0.00    -0.191 NA
ATOM     21  C   UNL     1      34.710 -23.813 -14.869  0.00  0.00    +0.102 C 
ENDBRANCH  18  21
ENDBRANCH   9  19
ENDBRANCH   3  10
BRANCH   2  22
ATOM     22  S   UNL     1      34.530 -19.046 -22.441  0.00  0.00    +0.063 S 
ATOM     23  O   UNL     1      35.267 -19.402 -23.650  0.00  0.00    -0.153 OA
ATOM     24  O   UNL     1      33.087 -19.253 -22.421  0.00  0.00    -0.153 OA
BRANCH  22  25
ATOM     25  N   UNL     1      34.863 -17.392 -22.055  0.00  0.00    -0.156 NA
BRANCH  25  26
ATOM     26  C   UNL     1      35.326 -16.510 -23.156  0.00  0.00    +0.096 C 
ATOM     27  C   UNL     1      34.149 -16.117 -24.026  0.00  0.00    +0.021 C 
ENDBRANCH  25  26
BRANCH  25  28
ATOM     28  C   UNL     1      33.917 -16.696 -21.146  0.00  0.00    +0.096 C 
ATOM     29  C   UNL     1      34.627 -15.555 -20.446  0.00  0.00    +0.021 C 
ENDBRANCH  25  28
ENDBRANCH  22  25
ENDBRANCH   2  22
TORSDOF 7
ENDMDL
