MODEL 1
REMARK VINA RESULT:      -9.3      0.000      0.000
REMARK  Name = 56052
REMARK  10 active torsions:
REMARK  status: ('A' for Active; 'I' for Inactive)
REMARK    1  A    between atoms: N_1  and  C_4
REMARK    2  A    between atoms: N_1  and  C_16
REMARK    3  A    between atoms: C_4  and  C_6
REMARK    4  A    between atoms: C_6  and  C_7
REMARK    5  A    between atoms: C_7  and  C_8
REMARK    6  A    between atoms: C_13  and  O_14
REMARK    7  A    between atoms: C_16  and  C_17
REMARK    8  A    between atoms: C_17  and  C_18
REMARK    9  A    between atoms: C_17  and  O_26
REMARK   10  A    between atoms: C_23  and  O_24
REMARK                            x       y       z     vdW  Elec       q    Type
REMARK                         _______ _______ _______ _____ _____    ______ ____
ROOT
ATOM      1  N   UNL     1      35.706 -16.993 -23.416  0.00  0.00    +0.387 N 
ATOM      2  H   UNL     1      35.323 -16.363 -22.711  0.00  0.00    -0.084 HD
ATOM      3  H   UNL     1      36.686 -16.774 -23.592  0.00  0.00    -0.084 HD
ENDROOT
BRANCH   1   4
ATOM      4  C   UNL     1      34.955 -16.832 -24.662  0.00  0.00    -0.062 C 
ATOM      5  C   UNL     1      34.316 -18.165 -25.051  0.00  0.00    -0.023 C 
BRANCH   4   6
ATOM      6  C   UNL     1      33.878 -15.742 -24.517  0.00  0.00    -0.017 C 
BRANCH   6   7
ATOM      7  C   UNL     1      33.635 -15.257 -23.080  0.00  0.00    +0.024 C 
BRANCH   7   8
ATOM      8  C   UNL     1      33.202 -13.815 -22.987  0.00  0.00    -0.022 C 
ATOM      9  C   UNL     1      32.262 -13.445 -22.038  0.00  0.00    -0.001 C 
ATOM     10  C   UNL     1      33.755 -12.883 -23.852  0.00  0.00    -0.001 C 
ATOM     11  C   UNL     1      31.863 -12.111 -21.952  0.00  0.00    +0.036 C 
ATOM     12  C   UNL     1      33.357 -11.548 -23.766  0.00  0.00    +0.036 C 
ATOM     13  C   UNL     1      32.411 -11.162 -22.817  0.00  0.00    +0.134 C 
BRANCH  13  14
ATOM     14  O   UNL     1      32.021  -9.862 -22.733  0.00  0.00    -0.506 OA
ATOM     15  H   UNL     1      31.209  -9.591 -23.114  0.00  0.00    +0.292 HD
ENDBRANCH  13  14
ENDBRANCH   7   8
ENDBRANCH   6   7
ENDBRANCH   4   6
ENDBRANCH   1   4
BRANCH   1  16
ATOM     16  C   UNL     1      35.613 -18.362 -22.933  0.00  0.00    -0.047 C 
BRANCH  16  17
ATOM     17  C   UNL     1      35.854 -18.424 -21.420  0.00  0.00    +0.112 C 
BRANCH  17  18
ATOM     18  C   UNL     1      35.069 -19.548 -20.779  0.00  0.00    +0.002 C 
ATOM     19  C   UNL     1      35.750 -20.568 -20.138  0.00  0.00    +0.001 C 
ATOM     20  C   UNL     1      33.687 -19.531 -20.846  0.00  0.00    +0.001 C 
ATOM     21  C   UNL     1      35.027 -21.604 -19.547  0.00  0.00    +0.036 C 
ATOM     22  C   UNL     1      32.963 -20.566 -20.255  0.00  0.00    +0.036 C 
ATOM     23  C   UNL     1      33.633 -21.603 -19.605  0.00  0.00    +0.134 C 
BRANCH  23  24
ATOM     24  O   UNL     1      32.929 -22.614 -19.029  0.00  0.00    -0.506 OA
ATOM     25  H   UNL     1      32.240 -22.421 -18.425  0.00  0.00    +0.292 HD
ENDBRANCH  23  24
ENDBRANCH  17  18
BRANCH  17  26
ATOM     26  O   UNL     1      35.457 -17.198 -20.806  0.00  0.00    -0.382 OA
ATOM     27  H   UNL     1      36.211 -16.817 -20.329  0.00  0.00    +0.211 HD
ENDBRANCH  17  26
ENDBRANCH  16  17
ENDBRANCH   1  16
TORSDOF 10
ENDMDL
MODEL 2
REMARK VINA RESULT:      -9.2      5.982      9.390
REMARK  Name = 56052
REMARK  10 active torsions:
REMARK  status: ('A' for Active; 'I' for Inactive)
REMARK    1  A    between atoms: N_1  and  C_4
REMARK    2  A    between atoms: N_1  and  C_16
REMARK    3  A    between atoms: C_4  and  C_6
REMARK    4  A    between atoms: C_6  and  C_7
REMARK    5  A    between atoms: C_7  and  C_8
REMARK    6  A    between atoms: C_13  and  O_14
REMARK    7  A    between atoms: C_16  and  C_17
REMARK    8  A    between atoms: C_17  and  C_18
REMARK    9  A    between atoms: C_17  and  O_26
REMARK   10  A    between atoms: C_23  and  O_24
REMARK                            x       y       z     vdW  Elec       q    Type
REMARK                         _______ _______ _______ _____ _____    ______ ____
ROOT
ATOM      1  N   UNL     1      33.713 -24.148 -14.709  0.00  0.00    +0.387 N 
ATOM      2  H   UNL     1      34.490 -24.357 -14.081  0.00  0.00    -0.084 HD
ATOM      3  H   UNL     1      33.451 -24.980 -15.237  0.00  0.00    -0.084 HD
ENDROOT
BRANCH   1   4
ATOM      4  C   UNL     1      34.123 -23.103 -15.648  0.00  0.00    -0.062 C 
ATOM      5  C   UNL     1      35.575 -22.711 -15.377  0.00  0.00    -0.023 C 
BRANCH   4   6
ATOM      6  C   UNL     1      33.956 -23.576 -17.103  0.00  0.00    -0.017 C 
BRANCH   6   7
ATOM      7  C   UNL     1      33.014 -22.719 -17.961  0.00  0.00    +0.024 C 
BRANCH   7   8
ATOM      8  C   UNL     1      33.726 -21.817 -18.937  0.00  0.00    -0.022 C 
ATOM      9  C   UNL     1      32.993 -20.916 -19.693  0.00  0.00    -0.001 C 
ATOM     10  C   UNL     1      35.105 -21.904 -19.060  0.00  0.00    -0.001 C 
ATOM     11  C   UNL     1      33.653 -20.081 -20.595  0.00  0.00    +0.036 C 
ATOM     12  C   UNL     1      35.766 -21.068 -19.962  0.00  0.00    +0.036 C 
ATOM     13  C   UNL     1      35.040 -20.158 -20.730  0.00  0.00    +0.134 C 
BRANCH  13  14
ATOM     14  O   UNL     1      35.684 -19.344 -21.610  0.00  0.00    -0.506 OA
ATOM     15  H   UNL     1      36.431 -18.851 -21.331  0.00  0.00    +0.292 HD
ENDBRANCH  13  14
ENDBRANCH   7   8
ENDBRANCH   6   7
ENDBRANCH   4   6
ENDBRANCH   1   4
BRANCH   1  16
ATOM     16  C   UNL     1      32.569 -23.714 -13.923  0.00  0.00    -0.047 C 
BRANCH  16  17
ATOM     17  C   UNL     1      31.412 -24.713 -14.046  0.00  0.00    +0.112 C 
BRANCH  17  18
ATOM     18  C   UNL     1      30.389 -24.254 -15.062  0.00  0.00    +0.002 C 
ATOM     19  C   UNL     1      30.364 -22.923 -15.441  0.00  0.00    +0.001 C 
ATOM     20  C   UNL     1      29.502 -25.174 -15.591  0.00  0.00    +0.001 C 
ATOM     21  C   UNL     1      29.421 -22.500 -16.379  0.00  0.00    +0.036 C 
ATOM     22  C   UNL     1      28.559 -24.751 -16.528  0.00  0.00    +0.036 C 
ATOM     23  C   UNL     1      28.519 -23.414 -16.922  0.00  0.00    +0.134 C 
BRANCH  23  24
ATOM     24  O   UNL     1      27.599 -23.000 -17.835  0.00  0.00    -0.506 OA
ATOM     25  H   UNL     1      27.335 -23.573 -18.527  0.00  0.00    +0.292 HD
ENDBRANCH  23  24
ENDBRANCH  17  18
BRANCH  17  26
ATOM     26  O   UNL     1      30.754 -24.864 -12.789  0.00  0.00    -0.382 OA
ATOM     27  H   UNL     1      31.265 -25.468 -12.227  0.00  0.00    +0.211 HD
ENDBRANCH  17  26
ENDBRANCH  16  17
ENDBRANCH   1  16
TORSDOF 10
ENDMDL
MODEL 3
REMARK VINA RESULT:      -9.1      1.813      2.840
REMARK  Name = 56052
REMARK  10 active torsions:
REMARK  status: ('A' for Active; 'I' for Inactive)
REMARK    1  A    between atoms: N_1  and  C_4
REMARK    2  A    between atoms: N_1  and  C_16
REMARK    3  A    between atoms: C_4  and  C_6
REMARK    4  A    between atoms: C_6  and  C_7
REMARK    5  A    between atoms: C_7  and  C_8
REMARK    6  A    between atoms: C_13  and  O_14
REMARK    7  A    between atoms: C_16  and  C_17
REMARK    8  A    between atoms: C_17  and  C_18
REMARK    9  A    between atoms: C_17  and  O_26
REMARK   10  A    between atoms: C_23  and  O_24
REMARK                            x       y       z     vdW  Elec       q    Type
REMARK                         _______ _______ _______ _____ _____    ______ ____
ROOT
ATOM      1  N   UNL     1      34.756 -15.617 -21.929  0.00  0.00    +0.387 N 
ATOM      2  H   UNL     1      35.308 -14.854 -21.536  0.00  0.00    -0.084 HD
ATOM      3  H   UNL     1      35.091 -15.851 -22.864  0.00  0.00    -0.084 HD
ENDROOT
BRANCH   1   4
ATOM      4  C   UNL     1      33.356 -15.200 -22.019  0.00  0.00    -0.062 C 
ATOM      5  C   UNL     1      32.663 -15.443 -20.679  0.00  0.00    -0.023 C 
BRANCH   4   6
ATOM      6  C   UNL     1      33.250 -13.718 -22.420  0.00  0.00    -0.017 C 
BRANCH   6   7
ATOM      7  C   UNL     1      31.859 -13.093 -22.233  0.00  0.00    +0.024 C 
BRANCH   7   8
ATOM      8  C   UNL     1      31.867 -11.807 -21.447  0.00  0.00    -0.022 C 
ATOM      9  C   UNL     1      31.778 -11.852 -20.064  0.00  0.00    -0.001 C 
ATOM     10  C   UNL     1      31.965 -10.599 -22.122  0.00  0.00    -0.001 C 
ATOM     11  C   UNL     1      31.787 -10.661 -19.337  0.00  0.00    +0.036 C 
ATOM     12  C   UNL     1      31.974  -9.408 -21.395  0.00  0.00    +0.036 C 
ATOM     13  C   UNL     1      31.884  -9.438 -20.003  0.00  0.00    +0.134 C 
BRANCH  13  14
ATOM     14  O   UNL     1      31.892  -8.277 -19.295  0.00  0.00    -0.506 OA
ATOM     15  H   UNL     1      31.780  -7.458 -19.737  0.00  0.00    +0.292 HD
ENDBRANCH  13  14
ENDBRANCH   7   8
ENDBRANCH   6   7
ENDBRANCH   4   6
ENDBRANCH   1   4
BRANCH   1  16
ATOM     16  C   UNL     1      34.890 -16.789 -21.079  0.00  0.00    -0.047 C 
BRANCH  16  17
ATOM     17  C   UNL     1      35.015 -18.064 -21.922  0.00  0.00    +0.112 C 
BRANCH  17  18
ATOM     18  C   UNL     1      34.942 -19.307 -21.062  0.00  0.00    +0.002 C 
ATOM     19  C   UNL     1      33.704 -19.830 -20.735  0.00  0.00    +0.001 C 
ATOM     20  C   UNL     1      36.115 -19.894 -20.622  0.00  0.00    +0.001 C 
ATOM     21  C   UNL     1      33.636 -20.977 -19.942  0.00  0.00    +0.036 C 
ATOM     22  C   UNL     1      36.049 -21.040 -19.830  0.00  0.00    +0.036 C 
ATOM     23  C   UNL     1      34.809 -21.582 -19.489  0.00  0.00    +0.134 C 
BRANCH  23  24
ATOM     24  O   UNL     1      34.742 -22.698 -18.716  0.00  0.00    -0.506 OA
ATOM     25  H   UNL     1      35.113 -23.503 -19.020  0.00  0.00    +0.292 HD
ENDBRANCH  23  24
ENDBRANCH  17  18
BRANCH  17  26
ATOM     26  O   UNL     1      36.261 -18.076 -22.617  0.00  0.00    -0.382 OA
ATOM     27  H   UNL     1      36.671 -17.198 -22.562  0.00  0.00    +0.211 HD
ENDBRANCH  17  26
ENDBRANCH  16  17
ENDBRANCH   1  16
TORSDOF 10
ENDMDL
MODEL 4
REMARK VINA RESULT:      -9.1      1.158      7.905
REMARK  Name = 56052
REMARK  10 active torsions:
REMARK  status: ('A' for Active; 'I' for Inactive)
REMARK    1  A    between atoms: N_1  and  C_4
REMARK    2  A    between atoms: N_1  and  C_16
REMARK    3  A    between atoms: C_4  and  C_6
REMARK    4  A    between atoms: C_6  and  C_7
REMARK    5  A    between atoms: C_7  and  C_8
REMARK    6  A    between atoms: C_13  and  O_14
REMARK    7  A    between atoms: C_16  and  C_17
REMARK    8  A    between atoms: C_17  and  C_18
REMARK    9  A    between atoms: C_17  and  O_26
REMARK   10  A    between atoms: C_23  and  O_24
REMARK                            x       y       z     vdW  Elec       q    Type
REMARK                         _______ _______ _______ _____ _____    ______ ____
ROOT
ATOM      1  N   UNL     1      35.570 -16.891 -23.293  0.00  0.00    +0.387 N 
ATOM      2  H   UNL     1      36.243 -16.830 -24.058  0.00  0.00    -0.084 HD
ATOM      3  H   UNL     1      36.043 -17.134 -22.423  0.00  0.00    -0.084 HD
ENDROOT
BRANCH   1   4
ATOM      4  C   UNL     1      34.586 -17.930 -23.601  0.00  0.00    -0.062 C 
ATOM      5  C   UNL     1      34.551 -18.170 -25.110  0.00  0.00    -0.023 C 
BRANCH   4   6
ATOM      6  C   UNL     1      34.916 -19.237 -22.856  0.00  0.00    -0.017 C 
BRANCH   6   7
ATOM      7  C   UNL     1      35.405 -19.054 -21.412  0.00  0.00    +0.024 C 
BRANCH   7   8
ATOM      8  C   UNL     1      35.026 -20.186 -20.491  0.00  0.00    -0.022 C 
ATOM      9  C   UNL     1      33.687 -20.490 -20.299  0.00  0.00    -0.001 C 
ATOM     10  C   UNL     1      36.025 -20.906 -19.852  0.00  0.00    -0.001 C 
ATOM     11  C   UNL     1      33.337 -21.539 -19.448  0.00  0.00    +0.036 C 
ATOM     12  C   UNL     1      35.675 -21.955 -19.001  0.00  0.00    +0.036 C 
ATOM     13  C   UNL     1      34.332 -22.271 -18.798  0.00  0.00    +0.134 C 
BRANCH  13  14
ATOM     14  O   UNL     1      33.990 -23.293 -17.967  0.00  0.00    -0.506 OA
ATOM     15  H   UNL     1      34.419 -24.123 -18.045  0.00  0.00    +0.292 HD
ENDBRANCH  13  14
ENDBRANCH   7   8
ENDBRANCH   6   7
ENDBRANCH   4   6
ENDBRANCH   1   4
BRANCH   1  16
ATOM     16  C   UNL     1      34.919 -15.601 -23.127  0.00  0.00    -0.047 C 
BRANCH  16  17
ATOM     17  C   UNL     1      34.090 -15.570 -21.837  0.00  0.00    +0.112 C 
BRANCH  17  18
ATOM     18  C   UNL     1      33.246 -14.317 -21.751  0.00  0.00    +0.002 C 
ATOM     19  C   UNL     1      33.046 -13.558 -22.891  0.00  0.00    +0.001 C 
ATOM     20  C   UNL     1      32.691 -13.958 -20.536  0.00  0.00    +0.001 C 
ATOM     21  C   UNL     1      32.267 -12.403 -22.812  0.00  0.00    +0.036 C 
ATOM     22  C   UNL     1      31.912 -12.804 -20.456  0.00  0.00    +0.036 C 
ATOM     23  C   UNL     1      31.700 -12.026 -21.595  0.00  0.00    +0.134 C 
BRANCH  23  24
ATOM     24  O   UNL     1      30.941 -10.899 -21.519  0.00  0.00    -0.506 OA
ATOM     25  H   UNL     1      30.172 -10.887 -20.985  0.00  0.00    +0.292 HD
ENDBRANCH  23  24
ENDBRANCH  17  18
BRANCH  17  26
ATOM     26  O   UNL     1      34.948 -15.607 -20.698  0.00  0.00    -0.382 OA
ATOM     27  H   UNL     1      35.028 -14.715 -20.324  0.00  0.00    +0.211 HD
ENDBRANCH  17  26
ENDBRANCH  16  17
ENDBRANCH   1  16
TORSDOF 10
ENDMDL
MODEL 5
REMARK VINA RESULT:      -9.1      1.587      8.800
REMARK  Name = 56052
REMARK  10 active torsions:
REMARK  status: ('A' for Active; 'I' for Inactive)
REMARK    1  A    between atoms: N_1  and  C_4
REMARK    2  A    between atoms: N_1  and  C_16
REMARK    3  A    between atoms: C_4  and  C_6
REMARK    4  A    between atoms: C_6  and  C_7
REMARK    5  A    between atoms: C_7  and  C_8
REMARK    6  A    between atoms: C_13  and  O_14
REMARK    7  A    between atoms: C_16  and  C_17
REMARK    8  A    between atoms: C_17  and  C_18
REMARK    9  A    between atoms: C_17  and  O_26
REMARK   10  A    between atoms: C_23  and  O_24
REMARK                            x       y       z     vdW  Elec       q    Type
REMARK                         _______ _______ _______ _____ _____    ______ ____
ROOT
ATOM      1  N   UNL     1      34.033 -15.717 -23.384  0.00  0.00    +0.387 N 
ATOM      2  H   UNL     1      33.097 -16.001 -23.093  0.00  0.00    -0.084 HD
ATOM      3  H   UNL     1      34.204 -15.999 -24.348  0.00  0.00    -0.084 HD
ENDROOT
BRANCH   1   4
ATOM      4  C   UNL     1      35.021 -16.365 -22.520  0.00  0.00    -0.062 C 
ATOM      5  C   UNL     1      34.720 -16.031 -21.059  0.00  0.00    -0.023 C 
BRANCH   4   6
ATOM      6  C   UNL     1      35.023 -17.889 -22.734  0.00  0.00    -0.017 C 
BRANCH   6   7
ATOM      7  C   UNL     1      35.849 -18.687 -21.714  0.00  0.00    +0.024 C 
BRANCH   7   8
ATOM      8  C   UNL     1      35.042 -19.683 -20.920  0.00  0.00    -0.022 C 
ATOM      9  C   UNL     1      33.659 -19.589 -20.913  0.00  0.00    -0.001 C 
ATOM     10  C   UNL     1      35.698 -20.679 -20.212  0.00  0.00    -0.001 C 
ATOM     11  C   UNL     1      32.913 -20.513 -20.180  0.00  0.00    +0.036 C 
ATOM     12  C   UNL     1      34.952 -21.602 -19.479  0.00  0.00    +0.036 C 
ATOM     13  C   UNL     1      33.560 -21.519 -19.462  0.00  0.00    +0.134 C 
BRANCH  13  14
ATOM     14  O   UNL     1      32.832 -22.419 -18.746  0.00  0.00    -0.506 OA
ATOM     15  H   UNL     1      32.736 -23.297 -19.058  0.00  0.00    +0.292 HD
ENDBRANCH  13  14
ENDBRANCH   7   8
ENDBRANCH   6   7
ENDBRANCH   4   6
ENDBRANCH   1   4
BRANCH   1  16
ATOM     16  C   UNL     1      34.141 -14.269 -23.293  0.00  0.00    -0.047 C 
BRANCH  16  17
ATOM     17  C   UNL     1      32.753 -13.617 -23.321  0.00  0.00    +0.112 C 
BRANCH  17  18
ATOM     18  C   UNL     1      32.850 -12.107 -23.268  0.00  0.00    +0.002 C 
ATOM     19  C   UNL     1      32.005 -11.405 -22.427  0.00  0.00    +0.001 C 
ATOM     20  C   UNL     1      33.782 -11.462 -24.062  0.00  0.00    +0.001 C 
ATOM     21  C   UNL     1      32.095 -10.013 -22.378  0.00  0.00    +0.036 C 
ATOM     22  C   UNL     1      33.872 -10.071 -24.013  0.00  0.00    +0.036 C 
ATOM     23  C   UNL     1      33.028  -9.346 -23.171  0.00  0.00    +0.134 C 
BRANCH  23  24
ATOM     24  O   UNL     1      33.114  -7.990 -23.123  0.00  0.00    -0.506 OA
ATOM     25  H   UNL     1      33.546  -7.523 -23.810  0.00  0.00    +0.292 HD
ENDBRANCH  23  24
ENDBRANCH  17  18
BRANCH  17  26
ATOM     26  O   UNL     1      31.980 -14.052 -22.203  0.00  0.00    -0.382 OA
ATOM     27  H   UNL     1      32.574 -14.307 -21.480  0.00  0.00    +0.211 HD
ENDBRANCH  17  26
ENDBRANCH  16  17
ENDBRANCH   1  16
TORSDOF 10
ENDMDL
MODEL 6
REMARK VINA RESULT:      -9.1      5.702      9.482
REMARK  Name = 56052
REMARK  10 active torsions:
REMARK  status: ('A' for Active; 'I' for Inactive)
REMARK    1  A    between atoms: N_1  and  C_4
REMARK    2  A    between atoms: N_1  and  C_16
REMARK    3  A    between atoms: C_4  and  C_6
REMARK    4  A    between atoms: C_6  and  C_7
REMARK    5  A    between atoms: C_7  and  C_8
REMARK    6  A    between atoms: C_13  and  O_14
REMARK    7  A    between atoms: C_16  and  C_17
REMARK    8  A    between atoms: C_17  and  C_18
REMARK    9  A    between atoms: C_17  and  O_26
REMARK   10  A    between atoms: C_23  and  O_24
REMARK                            x       y       z     vdW  Elec       q    Type
REMARK                         _______ _______ _______ _____ _____    ______ ____
ROOT
ATOM      1  N   UNL     1      33.967 -23.181 -14.942  0.00  0.00    +0.387 N 
ATOM      2  H   UNL     1      33.356 -22.470 -14.540  0.00  0.00    -0.084 HD
ATOM      3  H   UNL     1      34.918 -22.822 -15.031  0.00  0.00    -0.084 HD
ENDROOT
BRANCH   1   4
ATOM      4  C   UNL     1      33.473 -23.543 -16.271  0.00  0.00    -0.062 C 
ATOM      5  C   UNL     1      31.990 -23.188 -16.379  0.00  0.00    -0.023 C 
BRANCH   4   6
ATOM      6  C   UNL     1      34.279 -22.827 -17.370  0.00  0.00    -0.017 C 
BRANCH   6   7
ATOM      7  C   UNL     1      33.496 -22.528 -18.658  0.00  0.00    +0.024 C 
BRANCH   7   8
ATOM      8  C   UNL     1      34.108 -21.442 -19.506  0.00  0.00    -0.022 C 
ATOM      9  C   UNL     1      35.488 -21.343 -19.595  0.00  0.00    -0.001 C 
ATOM     10  C   UNL     1      33.279 -20.562 -20.185  0.00  0.00    -0.001 C 
ATOM     11  C   UNL     1      36.054 -20.339 -20.382  0.00  0.00    +0.036 C 
ATOM     12  C   UNL     1      33.845 -19.557 -20.971  0.00  0.00    +0.036 C 
ATOM     13  C   UNL     1      35.231 -19.445 -21.069  0.00  0.00    +0.134 C 
BRANCH  13  14
ATOM     14  O   UNL     1      35.783 -18.465 -21.835  0.00  0.00    -0.506 OA
ATOM     15  H   UNL     1      35.235 -17.814 -22.228  0.00  0.00    +0.292 HD
ENDBRANCH  13  14
ENDBRANCH   7   8
ENDBRANCH   6   7
ENDBRANCH   4   6
ENDBRANCH   1   4
BRANCH   1  16
ATOM     16  C   UNL     1      33.987 -24.343 -14.066  0.00  0.00    -0.047 C 
BRANCH  16  17
ATOM     17  C   UNL     1      35.095 -24.214 -13.015  0.00  0.00    +0.112 C 
BRANCH  17  18
ATOM     18  C   UNL     1      36.382 -24.857 -13.486  0.00  0.00    +0.002 C 
ATOM     19  C   UNL     1      36.352 -25.712 -14.573  0.00  0.00    +0.001 C 
ATOM     20  C   UNL     1      37.562 -24.575 -12.819  0.00  0.00    +0.001 C 
ATOM     21  C   UNL     1      37.538 -26.304 -15.008  0.00  0.00    +0.036 C 
ATOM     22  C   UNL     1      38.748 -25.166 -13.253  0.00  0.00    +0.036 C 
ATOM     23  C   UNL     1      38.736 -26.031 -14.348  0.00  0.00    +0.134 C 
BRANCH  23  24
ATOM     24  O   UNL     1      39.892 -26.610 -14.772  0.00  0.00    -0.506 OA
ATOM     25  H   UNL     1      40.356 -27.198 -14.210  0.00  0.00    +0.292 HD
ENDBRANCH  23  24
ENDBRANCH  17  18
BRANCH  17  26
ATOM     26  O   UNL     1      34.700 -24.849 -11.800  0.00  0.00    -0.382 OA
ATOM     27  H   UNL     1      33.762 -25.091 -11.852  0.00  0.00    +0.211 HD
ENDBRANCH  17  26
ENDBRANCH  16  17
ENDBRANCH   1  16
TORSDOF 10
ENDMDL
MODEL 7
REMARK VINA RESULT:      -9.0      1.604      8.829
REMARK  Name = 56052
REMARK  10 active torsions:
REMARK  status: ('A' for Active; 'I' for Inactive)
REMARK    1  A    between atoms: N_1  and  C_4
REMARK    2  A    between atoms: N_1  and  C_16
REMARK    3  A    between atoms: C_4  and  C_6
REMARK    4  A    between atoms: C_6  and  C_7
REMARK    5  A    between atoms: C_7  and  C_8
REMARK    6  A    between atoms: C_13  and  O_14
REMARK    7  A    between atoms: C_16  and  C_17
REMARK    8  A    between atoms: C_17  and  C_18
REMARK    9  A    between atoms: C_17  and  O_26
REMARK   10  A    between atoms: C_23  and  O_24
REMARK                            x       y       z     vdW  Elec       q    Type
REMARK                         _______ _______ _______ _____ _____    ______ ____
ROOT
ATOM      1  N   UNL     1      34.057 -15.623 -23.378  0.00  0.00    +0.387 N 
ATOM      2  H   UNL     1      33.109 -15.946 -23.185  0.00  0.00    -0.084 HD
ATOM      3  H   UNL     1      34.308 -15.820 -24.347  0.00  0.00    -0.084 HD
ENDROOT
BRANCH   1   4
ATOM      4  C   UNL     1      34.992 -16.325 -22.497  0.00  0.00    -0.062 C 
ATOM      5  C   UNL     1      34.650 -16.018 -21.039  0.00  0.00    -0.023 C 
BRANCH   4   6
ATOM      6  C   UNL     1      34.952 -17.843 -22.751  0.00  0.00    -0.017 C 
BRANCH   6   7
ATOM      7  C   UNL     1      35.806 -18.684 -21.791  0.00  0.00    +0.024 C 
BRANCH   7   8
ATOM      8  C   UNL     1      35.013 -19.678 -20.979  0.00  0.00    -0.022 C 
ATOM      9  C   UNL     1      35.679 -20.662 -20.267  0.00  0.00    -0.001 C 
ATOM     10  C   UNL     1      33.629 -19.588 -20.959  0.00  0.00    -0.001 C 
ATOM     11  C   UNL     1      34.945 -21.580 -19.515  0.00  0.00    +0.036 C 
ATOM     12  C   UNL     1      32.895 -20.506 -20.207  0.00  0.00    +0.036 C 
ATOM     13  C   UNL     1      33.552 -21.502 -19.486  0.00  0.00    +0.134 C 
BRANCH  13  14
ATOM     14  O   UNL     1      32.836 -22.398 -18.753  0.00  0.00    -0.506 OA
ATOM     15  H   UNL     1      32.078 -22.116 -18.281  0.00  0.00    +0.292 HD
ENDBRANCH  13  14
ENDBRANCH   7   8
ENDBRANCH   6   7
ENDBRANCH   4   6
ENDBRANCH   1   4
BRANCH   1  16
ATOM     16  C   UNL     1      34.125 -14.187 -23.160  0.00  0.00    -0.047 C 
BRANCH  16  17
ATOM     17  C   UNL     1      32.728 -13.558 -23.230  0.00  0.00    +0.112 C 
BRANCH  17  18
ATOM     18  C   UNL     1      32.798 -12.047 -23.197  0.00  0.00    +0.002 C 
ATOM     19  C   UNL     1      31.947 -11.349 -22.357  0.00  0.00    +0.001 C 
ATOM     20  C   UNL     1      33.712 -11.395 -24.005  0.00  0.00    +0.001 C 
ATOM     21  C   UNL     1      32.012  -9.956 -22.326  0.00  0.00    +0.036 C 
ATOM     22  C   UNL     1      33.777 -10.002 -23.975  0.00  0.00    +0.036 C 
ATOM     23  C   UNL     1      32.927  -9.282 -23.135  0.00  0.00    +0.134 C 
BRANCH  23  24
ATOM     24  O   UNL     1      32.989  -7.923 -23.104  0.00  0.00    -0.506 OA
ATOM     25  H   UNL     1      32.606  -7.421 -23.796  0.00  0.00    +0.292 HD
ENDBRANCH  23  24
ENDBRANCH  17  18
BRANCH  17  26
ATOM     26  O   UNL     1      31.936 -13.991 -22.125  0.00  0.00    -0.382 OA
ATOM     27  H   UNL     1      30.996 -13.936 -22.360  0.00  0.00    +0.211 HD
ENDBRANCH  17  26
ENDBRANCH  16  17
ENDBRANCH   1  16
TORSDOF 10
ENDMDL
MODEL 8
REMARK VINA RESULT:      -9.0      1.599      2.267
REMARK  Name = 56052
REMARK  10 active torsions:
REMARK  status: ('A' for Active; 'I' for Inactive)
REMARK    1  A    between atoms: N_1  and  C_4
REMARK    2  A    between atoms: N_1  and  C_16
REMARK    3  A    between atoms: C_4  and  C_6
REMARK    4  A    between atoms: C_6  and  C_7
REMARK    5  A    between atoms: C_7  and  C_8
REMARK    6  A    between atoms: C_13  and  O_14
REMARK    7  A    between atoms: C_16  and  C_17
REMARK    8  A    between atoms: C_17  and  C_18
REMARK    9  A    between atoms: C_17  and  O_26
REMARK   10  A    between atoms: C_23  and  O_24
REMARK                            x       y       z     vdW  Elec       q    Type
REMARK                         _______ _______ _______ _____ _____    ______ ____
ROOT
ATOM      1  N   UNL     1      34.925 -16.525 -20.920  0.00  0.00    +0.387 N 
ATOM      2  H   UNL     1      34.612 -16.909 -20.028  0.00  0.00    -0.084 HD
ATOM      3  H   UNL     1      35.648 -15.822 -20.768  0.00  0.00    -0.084 HD
ENDROOT
BRANCH   1   4
ATOM      4  C   UNL     1      33.790 -15.896 -21.597  0.00  0.00    -0.062 C 
ATOM      5  C   UNL     1      32.842 -15.298 -20.558  0.00  0.00    -0.023 C 
BRANCH   4   6
ATOM      6  C   UNL     1      34.268 -14.810 -22.577  0.00  0.00    -0.017 C 
BRANCH   6   7
ATOM      7  C   UNL     1      33.176 -14.233 -23.490  0.00  0.00    +0.024 C 
BRANCH   7   8
ATOM      8  C   UNL     1      33.009 -12.739 -23.376  0.00  0.00    -0.022 C 
ATOM      9  C   UNL     1      33.775 -11.905 -24.175  0.00  0.00    -0.001 C 
ATOM     10  C   UNL     1      32.091 -12.225 -22.473  0.00  0.00    -0.001 C 
ATOM     11  C   UNL     1      33.620 -10.522 -24.069  0.00  0.00    +0.036 C 
ATOM     12  C   UNL     1      31.935 -10.842 -22.367  0.00  0.00    +0.036 C 
ATOM     13  C   UNL     1      32.700  -9.991 -23.164  0.00  0.00    +0.134 C 
BRANCH  13  14
ATOM     14  O   UNL     1      32.549  -8.643 -23.061  0.00  0.00    -0.506 OA
ATOM     15  H   UNL     1      31.719  -8.249 -23.246  0.00  0.00    +0.292 HD
ENDBRANCH  13  14
ENDBRANCH   7   8
ENDBRANCH   6   7
ENDBRANCH   4   6
ENDBRANCH   1   4
BRANCH   1  16
ATOM     16  C   UNL     1      35.478 -17.597 -21.732  0.00  0.00    -0.047 C 
BRANCH  16  17
ATOM     17  C   UNL     1      34.419 -18.670 -22.014  0.00  0.00    +0.112 C 
BRANCH  17  18
ATOM     18  C   UNL     1      34.475 -19.785 -20.992  0.00  0.00    +0.002 C 
ATOM     19  C   UNL     1      35.706 -20.278 -20.597  0.00  0.00    +0.001 C 
ATOM     20  C   UNL     1      33.294 -20.287 -20.474  0.00  0.00    +0.001 C 
ATOM     21  C   UNL     1      35.758 -21.305 -19.654  0.00  0.00    +0.036 C 
ATOM     22  C   UNL     1      33.345 -21.313 -19.531  0.00  0.00    +0.036 C 
ATOM     23  C   UNL     1      34.578 -21.823 -19.121  0.00  0.00    +0.134 C 
BRANCH  23  24
ATOM     24  O   UNL     1      34.629 -22.825 -18.203  0.00  0.00    -0.506 OA
ATOM     25  H   UNL     1      34.620 -23.719 -18.483  0.00  0.00    +0.292 HD
ENDBRANCH  23  24
ENDBRANCH  17  18
BRANCH  17  26
ATOM     26  O   UNL     1      34.625 -19.241 -23.306  0.00  0.00    -0.382 OA
ATOM     27  H   UNL     1      33.782 -19.265 -23.786  0.00  0.00    +0.211 HD
ENDBRANCH  17  26
ENDBRANCH  16  17
ENDBRANCH   1  16
TORSDOF 10
ENDMDL
MODEL 9
REMARK VINA RESULT:      -8.9      5.921     10.383
REMARK  Name = 56052
REMARK  10 active torsions:
REMARK  status: ('A' for Active; 'I' for Inactive)
REMARK    1  A    between atoms: N_1  and  C_4
REMARK    2  A    between atoms: N_1  and  C_16
REMARK    3  A    between atoms: C_4  and  C_6
REMARK    4  A    between atoms: C_6  and  C_7
REMARK    5  A    between atoms: C_7  and  C_8
REMARK    6  A    between atoms: C_13  and  O_14
REMARK    7  A    between atoms: C_16  and  C_17
REMARK    8  A    between atoms: C_17  and  C_18
REMARK    9  A    between atoms: C_17  and  O_26
REMARK   10  A    between atoms: C_23  and  O_24
REMARK                            x       y       z     vdW  Elec       q    Type
REMARK                         _______ _______ _______ _____ _____    ______ ____
ROOT
ATOM      1  N   UNL     1      33.429 -23.125 -15.445  0.00  0.00    +0.387 N 
ATOM      2  H   UNL     1      33.638 -22.279 -14.913  0.00  0.00    -0.084 HD
ATOM      3  H   UNL     1      32.455 -23.121 -15.747  0.00  0.00    -0.084 HD
ENDROOT
BRANCH   1   4
ATOM      4  C   UNL     1      33.655 -24.294 -14.594  0.00  0.00    -0.062 C 
ATOM      5  C   UNL     1      34.744 -23.978 -13.569  0.00  0.00    -0.023 C 
BRANCH   4   6
ATOM      6  C   UNL     1      32.356 -24.718 -13.886  0.00  0.00    -0.017 C 
BRANCH   6   7
ATOM      7  C   UNL     1      31.315 -23.601 -13.717  0.00  0.00    +0.024 C 
BRANCH   7   8
ATOM      8  C   UNL     1      30.250 -23.593 -14.784  0.00  0.00    -0.022 C 
ATOM      9  C   UNL     1      29.613 -22.403 -15.103  0.00  0.00    -0.001 C 
ATOM     10  C   UNL     1      29.926 -24.776 -15.431  0.00  0.00    -0.001 C 
ATOM     11  C   UNL     1      28.628 -22.396 -16.091  0.00  0.00    +0.036 C 
ATOM     12  C   UNL     1      28.942 -24.769 -16.420  0.00  0.00    +0.036 C 
ATOM     13  C   UNL     1      28.292 -23.580 -16.750  0.00  0.00    +0.134 C 
BRANCH  13  14
ATOM     14  O   UNL     1      27.332 -23.573 -17.713  0.00  0.00    -0.506 OA
ATOM     15  H   UNL     1      27.427 -24.112 -18.473  0.00  0.00    +0.292 HD
ENDBRANCH  13  14
ENDBRANCH   7   8
ENDBRANCH   6   7
ENDBRANCH   4   6
ENDBRANCH   1   4
BRANCH   1  16
ATOM     16  C   UNL     1      34.283 -23.172 -16.621  0.00  0.00    -0.047 C 
BRANCH  16  17
ATOM     17  C   UNL     1      33.451 -23.058 -17.904  0.00  0.00    +0.112 C 
BRANCH  17  18
ATOM     18  C   UNL     1      34.041 -22.042 -18.859  0.00  0.00    +0.002 C 
ATOM     19  C   UNL     1      35.416 -21.951 -18.983  0.00  0.00    +0.001 C 
ATOM     20  C   UNL     1      33.193 -21.228 -19.588  0.00  0.00    +0.001 C 
ATOM     21  C   UNL     1      35.960 -21.016 -19.864  0.00  0.00    +0.036 C 
ATOM     22  C   UNL     1      33.736 -20.293 -20.468  0.00  0.00    +0.036 C 
ATOM     23  C   UNL     1      35.120 -20.186 -20.606  0.00  0.00    +0.134 C 
BRANCH  23  24
ATOM     24  O   UNL     1      35.652 -19.274 -21.464  0.00  0.00    -0.506 OA
ATOM     25  H   UNL     1      35.710 -19.468 -22.378  0.00  0.00    +0.292 HD
ENDBRANCH  23  24
ENDBRANCH  17  18
BRANCH  17  26
ATOM     26  O   UNL     1      32.118 -22.654 -17.594  0.00  0.00    -0.382 OA
ATOM     27  H   UNL     1      31.697 -23.330 -17.039  0.00  0.00    +0.211 HD
ENDBRANCH  17  26
ENDBRANCH  16  17
ENDBRANCH   1  16
TORSDOF 10
ENDMDL
