MODEL 1
REMARK VINA RESULT:      -7.0      0.000      0.000
REMARK  Name = 28417
REMARK  2 active torsions:
REMARK  status: ('A' for Active; 'I' for Inactive)
REMARK    1  A    between atoms: C_9  and  O_23
REMARK    2  A    between atoms: C_9  and  C_25
REMARK                            x       y       z     vdW  Elec       q    Type
REMARK                         _______ _______ _______ _____ _____    ______ ____
ROOT
ATOM      1  O   UNL     1      35.466 -23.709 -15.665  0.00  0.00    -0.354 OA
ATOM      2  N   UNL     1      36.758 -23.644 -15.157  0.00  0.00    -0.076 NA
ATOM      3  C   UNL     1      34.177 -18.598 -21.407  0.00  0.00    +0.003 C 
ATOM      4  C   UNL     1      35.442 -18.054 -22.109  0.00  0.00    +0.033 C 
ATOM      5  C   UNL     1      34.342 -20.037 -20.900  0.00  0.00    +0.001 C 
ATOM      6  C   UNL     1      35.528 -20.085 -19.888  0.00  0.00    +0.004 C 
ATOM      7  C   UNL     1      35.757 -21.515 -19.263  0.00  0.00    +0.019 C 
ATOM      8  C   UNL     1      36.591 -18.053 -21.086  0.00  0.00    +0.003 C 
ATOM      9  C   UNL     1      34.921 -16.663 -22.589  0.00  0.00    +0.142 C 
ATOM     10  C   UNL     1      36.818 -19.451 -20.480  0.00  0.00    +0.000 C 
ATOM     11  C   UNL     1      33.058 -18.295 -22.401  0.00  0.00    +0.004 C 
ATOM     12  C   UNL     1      33.056 -20.539 -20.230  0.00  0.00    +0.004 C 
ATOM     13  C   UNL     1      33.485 -16.980 -23.086  0.00  0.00    +0.039 C 
ATOM     14  C   UNL     1      34.394 -22.090 -18.772  0.00  0.00    -0.041 C 
ATOM     15  C   UNL     1      35.880 -18.904 -23.338  0.00  0.00    +0.003 C 
ATOM     16  C   UNL     1      33.222 -21.962 -19.713  0.00  0.00    +0.022 C 
ATOM     17  C   UNL     1      36.827 -21.379 -18.106  0.00  0.00    +0.035 C 
ATOM     18  C   UNL     1      36.316 -22.517 -20.304  0.00  0.00    +0.004 C 
ATOM     19  C   UNL     1      34.234 -22.741 -17.600  0.00  0.00    +0.031 C 
ATOM     20  C   UNL     1      36.594 -22.336 -16.999  0.00  0.00    +0.038 C 
ATOM     21  C   UNL     1      35.368 -22.925 -16.782  0.00  0.00    +0.172 C 
ATOM     22  C   UNL     1      37.416 -22.814 -15.970  0.00  0.00    +0.139 C 
ENDROOT
BRANCH   9  23
ATOM     23  O   UNL     1      35.715 -16.112 -23.630  0.00  0.00    -0.375 OA
ATOM     24  H   UNL     1      35.611 -15.147 -23.639  0.00  0.00    +0.211 HD
ENDBRANCH   9  23
BRANCH   9  25
ATOM     25  C   UNL     1      34.860 -15.658 -21.509  0.00  0.00    -0.053 C 
ATOM     26  C   UNL     1      34.811 -14.841 -20.632  0.00  0.00    -0.012 C 
ENDBRANCH   9  25
TORSDOF 2
ENDMDL
MODEL 2
REMARK VINA RESULT:      -6.9      5.996      8.115
REMARK  Name = 28417
REMARK  2 active torsions:
REMARK  status: ('A' for Active; 'I' for Inactive)
REMARK    1  A    between atoms: C_9  and  O_23
REMARK    2  A    between atoms: C_9  and  C_25
REMARK                            x       y       z     vdW  Elec       q    Type
REMARK                         _______ _______ _______ _____ _____    ______ ____
ROOT
ATOM      1  O   UNL     1      40.052 -25.283 -14.941  0.00  0.00    -0.354 OA
ATOM      2  N   UNL     1      40.279 -26.129 -13.863  0.00  0.00    -0.076 NA
ATOM      3  C   UNL     1      32.536 -23.430 -15.849  0.00  0.00    +0.003 C 
ATOM      4  C   UNL     1      31.647 -23.628 -14.600  0.00  0.00    +0.033 C 
ATOM      5  C   UNL     1      33.982 -23.050 -15.504  0.00  0.00    +0.001 C 
ATOM      6  C   UNL     1      34.607 -24.178 -14.626  0.00  0.00    +0.004 C 
ATOM      7  C   UNL     1      36.116 -23.912 -14.252  0.00  0.00    +0.019 C 
ATOM      8  C   UNL     1      32.241 -24.780 -13.770  0.00  0.00    +0.003 C 
ATOM      9  C   UNL     1      30.264 -23.883 -15.277  0.00  0.00    +0.142 C 
ATOM     10  C   UNL     1      33.713 -24.517 -13.400  0.00  0.00    +0.000 C 
ATOM     11  C   UNL     1      31.718 -22.483 -16.724  0.00  0.00    +0.004 C 
ATOM     12  C   UNL     1      34.819 -22.845 -16.774  0.00  0.00    +0.004 C 
ATOM     13  C   UNL     1      30.248 -22.854 -16.439  0.00  0.00    +0.039 C 
ATOM     14  C   UNL     1      36.904 -23.506 -15.534  0.00  0.00    -0.041 C 
ATOM     15  C   UNL     1      31.563 -22.363 -13.695  0.00  0.00    +0.003 C 
ATOM     16  C   UNL     1      36.258 -22.481 -16.435  0.00  0.00    +0.022 C 
ATOM     17  C   UNL     1      36.687 -25.215 -13.560  0.00  0.00    +0.035 C 
ATOM     18  C   UNL     1      36.265 -22.744 -13.247  0.00  0.00    +0.004 C 
ATOM     19  C   UNL     1      38.137 -23.966 -15.835  0.00  0.00    +0.031 C 
ATOM     20  C   UNL     1      38.125 -25.430 -13.846  0.00  0.00    +0.038 C 
ATOM     21  C   UNL     1      38.754 -24.854 -14.927  0.00  0.00    +0.172 C 
ATOM     22  C   UNL     1      39.111 -26.205 -13.221  0.00  0.00    +0.139 C 
ENDROOT
BRANCH   9  23
ATOM     23  O   UNL     1      29.174 -23.674 -14.390  0.00  0.00    -0.375 OA
ATOM     24  H   UNL     1      28.579 -23.003 -14.761  0.00  0.00    +0.211 HD
ENDBRANCH   9  23
BRANCH   9  25
ATOM     25  C   UNL     1      30.124 -25.249 -15.822  0.00  0.00    -0.053 C 
ATOM     26  C   UNL     1      30.010 -26.358 -16.266  0.00  0.00    -0.012 C 
ENDBRANCH   9  25
TORSDOF 2
ENDMDL
MODEL 3
REMARK VINA RESULT:      -6.6      5.017      9.196
REMARK  Name = 28417
REMARK  2 active torsions:
REMARK  status: ('A' for Active; 'I' for Inactive)
REMARK    1  A    between atoms: C_9  and  O_23
REMARK    2  A    between atoms: C_9  and  C_25
REMARK                            x       y       z     vdW  Elec       q    Type
REMARK                         _______ _______ _______ _____ _____    ______ ____
ROOT
ATOM      1  O   UNL     1      34.065 -10.222 -25.874  0.00  0.00    -0.354 OA
ATOM      2  N   UNL     1      34.333  -9.280 -24.888  0.00  0.00    -0.076 NA
ATOM      3  C   UNL     1      34.666 -17.567 -23.335  0.00  0.00    +0.003 C 
ATOM      4  C   UNL     1      34.572 -17.751 -21.804  0.00  0.00    +0.033 C 
ATOM      5  C   UNL     1      33.832 -16.387 -23.852  0.00  0.00    +0.001 C 
ATOM      6  C   UNL     1      34.328 -15.076 -23.166  0.00  0.00    +0.004 C 
ATOM      7  C   UNL     1      33.568 -13.787 -23.663  0.00  0.00    +0.019 C 
ATOM      8  C   UNL     1      35.116 -16.474 -21.137  0.00  0.00    +0.003 C 
ATOM      9  C   UNL     1      35.411 -19.055 -21.625  0.00  0.00    +0.142 C 
ATOM     10  C   UNL     1      34.369 -15.216 -21.618  0.00  0.00    +0.000 C 
ATOM     11  C   UNL     1      34.377 -18.963 -23.882  0.00  0.00    +0.004 C 
ATOM     12  C   UNL     1      33.940 -16.258 -25.378  0.00  0.00    +0.004 C 
ATOM     13  C   UNL     1      34.962 -19.927 -22.828  0.00  0.00    +0.039 C 
ATOM     14  C   UNL     1      33.515 -13.784 -25.221  0.00  0.00    -0.041 C 
ATOM     15  C   UNL     1      33.118 -17.987 -21.297  0.00  0.00    +0.003 C 
ATOM     16  C   UNL     1      33.125 -15.079 -25.891  0.00  0.00    +0.022 C 
ATOM     17  C   UNL     1      34.305 -12.522 -23.065  0.00  0.00    +0.035 C 
ATOM     18  C   UNL     1      32.101 -13.753 -23.166  0.00  0.00    +0.004 C 
ATOM     19  C   UNL     1      33.732 -12.687 -25.977  0.00  0.00    +0.031 C 
ATOM     20  C   UNL     1      34.247 -11.348 -23.967  0.00  0.00    +0.038 C 
ATOM     21  C   UNL     1      34.005 -11.470 -25.318  0.00  0.00    +0.172 C 
ATOM     22  C   UNL     1      34.440  -9.977 -23.754  0.00  0.00    +0.139 C 
ENDROOT
BRANCH   9  23
ATOM     23  O   UNL     1      35.149 -19.708 -20.391  0.00  0.00    -0.375 OA
ATOM     24  H   UNL     1      35.828 -19.458 -19.743  0.00  0.00    +0.211 HD
ENDBRANCH   9  23
BRANCH   9  25
ATOM     25  C   UNL     1      36.868 -18.826 -21.696  0.00  0.00    -0.053 C 
ATOM     26  C   UNL     1      38.052 -18.640 -21.754  0.00  0.00    -0.012 C 
ENDBRANCH   9  25
TORSDOF 2
ENDMDL
MODEL 4
REMARK VINA RESULT:      -6.4     11.301     15.183
REMARK  Name = 28417
REMARK  2 active torsions:
REMARK  status: ('A' for Active; 'I' for Inactive)
REMARK    1  A    between atoms: C_9  and  O_23
REMARK    2  A    between atoms: C_9  and  C_25
REMARK                            x       y       z     vdW  Elec       q    Type
REMARK                         _______ _______ _______ _____ _____    ______ ____
ROOT
ATOM      1  O   UNL     1      32.383 -11.141 -22.202  0.00  0.00    -0.354 OA
ATOM      2  N   UNL     1      31.043 -11.322 -21.879  0.00  0.00    -0.076 NA
ATOM      3  C   UNL     1      33.654  -4.806 -26.562  0.00  0.00    +0.003 C 
ATOM      4  C   UNL     1      32.541  -3.735 -26.519  0.00  0.00    +0.033 C 
ATOM      5  C   UNL     1      33.794  -5.582 -25.245  0.00  0.00    +0.001 C 
ATOM      6  C   UNL     1      32.440  -6.290 -24.928  0.00  0.00    +0.004 C 
ATOM      7  C   UNL     1      32.485  -7.161 -23.614  0.00  0.00    +0.019 C 
ATOM      8  C   UNL     1      31.203  -4.450 -26.262  0.00  0.00    +0.003 C 
ATOM      9  C   UNL     1      32.732  -3.075 -27.920  0.00  0.00    +0.142 C 
ATOM     10  C   UNL     1      31.245  -5.297 -24.975  0.00  0.00    +0.000 C 
ATOM     11  C   UNL     1      34.865  -4.043 -27.094  0.00  0.00    +0.004 C 
ATOM     12  C   UNL     1      34.924  -6.618 -25.329  0.00  0.00    +0.004 C 
ATOM     13  C   UNL     1      34.276  -2.995 -28.062  0.00  0.00    +0.039 C 
ATOM     14  C   UNL     1      33.758  -8.061 -23.632  0.00  0.00    -0.041 C 
ATOM     15  C   UNL     1      32.751  -2.670 -25.403  0.00  0.00    +0.003 C 
ATOM     16  C   UNL     1      35.054  -7.399 -24.029  0.00  0.00    +0.022 C 
ATOM     17  C   UNL     1      31.140  -7.989 -23.528  0.00  0.00    +0.035 C 
ATOM     18  C   UNL     1      32.577  -6.283 -22.341  0.00  0.00    +0.004 C 
ATOM     19  C   UNL     1      33.765  -9.357 -23.254  0.00  0.00    +0.031 C 
ATOM     20  C   UNL     1      31.324  -9.311 -22.884  0.00  0.00    +0.038 C 
ATOM     21  C   UNL     1      32.555  -9.924 -22.801  0.00  0.00    +0.172 C 
ATOM     22  C   UNL     1      30.427 -10.214 -22.299  0.00  0.00    +0.139 C 
ENDROOT
BRANCH   9  23
ATOM     23  O   UNL     1      32.142  -1.786 -28.002  0.00  0.00    -0.375 OA
ATOM     24  H   UNL     1      32.789  -1.155 -28.355  0.00  0.00    +0.211 HD
ENDBRANCH   9  23
BRANCH   9  25
ATOM     25  C   UNL     1      32.175  -3.880 -29.026  0.00  0.00    -0.053 C 
ATOM     26  C   UNL     1      31.722  -4.533 -29.925  0.00  0.00    -0.012 C 
ENDBRANCH   9  25
TORSDOF 2
ENDMDL
MODEL 5
REMARK VINA RESULT:      -6.3      6.082      9.069
REMARK  Name = 28417
REMARK  2 active torsions:
REMARK  status: ('A' for Active; 'I' for Inactive)
REMARK    1  A    between atoms: C_9  and  O_23
REMARK    2  A    between atoms: C_9  and  C_25
REMARK                            x       y       z     vdW  Elec       q    Type
REMARK                         _______ _______ _______ _____ _____    ______ ____
ROOT
ATOM      1  O   UNL     1      28.670 -21.733 -16.654  0.00  0.00    -0.354 OA
ATOM      2  N   UNL     1      27.753 -21.939 -15.631  0.00  0.00    -0.076 NA
ATOM      3  C   UNL     1      35.912 -23.901 -14.756  0.00  0.00    +0.003 C 
ATOM      4  C   UNL     1      36.021 -24.893 -13.576  0.00  0.00    +0.033 C 
ATOM      5  C   UNL     1      34.626 -24.079 -15.575  0.00  0.00    +0.001 C 
ATOM      6  C   UNL     1      33.396 -23.870 -14.638  0.00  0.00    +0.004 C 
ATOM      7  C   UNL     1      32.014 -23.983 -15.391  0.00  0.00    +0.019 C 
ATOM      8  C   UNL     1      34.834 -24.640 -12.630  0.00  0.00    +0.003 C 
ATOM      9  C   UNL     1      37.442 -24.536 -13.039  0.00  0.00    +0.142 C 
ATOM     10  C   UNL     1      33.484 -24.756 -13.364  0.00  0.00    +0.000 C 
ATOM     11  C   UNL     1      37.257 -24.039 -15.466  0.00  0.00    +0.004 C 
ATOM     12  C   UNL     1      34.573 -23.088 -16.746  0.00  0.00    +0.004 C 
ATOM     13  C   UNL     1      38.268 -24.337 -14.338  0.00  0.00    +0.039 C 
ATOM     14  C   UNL     1      32.059 -23.122 -16.690  0.00  0.00    -0.041 C 
ATOM     15  C   UNL     1      35.987 -26.386 -14.018  0.00  0.00    +0.003 C 
ATOM     16  C   UNL     1      33.291 -23.253 -17.551  0.00  0.00    +0.022 C 
ATOM     17  C   UNL     1      30.873 -23.537 -14.390  0.00  0.00    +0.035 C 
ATOM     18  C   UNL     1      31.712 -25.437 -15.829  0.00  0.00    +0.004 C 
ATOM     19  C   UNL     1      31.044 -22.335 -17.103  0.00  0.00    +0.031 C 
ATOM     20  C   UNL     1      29.740 -22.872 -15.076  0.00  0.00    +0.038 C 
ATOM     21  C   UNL     1      29.868 -22.303 -16.323  0.00  0.00    +0.172 C 
ATOM     22  C   UNL     1      28.416 -22.622 -14.694  0.00  0.00    +0.139 C 
ENDROOT
BRANCH   9  23
ATOM     23  O   UNL     1      37.996 -25.564 -12.230  0.00  0.00    -0.375 OA
ATOM     24  H   UNL     1      38.605 -25.174 -11.583  0.00  0.00    +0.211 HD
ENDBRANCH   9  23
BRANCH   9  25
ATOM     25  C   UNL     1      37.469 -23.293 -12.241  0.00  0.00    -0.053 C 
ATOM     26  C   UNL     1      37.491 -22.284 -11.592  0.00  0.00    -0.012 C 
ENDBRANCH   9  25
TORSDOF 2
ENDMDL
MODEL 6
REMARK VINA RESULT:      -5.8      7.248     11.091
REMARK  Name = 28417
REMARK  2 active torsions:
REMARK  status: ('A' for Active; 'I' for Inactive)
REMARK    1  A    between atoms: C_9  and  O_23
REMARK    2  A    between atoms: C_9  and  C_25
REMARK                            x       y       z     vdW  Elec       q    Type
REMARK                         _______ _______ _______ _____ _____    ______ ____
ROOT
ATOM      1  O   UNL     1      32.844 -15.036 -19.823  0.00  0.00    -0.354 OA
ATOM      2  N   UNL     1      32.849 -15.958 -20.863  0.00  0.00    -0.076 NA
ATOM      3  C   UNL     1      32.356  -7.655 -22.280  0.00  0.00    +0.003 C 
ATOM      4  C   UNL     1      31.807  -7.465 -23.712  0.00  0.00    +0.033 C 
ATOM      5  C   UNL     1      31.763  -8.875 -21.564  0.00  0.00    +0.001 C 
ATOM      6  C   UNL     1      32.090 -10.157 -22.391  0.00  0.00    +0.004 C 
ATOM      7  C   UNL     1      31.566 -11.483 -21.718  0.00  0.00    +0.019 C 
ATOM      8  C   UNL     1      32.184  -8.711 -24.534  0.00  0.00    +0.003 C 
ATOM      9  C   UNL     1      32.499  -6.123 -24.103  0.00  0.00    +0.142 C 
ATOM     10  C   UNL     1      31.667 -10.006 -23.880  0.00  0.00    +0.000 C 
ATOM     11  C   UNL     1      32.182  -6.277 -21.645  0.00  0.00    +0.004 C 
ATOM     12  C   UNL     1      32.321  -9.009 -20.140  0.00  0.00    +0.004 C 
ATOM     13  C   UNL     1      32.388  -5.280 -22.805  0.00  0.00    +0.039 C 
ATOM     14  C   UNL     1      31.975 -11.499 -20.214  0.00  0.00    -0.041 C 
ATOM     15  C   UNL     1      30.260  -7.294 -23.763  0.00  0.00    +0.003 C 
ATOM     16  C   UNL     1      31.745 -10.228 -19.433  0.00  0.00    +0.022 C 
ATOM     17  C   UNL     1      32.147 -12.709 -22.532  0.00  0.00    +0.035 C 
ATOM     18  C   UNL     1      30.020 -11.582 -21.762  0.00  0.00    +0.004 C 
ATOM     19  C   UNL     1      32.451 -12.589 -19.577  0.00  0.00    +0.031 C 
ATOM     20  C   UNL     1      32.408 -13.890 -21.676  0.00  0.00    +0.038 C 
ATOM     21  C   UNL     1      32.570 -13.788 -20.312  0.00  0.00    +0.172 C 
ATOM     22  C   UNL     1      32.588 -15.249 -21.964  0.00  0.00    +0.139 C 
ENDROOT
BRANCH   9  23
ATOM     23  O   UNL     1      31.858  -5.475 -25.193  0.00  0.00    -0.375 OA
ATOM     24  H   UNL     1      30.919  -5.346 -24.985  0.00  0.00    +0.211 HD
ENDBRANCH   9  23
BRANCH   9  25
ATOM     25  C   UNL     1      33.921  -6.284 -24.469  0.00  0.00    -0.053 C 
ATOM     26  C   UNL     1      35.076  -6.415 -24.766  0.00  0.00    -0.012 C 
ENDBRANCH   9  25
TORSDOF 2
ENDMDL
MODEL 7
REMARK VINA RESULT:      -5.5      8.494     12.903
REMARK  Name = 28417
REMARK  2 active torsions:
REMARK  status: ('A' for Active; 'I' for Inactive)
REMARK    1  A    between atoms: C_9  and  O_23
REMARK    2  A    between atoms: C_9  and  C_25
REMARK                            x       y       z     vdW  Elec       q    Type
REMARK                         _______ _______ _______ _____ _____    ______ ____
ROOT
ATOM      1  O   UNL     1      30.910  -4.662 -24.088  0.00  0.00    -0.354 OA
ATOM      2  N   UNL     1      31.735  -4.040 -25.017  0.00  0.00    -0.076 NA
ATOM      3  C   UNL     1      32.468 -12.248 -23.206  0.00  0.00    +0.003 C 
ATOM      4  C   UNL     1      33.870 -12.697 -23.673  0.00  0.00    +0.033 C 
ATOM      5  C   UNL     1      32.443 -10.810 -22.672  0.00  0.00    +0.001 C 
ATOM      6  C   UNL     1      32.922  -9.842 -23.798  0.00  0.00    +0.004 C 
ATOM      7  C   UNL     1      32.889  -8.324 -23.371  0.00  0.00    +0.019 C 
ATOM      8  C   UNL     1      34.309 -11.772 -24.822  0.00  0.00    +0.003 C 
ATOM      9  C   UNL     1      33.582 -14.188 -24.036  0.00  0.00    +0.142 C 
ATOM     10  C   UNL     1      34.283 -10.289 -24.403  0.00  0.00    +0.000 C 
ATOM     11  C   UNL     1      32.018 -13.380 -22.284  0.00  0.00    +0.004 C 
ATOM     12  C   UNL     1      31.036 -10.417 -22.201  0.00  0.00    +0.004 C 
ATOM     13  C   UNL     1      32.647 -14.653 -22.888  0.00  0.00    +0.039 C 
ATOM     14  C   UNL     1      31.516  -8.001 -22.708  0.00  0.00    -0.041 C 
ATOM     15  C   UNL     1      34.947 -12.629 -22.550  0.00  0.00    +0.003 C 
ATOM     16  C   UNL     1      31.006  -8.985 -21.684  0.00  0.00    +0.022 C 
ATOM     17  C   UNL     1      33.180  -7.447 -24.655  0.00  0.00    +0.035 C 
ATOM     18  C   UNL     1      33.980  -7.996 -22.322  0.00  0.00    +0.004 C 
ATOM     19  C   UNL     1      30.811  -6.876 -22.954  0.00  0.00    +0.031 C 
ATOM     20  C   UNL     1      32.470  -6.147 -24.632  0.00  0.00    +0.038 C 
ATOM     21  C   UNL     1      31.357  -5.932 -23.848  0.00  0.00    +0.172 C 
ATOM     22  C   UNL     1      32.661  -4.949 -25.331  0.00  0.00    +0.139 C 
ENDROOT
BRANCH   9  23
ATOM     23  O   UNL     1      34.763 -14.976 -24.088  0.00  0.00    -0.375 OA
ATOM     24  H   UNL     1      34.655 -15.757 -23.523  0.00  0.00    +0.211 HD
ENDBRANCH   9  23
BRANCH   9  25
ATOM     25  C   UNL     1      32.893 -14.350 -25.333  0.00  0.00    -0.053 C 
ATOM     26  C   UNL     1      32.334 -14.481 -26.386  0.00  0.00    -0.012 C 
ENDBRANCH   9  25
TORSDOF 2
ENDMDL
MODEL 8
REMARK VINA RESULT:      -5.4      2.937      7.802
REMARK  Name = 28417
REMARK  2 active torsions:
REMARK  status: ('A' for Active; 'I' for Inactive)
REMARK    1  A    between atoms: C_9  and  O_23
REMARK    2  A    between atoms: C_9  and  C_25
REMARK                            x       y       z     vdW  Elec       q    Type
REMARK                         _______ _______ _______ _____ _____    ______ ____
ROOT
ATOM      1  O   UNL     1      35.810 -18.426 -21.806  0.00  0.00    -0.354 OA
ATOM      2  N   UNL     1      34.686 -18.350 -22.619  0.00  0.00    -0.076 NA
ATOM      3  C   UNL     1      34.781 -22.996 -15.576  0.00  0.00    +0.003 C 
ATOM      4  C   UNL     1      33.622 -24.013 -15.682  0.00  0.00    +0.033 C 
ATOM      5  C   UNL     1      35.442 -22.695 -16.928  0.00  0.00    +0.001 C 
ATOM      6  C   UNL     1      34.367 -22.119 -17.901  0.00  0.00    +0.004 C 
ATOM      7  C   UNL     1      34.951 -21.726 -19.312  0.00  0.00    +0.019 C 
ATOM      8  C   UNL     1      32.543 -23.411 -16.599  0.00  0.00    +0.003 C 
ATOM      9  C   UNL     1      33.256 -24.181 -14.174  0.00  0.00    +0.142 C 
ATOM     10  C   UNL     1      33.112 -23.033 -17.979  0.00  0.00    +0.000 C 
ATOM     11  C   UNL     1      35.644 -23.553 -14.446  0.00  0.00    +0.004 C 
ATOM     12  C   UNL     1      36.598 -21.698 -16.769  0.00  0.00    +0.004 C 
ATOM     13  C   UNL     1      34.644 -24.222 -13.480  0.00  0.00    +0.039 C 
ATOM     14  C   UNL     1      36.246 -20.880 -19.120  0.00  0.00    -0.041 C 
ATOM     15  C   UNL     1      34.057 -25.387 -16.272  0.00  0.00    +0.003 C 
ATOM     16  C   UNL     1      37.247 -21.385 -18.111  0.00  0.00    +0.022 C 
ATOM     17  C   UNL     1      33.823 -20.961 -20.114  0.00  0.00    +0.035 C 
ATOM     18  C   UNL     1      35.350 -22.973 -20.140  0.00  0.00    +0.004 C 
ATOM     19  C   UNL     1      36.536 -19.779 -19.845  0.00  0.00    +0.031 C 
ATOM     20  C   UNL     1      34.370 -19.924 -21.021  0.00  0.00    +0.038 C 
ATOM     21  C   UNL     1      35.623 -19.382 -20.845  0.00  0.00    +0.172 C 
ATOM     22  C   UNL     1      33.834 -19.255 -22.129  0.00  0.00    +0.139 C 
ENDROOT
BRANCH   9  23
ATOM     23  O   UNL     1      32.519 -25.368 -13.918  0.00  0.00    -0.375 OA
ATOM     24  H   UNL     1      31.840 -25.188 -13.249  0.00  0.00    +0.211 HD
ENDBRANCH   9  23
BRANCH   9  25
ATOM     25  C   UNL     1      32.467 -23.054 -13.636  0.00  0.00    -0.053 C 
ATOM     26  C   UNL     1      31.825 -22.139 -13.199  0.00  0.00    -0.012 C 
ENDBRANCH   9  25
TORSDOF 2
ENDMDL
MODEL 9
REMARK VINA RESULT:      -5.3      6.786      9.305
REMARK  Name = 28417
REMARK  2 active torsions:
REMARK  status: ('A' for Active; 'I' for Inactive)
REMARK    1  A    between atoms: C_9  and  O_23
REMARK    2  A    between atoms: C_9  and  C_25
REMARK                            x       y       z     vdW  Elec       q    Type
REMARK                         _______ _______ _______ _____ _____    ______ ____
ROOT
ATOM      1  O   UNL     1      27.552 -23.918 -15.945  0.00  0.00    -0.354 OA
ATOM      2  N   UNL     1      27.435 -23.462 -17.253  0.00  0.00    -0.076 NA
ATOM      3  C   UNL     1      34.951 -24.817 -13.668  0.00  0.00    +0.003 C 
ATOM      4  C   UNL     1      36.001 -24.039 -14.493  0.00  0.00    +0.033 C 
ATOM      5  C   UNL     1      33.597 -24.100 -13.585  0.00  0.00    +0.001 C 
ATOM      6  C   UNL     1      33.041 -23.901 -15.030  0.00  0.00    +0.004 C 
ATOM      7  C   UNL     1      31.622 -23.213 -15.061  0.00  0.00    +0.019 C 
ATOM      8  C   UNL     1      35.466 -23.897 -15.930  0.00  0.00    +0.003 C 
ATOM      9  C   UNL     1      37.251 -24.950 -14.290  0.00  0.00    +0.142 C 
ATOM     10  C   UNL     1      34.083 -23.220 -15.961  0.00  0.00    +0.000 C 
ATOM     11  C   UNL     1      35.688 -25.143 -12.370  0.00  0.00    +0.004 C 
ATOM     12  C   UNL     1      32.597 -24.899 -12.740  0.00  0.00    +0.004 C 
ATOM     13  C   UNL     1      37.159 -25.342 -12.791  0.00  0.00    +0.039 C 
ATOM     14  C   UNL     1      30.680 -23.920 -14.039  0.00  0.00    -0.041 C 
ATOM     15  C   UNL     1      36.293 -22.614 -13.936  0.00  0.00    +0.003 C 
ATOM     16  C   UNL     1      31.248 -24.197 -12.669  0.00  0.00    +0.022 C 
ATOM     17  C   UNL     1      31.081 -23.272 -16.546  0.00  0.00    +0.035 C 
ATOM     18  C   UNL     1      31.693 -21.722 -14.646  0.00  0.00    +0.004 C 
ATOM     19  C   UNL     1      29.391 -24.227 -14.296  0.00  0.00    +0.031 C 
ATOM     20  C   UNL     1      29.606 -23.400 -16.612  0.00  0.00    +0.038 C 
ATOM     21  C   UNL     1      28.862 -23.873 -15.555  0.00  0.00    +0.172 C 
ATOM     22  C   UNL     1      28.678 -23.159 -17.634  0.00  0.00    +0.139 C 
ENDROOT
BRANCH   9  23
ATOM     23  O   UNL     1      38.470 -24.276 -14.571  0.00  0.00    -0.375 OA
ATOM     24  H   UNL     1      38.696 -24.395 -15.508  0.00  0.00    +0.211 HD
ENDBRANCH   9  23
BRANCH   9  25
ATOM     25  C   UNL     1      37.226 -26.170 -15.123  0.00  0.00    -0.053 C 
ATOM     26  C   UNL     1      37.205 -27.160 -15.799  0.00  0.00    -0.012 C 
ENDBRANCH   9  25
TORSDOF 2
ENDMDL
