MODEL 1
REMARK VINA RESULT:      -9.6      0.000      0.000
REMARK  Name = 16741227
REMARK  8 active torsions:
REMARK  status: ('A' for Active; 'I' for Inactive)
REMARK    1  A    between atoms: C_3  and  C_22
REMARK    2  A    between atoms: C_10  and  C_14
REMARK    3  A    between atoms: C_11  and  O_20
REMARK    4  A    between atoms: C_22  and  C_25
REMARK    5  A    between atoms: N_24  and  CA_27
REMARK    6  A    between atoms: CA_27  and  C_28
REMARK    7  A    between atoms: CA_27  and  C_30
REMARK    8  A    between atoms: C_30  and  O_31
REMARK                            x       y       z     vdW  Elec       q    Type
REMARK                         _______ _______ _______ _____ _____    ______ ____
ROOT
ATOM      1  O   UNL     1      31.241  -9.732 -21.306  0.00  0.00    -0.267 OA
ATOM      2  N   UNL     1      32.321 -11.496 -22.225  0.00  0.00    -0.279 N 
ATOM      3  C   UNL     1      32.524 -13.650 -21.608  0.00  0.00    +0.001 A 
ATOM      4  C   UNL     1      32.839 -13.562 -22.984  0.00  0.00    +0.017 A 
ATOM      5  C   UNL     1      32.207 -12.387 -21.174  0.00  0.00    +0.041 A 
ATOM      6  C   UNL     1      32.706 -12.218 -23.361  0.00  0.00    +0.066 A 
ATOM      7  C   UNL     1      33.227 -14.518 -23.947  0.00  0.00    +0.038 C 
ATOM      8  C   UNL     1      32.964 -11.814 -24.684  0.00  0.00    +0.021 C 
ATOM      9  C   UNL     1      31.806 -11.994 -19.803  0.00  0.00    +0.050 C 
ATOM     10  C   UNL     1      32.050 -10.113 -22.145  0.00  0.00    +0.264 C 
ATOM     11  C   UNL     1      33.477 -14.115 -25.260  0.00  0.00    +0.139 C 
ATOM     12  C   UNL     1      33.348 -12.780 -25.621  0.00  0.00    +0.038 C 
ENDROOT
BRANCH  10  14
ATOM     13 CL   UNL     1      34.619  -5.931 -25.572  0.00  0.00    -0.082 Cl
ATOM     14  C   UNL     1      32.684  -9.083 -22.991  0.00  0.00    +0.057 C 
ATOM     15  C   UNL     1      31.906  -8.078 -23.566  0.00  0.00    +0.006 C 
ATOM     16  C   UNL     1      34.060  -9.111 -23.213  0.00  0.00    +0.006 C 
ATOM     17  C   UNL     1      32.504  -7.104 -24.365  0.00  0.00    +0.012 C 
ATOM     18  C   UNL     1      34.659  -8.138 -24.011  0.00  0.00    +0.012 C 
ATOM     19  C   UNL     1      33.881  -7.133 -24.587  0.00  0.00    +0.058 C 
ENDBRANCH  10  14
BRANCH  11  20
ATOM     20  O   UNL     1      33.851 -15.037 -26.190  0.00  0.00    -0.471 OA
ATOM     21  C   UNL     1      33.837 -16.406 -25.787  0.00  0.00    +0.252 C 
ENDBRANCH  11  20
BRANCH   3  22
ATOM     22  C   UNL     1      32.529 -14.878 -20.787  0.00  0.00    +0.112 C 
BRANCH  22  25
ATOM     23  O   UNL     1      34.898 -15.030 -20.298  0.00  0.00    -0.275 OA
ATOM     24  N   UNL     1      33.837 -16.855 -21.269  0.00  0.00    -0.303 N 
ATOM     25  C   UNL     1      33.890 -15.568 -20.751  0.00  0.00    +0.227 C 
ATOM     26  H   UNL     1      32.976 -17.190 -21.607  0.00  0.00    +0.149 HD
BRANCH  24  27
ATOM     27  CA  UNL     1      34.990 -17.724 -21.335  0.00  0.00    +0.101 C 
BRANCH  27  28
ATOM     28  C   UNL     1      35.628 -17.681 -22.729  0.00  0.00    +0.022 C 
ATOM     29  C   UNL     1      35.241 -18.876 -23.591  0.00  0.00    +0.002 C 
ENDBRANCH  27  28
BRANCH  27  30
ATOM     30  C   UNL     1      34.584 -19.151 -20.968  0.00  0.00    +0.157 C 
BRANCH  30  31
ATOM     31  O   UNL     1      35.626 -19.762 -20.216  0.00  0.00    -0.380 OA
ATOM     32  H   UNL     1      36.113 -19.082 -19.725  0.00  0.00    +0.211 HD
ENDBRANCH  30  31
ENDBRANCH  27  30
ENDBRANCH  24  27
ENDBRANCH  22  25
ENDBRANCH   3  22
TORSDOF 8
ENDMDL
MODEL 2
REMARK VINA RESULT:      -9.0      3.435      8.494
REMARK  Name = 16741227
REMARK  8 active torsions:
REMARK  status: ('A' for Active; 'I' for Inactive)
REMARK    1  A    between atoms: C_3  and  C_22
REMARK    2  A    between atoms: C_10  and  C_14
REMARK    3  A    between atoms: C_11  and  O_20
REMARK    4  A    between atoms: C_22  and  C_25
REMARK    5  A    between atoms: N_24  and  CA_27
REMARK    6  A    between atoms: CA_27  and  C_28
REMARK    7  A    between atoms: CA_27  and  C_30
REMARK    8  A    between atoms: C_30  and  O_31
REMARK                            x       y       z     vdW  Elec       q    Type
REMARK                         _______ _______ _______ _____ _____    ______ ____
ROOT
ATOM      1  O   UNL     1      33.809 -16.510 -25.672  0.00  0.00    -0.267 OA
ATOM      2  N   UNL     1      33.583 -14.834 -24.168  0.00  0.00    -0.279 N 
ATOM      3  C   UNL     1      33.170 -12.634 -24.388  0.00  0.00    +0.001 A 
ATOM      4  C   UNL     1      32.855 -13.003 -23.059  0.00  0.00    +0.017 A 
ATOM      5  C   UNL     1      33.602 -13.761 -25.040  0.00  0.00    +0.041 A 
ATOM      6  C   UNL     1      33.111 -14.375 -22.933  0.00  0.00    +0.066 A 
ATOM      7  C   UNL     1      32.368 -12.281 -21.949  0.00  0.00    +0.038 C 
ATOM      8  C   UNL     1      32.897 -15.036 -21.708  0.00  0.00    +0.021 C 
ATOM      9  C   UNL     1      34.035 -13.858 -26.454  0.00  0.00    +0.050 C 
ATOM     10  C   UNL     1      33.944 -16.156 -24.505  0.00  0.00    +0.264 C 
ATOM     11  C   UNL     1      32.153 -12.941 -20.737  0.00  0.00    +0.139 C 
ATOM     12  C   UNL     1      32.415 -14.300 -20.621  0.00  0.00    +0.038 C 
ENDROOT
BRANCH  10  14
ATOM     13 CL   UNL     1      36.160 -20.173 -20.660  0.00  0.00    -0.082 Cl
ATOM     14  C   UNL     1      34.490 -17.146 -23.557  0.00  0.00    +0.057 C 
ATOM     15  C   UNL     1      34.301 -18.509 -23.786  0.00  0.00    +0.006 C 
ATOM     16  C   UNL     1      35.197 -16.720 -22.432  0.00  0.00    +0.006 C 
ATOM     17  C   UNL     1      34.816 -19.445 -22.890  0.00  0.00    +0.012 C 
ATOM     18  C   UNL     1      35.713 -17.655 -21.536  0.00  0.00    +0.012 C 
ATOM     19  C   UNL     1      35.523 -19.019 -21.765  0.00  0.00    +0.058 C 
ENDBRANCH  10  14
BRANCH  11  20
ATOM     20  O   UNL     1      31.683 -12.245 -19.664  0.00  0.00    -0.471 OA
ATOM     21  C   UNL     1      31.230 -10.913 -19.903  0.00  0.00    +0.252 C 
ENDBRANCH  11  20
BRANCH   3  22
ATOM     22  C   UNL     1      33.052 -11.281 -24.970  0.00  0.00    +0.112 C 
BRANCH  22  25
ATOM     23  O   UNL     1      34.958 -10.136 -24.007  0.00  0.00    -0.275 OA
ATOM     24  N   UNL     1      32.826  -9.331 -23.558  0.00  0.00    -0.303 N 
ATOM     25  C   UNL     1      33.738 -10.206 -24.132  0.00  0.00    +0.227 C 
ATOM     26  H   UNL     1      31.866  -9.477 -23.722  0.00  0.00    +0.149 HD
BRANCH  24  27
ATOM     27  CA  UNL     1      33.222  -8.215 -22.728  0.00  0.00    +0.101 C 
BRANCH  27  28
ATOM     28  C   UNL     1      32.135  -7.886 -21.698  0.00  0.00    +0.022 C 
ATOM     29  C   UNL     1      32.708  -7.488 -20.344  0.00  0.00    +0.002 C 
ENDBRANCH  27  28
BRANCH  27  30
ATOM     30  C   UNL     1      33.523  -7.000 -23.605  0.00  0.00    +0.157 C 
BRANCH  30  31
ATOM     31  O   UNL     1      34.890  -7.027 -24.001  0.00  0.00    -0.380 OA
ATOM     32  H   UNL     1      35.402  -6.425 -23.439  0.00  0.00    +0.211 HD
ENDBRANCH  30  31
ENDBRANCH  27  30
ENDBRANCH  24  27
ENDBRANCH  22  25
ENDBRANCH   3  22
TORSDOF 8
ENDMDL
MODEL 3
REMARK VINA RESULT:      -8.7      3.546      8.422
REMARK  Name = 16741227
REMARK  8 active torsions:
REMARK  status: ('A' for Active; 'I' for Inactive)
REMARK    1  A    between atoms: C_3  and  C_22
REMARK    2  A    between atoms: C_10  and  C_14
REMARK    3  A    between atoms: C_11  and  O_20
REMARK    4  A    between atoms: C_22  and  C_25
REMARK    5  A    between atoms: N_24  and  CA_27
REMARK    6  A    between atoms: CA_27  and  C_28
REMARK    7  A    between atoms: CA_27  and  C_30
REMARK    8  A    between atoms: C_30  and  O_31
REMARK                            x       y       z     vdW  Elec       q    Type
REMARK                         _______ _______ _______ _____ _____    ______ ____
ROOT
ATOM      1  O   UNL     1      33.784 -14.263 -26.493  0.00  0.00    -0.267 OA
ATOM      2  N   UNL     1      33.584 -13.170 -24.522  0.00  0.00    -0.279 N 
ATOM      3  C   UNL     1      33.434 -10.988 -23.997  0.00  0.00    +0.001 A 
ATOM      4  C   UNL     1      32.945 -11.732 -22.898  0.00  0.00    +0.017 A 
ATOM      5  C   UNL     1      33.809 -11.881 -24.969  0.00  0.00    +0.041 A 
ATOM      6  C   UNL     1      33.038 -13.090 -23.235  0.00  0.00    +0.066 A 
ATOM      7  C   UNL     1      32.426 -11.363 -21.639  0.00  0.00    +0.038 C 
ATOM      8  C   UNL     1      32.629 -14.085 -22.328  0.00  0.00    +0.021 C 
ATOM      9  C   UNL     1      34.373 -11.559 -26.300  0.00  0.00    +0.050 C 
ATOM     10  C   UNL     1      33.835 -14.340 -25.270  0.00  0.00    +0.264 C 
ATOM     11  C   UNL     1      32.017 -12.353 -20.743  0.00  0.00    +0.139 C 
ATOM     12  C   UNL     1      32.119 -13.696 -21.085  0.00  0.00    +0.038 C 
ENDROOT
BRANCH  10  14
ATOM     13 CL   UNL     1      35.189 -19.671 -22.907  0.00  0.00    -0.082 Cl
ATOM     14  C   UNL     1      34.169 -15.655 -24.688  0.00  0.00    +0.057 C 
ATOM     15  C   UNL     1      34.795 -15.727 -23.444  0.00  0.00    +0.006 C 
ATOM     16  C   UNL     1      33.858 -16.824 -25.381  0.00  0.00    +0.006 C 
ATOM     17  C   UNL     1      35.112 -16.969 -22.894  0.00  0.00    +0.012 C 
ATOM     18  C   UNL     1      34.174 -18.066 -24.831  0.00  0.00    +0.012 C 
ATOM     19  C   UNL     1      34.800 -18.139 -23.586  0.00  0.00    +0.058 C 
ENDBRANCH  10  14
BRANCH  11  20
ATOM     20  O   UNL     1      31.515 -11.998 -19.527  0.00  0.00    -0.471 OA
ATOM     21  C   UNL     1      30.854 -10.737 -19.443  0.00  0.00    +0.252 C 
ENDBRANCH  11  20
BRANCH   3  22
ATOM     22  C   UNL     1      33.523  -9.516 -24.084  0.00  0.00    +0.112 C 
BRANCH  22  25
ATOM     23  O   UNL     1      31.202  -8.889 -23.780  0.00  0.00    -0.275 OA
ATOM     24  N   UNL     1      32.784  -8.078 -22.285  0.00  0.00    -0.303 N 
ATOM     25  C   UNL     1      32.364  -8.804 -23.392  0.00  0.00    +0.227 C 
ATOM     26  H   UNL     1      33.742  -8.076 -22.060  0.00  0.00    +0.149 HD
BRANCH  24  27
ATOM     27  CA  UNL     1      31.877  -7.325 -21.449  0.00  0.00    +0.101 C 
BRANCH  27  28
ATOM     28  C   UNL     1      32.022  -5.819 -21.702  0.00  0.00    +0.022 C 
ATOM     29  C   UNL     1      30.729  -5.177 -22.189  0.00  0.00    +0.002 C 
ENDBRANCH  27  28
BRANCH  27  30
ATOM     30  C   UNL     1      32.136  -7.654 -19.978  0.00  0.00    +0.157 C 
BRANCH  30  31
ATOM     31  O   UNL     1      33.312  -6.980 -19.542  0.00  0.00    -0.380 OA
ATOM     32  H   UNL     1      33.091  -6.069 -19.297  0.00  0.00    +0.211 HD
ENDBRANCH  30  31
ENDBRANCH  27  30
ENDBRANCH  24  27
ENDBRANCH  22  25
ENDBRANCH   3  22
TORSDOF 8
ENDMDL
MODEL 4
REMARK VINA RESULT:      -8.5      3.511      8.073
REMARK  Name = 16741227
REMARK  8 active torsions:
REMARK  status: ('A' for Active; 'I' for Inactive)
REMARK    1  A    between atoms: C_3  and  C_22
REMARK    2  A    between atoms: C_10  and  C_14
REMARK    3  A    between atoms: C_11  and  O_20
REMARK    4  A    between atoms: C_22  and  C_25
REMARK    5  A    between atoms: N_24  and  CA_27
REMARK    6  A    between atoms: CA_27  and  C_28
REMARK    7  A    between atoms: CA_27  and  C_30
REMARK    8  A    between atoms: C_30  and  O_31
REMARK                            x       y       z     vdW  Elec       q    Type
REMARK                         _______ _______ _______ _____ _____    ______ ____
ROOT
ATOM      1  O   UNL     1      34.611 -15.365 -19.641  0.00  0.00    -0.267 OA
ATOM      2  N   UNL     1      33.676 -15.106 -21.686  0.00  0.00    -0.279 N 
ATOM      3  C   UNL     1      32.461 -13.453 -22.608  0.00  0.00    +0.001 A 
ATOM      4  C   UNL     1      32.986 -14.242 -23.658  0.00  0.00    +0.017 A 
ATOM      5  C   UNL     1      32.898 -13.993 -21.425  0.00  0.00    +0.041 A 
ATOM      6  C   UNL     1      33.745 -15.267 -23.074  0.00  0.00    +0.066 A 
ATOM      7  C   UNL     1      32.881 -14.170 -25.063  0.00  0.00    +0.038 C 
ATOM      8  C   UNL     1      34.393 -16.226 -23.875  0.00  0.00    +0.021 C 
ATOM      9  C   UNL     1      32.603 -13.496 -20.060  0.00  0.00    +0.050 C 
ATOM     10  C   UNL     1      34.308 -15.898 -20.703  0.00  0.00    +0.264 C 
ATOM     11  C   UNL     1      33.529 -15.120 -25.854  0.00  0.00    +0.139 C 
ATOM     12  C   UNL     1      34.274 -16.134 -25.266  0.00  0.00    +0.038 C 
ENDROOT
BRANCH  10  14
ATOM     13 CL   UNL     1      35.577 -21.717 -21.307  0.00  0.00    -0.082 Cl
ATOM     14  C   UNL     1      34.621 -17.332 -20.853  0.00  0.00    +0.057 C 
ATOM     15  C   UNL     1      35.946 -17.748 -20.976  0.00  0.00    +0.006 C 
ATOM     16  C   UNL     1      33.591 -18.273 -20.869  0.00  0.00    +0.006 C 
ATOM     17  C   UNL     1      36.242 -19.104 -21.118  0.00  0.00    +0.012 C 
ATOM     18  C   UNL     1      33.886 -19.628 -21.010  0.00  0.00    +0.012 C 
ATOM     19  C   UNL     1      35.213 -20.044 -21.134  0.00  0.00    +0.058 C 
ENDBRANCH  10  14
BRANCH  11  20
ATOM     20  O   UNL     1      33.429 -15.051 -27.211  0.00  0.00    -0.471 OA
ATOM     21  C   UNL     1      33.400 -13.749 -27.793  0.00  0.00    +0.252 C 
ENDBRANCH  11  20
BRANCH   3  22
ATOM     22  C   UNL     1      31.601 -12.261 -22.758  0.00  0.00    +0.112 C 
BRANCH  22  25
ATOM     23  O   UNL     1      33.342 -10.752 -23.509  0.00  0.00    -0.275 OA
ATOM     24  N   UNL     1      31.881 -10.037 -21.851  0.00  0.00    -0.303 N 
ATOM     25  C   UNL     1      32.386 -10.953 -22.764  0.00  0.00    +0.227 C 
ATOM     26  H   UNL     1      31.108 -10.299 -21.300  0.00  0.00    +0.149 HD
BRANCH  24  27
ATOM     27  CA  UNL     1      32.439  -8.715 -21.672  0.00  0.00    +0.101 C 
BRANCH  27  28
ATOM     28  C   UNL     1      32.369  -8.286 -20.201  0.00  0.00    +0.022 C 
ATOM     29  C   UNL     1      31.936  -9.416 -19.277  0.00  0.00    +0.002 C 
ENDBRANCH  27  28
BRANCH  27  30
ATOM     30  C   UNL     1      31.701  -7.717 -22.563  0.00  0.00    +0.157 C 
BRANCH  30  31
ATOM     31  O   UNL     1      32.283  -7.720 -23.862  0.00  0.00    -0.380 OA
ATOM     32  H   UNL     1      33.058  -8.302 -23.868  0.00  0.00    +0.211 HD
ENDBRANCH  30  31
ENDBRANCH  27  30
ENDBRANCH  24  27
ENDBRANCH  22  25
ENDBRANCH   3  22
TORSDOF 8
ENDMDL
MODEL 5
REMARK VINA RESULT:      -8.4      3.507      8.861
REMARK  Name = 16741227
REMARK  8 active torsions:
REMARK  status: ('A' for Active; 'I' for Inactive)
REMARK    1  A    between atoms: C_3  and  C_22
REMARK    2  A    between atoms: C_10  and  C_14
REMARK    3  A    between atoms: C_11  and  O_20
REMARK    4  A    between atoms: C_22  and  C_25
REMARK    5  A    between atoms: N_24  and  CA_27
REMARK    6  A    between atoms: CA_27  and  C_28
REMARK    7  A    between atoms: CA_27  and  C_30
REMARK    8  A    between atoms: C_30  and  O_31
REMARK                            x       y       z     vdW  Elec       q    Type
REMARK                         _______ _______ _______ _____ _____    ______ ____
ROOT
ATOM      1  O   UNL     1      34.039 -13.179 -25.691  0.00  0.00    -0.267 OA
ATOM      2  N   UNL     1      33.516 -11.951 -23.863  0.00  0.00    -0.279 N 
ATOM      3  C   UNL     1      33.316  -9.738 -23.519  0.00  0.00    +0.001 A 
ATOM      4  C   UNL     1      32.628 -10.401 -22.476  0.00  0.00    +0.017 A 
ATOM      5  C   UNL     1      33.839 -10.698 -24.348  0.00  0.00    +0.041 A 
ATOM      6  C   UNL     1      32.754 -11.779 -22.701  0.00  0.00    +0.066 A 
ATOM      7  C   UNL     1      31.903  -9.943 -21.356  0.00  0.00    +0.038 C 
ATOM      8  C   UNL     1      32.174 -12.707 -21.816  0.00  0.00    +0.021 C 
ATOM      9  C   UNL     1      34.634 -10.471 -25.578  0.00  0.00    +0.050 C 
ATOM     10  C   UNL     1      33.873 -13.172 -24.475  0.00  0.00    +0.264 C 
ATOM     11  C   UNL     1      31.325 -10.867 -20.483  0.00  0.00    +0.139 C 
ATOM     12  C   UNL     1      31.461 -12.230 -20.711  0.00  0.00    +0.038 C 
ENDROOT
BRANCH  10  14
ATOM     13 CL   UNL     1      34.703 -18.336 -21.564  0.00  0.00    -0.082 Cl
ATOM     14  C   UNL     1      34.077 -14.445 -23.757  0.00  0.00    +0.057 C 
ATOM     15  C   UNL     1      33.895 -15.657 -24.422  0.00  0.00    +0.006 C 
ATOM     16  C   UNL     1      34.454 -14.436 -22.414  0.00  0.00    +0.006 C 
ATOM     17  C   UNL     1      34.088 -16.861 -23.744  0.00  0.00    +0.012 C 
ATOM     18  C   UNL     1      34.647 -15.638 -21.735  0.00  0.00    +0.012 C 
ATOM     19  C   UNL     1      34.465 -16.852 -22.401  0.00  0.00    +0.058 C 
ENDBRANCH  10  14
BRANCH  11  20
ATOM     20  O   UNL     1      30.624 -10.425 -19.401  0.00  0.00    -0.471 OA
ATOM     21  C   UNL     1      31.165 -10.721 -18.114  0.00  0.00    +0.252 C 
ENDBRANCH  11  20
BRANCH   3  22
ATOM     22  C   UNL     1      33.445  -8.275 -23.688  0.00  0.00    +0.112 C 
BRANCH  22  25
ATOM     23  O   UNL     1      31.108  -8.114 -24.306  0.00  0.00    -0.275 OA
ATOM     24  N   UNL     1      32.143  -6.265 -23.356  0.00  0.00    -0.303 N 
ATOM     25  C   UNL     1      32.101  -7.568 -23.833  0.00  0.00    +0.227 C 
ATOM     26  H   UNL     1      32.992  -5.923 -22.995  0.00  0.00    +0.149 HD
BRANCH  24  27
ATOM     27  CA  UNL     1      30.995  -5.386 -23.366  0.00  0.00    +0.101 C 
BRANCH  27  28
ATOM     28  C   UNL     1      31.347  -4.032 -23.993  0.00  0.00    +0.022 C 
ATOM     29  C   UNL     1      31.819  -4.155 -25.437  0.00  0.00    +0.002 C 
ENDBRANCH  27  28
BRANCH  27  30
ATOM     30  C   UNL     1      30.470  -5.203 -21.942  0.00  0.00    +0.157 C 
BRANCH  30  31
ATOM     31  O   UNL     1      31.516  -5.471 -21.014  0.00  0.00    -0.380 OA
ATOM     32  H   UNL     1      32.373  -5.380 -21.457  0.00  0.00    +0.211 HD
ENDBRANCH  30  31
ENDBRANCH  27  30
ENDBRANCH  24  27
ENDBRANCH  22  25
ENDBRANCH   3  22
TORSDOF 8
ENDMDL
MODEL 6
REMARK VINA RESULT:      -8.4      3.336      7.838
REMARK  Name = 16741227
REMARK  8 active torsions:
REMARK  status: ('A' for Active; 'I' for Inactive)
REMARK    1  A    between atoms: C_3  and  C_22
REMARK    2  A    between atoms: C_10  and  C_14
REMARK    3  A    between atoms: C_11  and  O_20
REMARK    4  A    between atoms: C_22  and  C_25
REMARK    5  A    between atoms: N_24  and  CA_27
REMARK    6  A    between atoms: CA_27  and  C_28
REMARK    7  A    between atoms: CA_27  and  C_30
REMARK    8  A    between atoms: C_30  and  O_31
REMARK                            x       y       z     vdW  Elec       q    Type
REMARK                         _______ _______ _______ _____ _____    ______ ____
ROOT
ATOM      1  O   UNL     1      34.549 -15.321 -19.613  0.00  0.00    -0.267 OA
ATOM      2  N   UNL     1      33.618 -15.035 -21.656  0.00  0.00    -0.279 N 
ATOM      3  C   UNL     1      32.401 -13.372 -22.558  0.00  0.00    +0.001 A 
ATOM      4  C   UNL     1      32.930 -14.145 -23.618  0.00  0.00    +0.017 A 
ATOM      5  C   UNL     1      32.836 -13.928 -21.381  0.00  0.00    +0.041 A 
ATOM      6  C   UNL     1      33.690 -15.175 -23.047  0.00  0.00    +0.066 A 
ATOM      7  C   UNL     1      32.828 -14.052 -25.022  0.00  0.00    +0.038 C 
ATOM      8  C   UNL     1      34.342 -16.121 -23.860  0.00  0.00    +0.021 C 
ATOM      9  C   UNL     1      32.537 -13.452 -20.010  0.00  0.00    +0.050 C 
ATOM     10  C   UNL     1      34.250 -15.839 -20.684  0.00  0.00    +0.264 C 
ATOM     11  C   UNL     1      33.481 -14.989 -25.825  0.00  0.00    +0.139 C 
ATOM     12  C   UNL     1      34.226 -16.010 -25.250  0.00  0.00    +0.038 C 
ENDROOT
BRANCH  10  14
ATOM     13 CL   UNL     1      35.536 -21.645 -21.370  0.00  0.00    -0.082 Cl
ATOM     14  C   UNL     1      34.567 -17.271 -20.854  0.00  0.00    +0.057 C 
ATOM     15  C   UNL     1      35.894 -17.681 -20.981  0.00  0.00    +0.006 C 
ATOM     16  C   UNL     1      33.539 -18.214 -20.885  0.00  0.00    +0.006 C 
ATOM     17  C   UNL     1      36.193 -19.034 -21.141  0.00  0.00    +0.012 C 
ATOM     18  C   UNL     1      33.838 -19.566 -21.045  0.00  0.00    +0.012 C 
ATOM     19  C   UNL     1      35.166 -19.977 -21.173  0.00  0.00    +0.058 C 
ENDBRANCH  10  14
BRANCH  11  20
ATOM     20  O   UNL     1      33.384 -14.900 -27.181  0.00  0.00    -0.471 OA
ATOM     21  C   UNL     1      33.445 -13.594 -27.751  0.00  0.00    +0.252 C 
ENDBRANCH  11  20
BRANCH   3  22
ATOM     22  C   UNL     1      31.537 -12.180 -22.692  0.00  0.00    +0.112 C 
BRANCH  22  25
ATOM     23  O   UNL     1      32.198 -10.254 -21.378  0.00  0.00    -0.275 OA
ATOM     24  N   UNL     1      33.053 -10.490 -23.525  0.00  0.00    -0.303 N 
ATOM     25  C   UNL     1      32.280 -10.871 -22.437  0.00  0.00    +0.227 C 
ATOM     26  H   UNL     1      33.047 -11.058 -24.329  0.00  0.00    +0.149 HD
BRANCH  24  27
ATOM     27  CA  UNL     1      33.864  -9.293 -23.533  0.00  0.00    +0.101 C 
BRANCH  27  28
ATOM     28  C   UNL     1      33.031  -8.069 -23.936  0.00  0.00    +0.022 C 
ATOM     29  C   UNL     1      33.888  -6.845 -24.231  0.00  0.00    +0.002 C 
ENDBRANCH  27  28
BRANCH  27  30
ATOM     30  C   UNL     1      35.049  -9.478 -24.480  0.00  0.00    +0.157 C 
BRANCH  30  31
ATOM     31  O   UNL     1      35.101 -10.831 -24.917  0.00  0.00    -0.380 OA
ATOM     32  H   UNL     1      35.202 -11.415 -24.150  0.00  0.00    +0.211 HD
ENDBRANCH  30  31
ENDBRANCH  27  30
ENDBRANCH  24  27
ENDBRANCH  22  25
ENDBRANCH   3  22
TORSDOF 8
ENDMDL
MODEL 7
REMARK VINA RESULT:      -8.3      1.996      3.692
REMARK  Name = 16741227
REMARK  8 active torsions:
REMARK  status: ('A' for Active; 'I' for Inactive)
REMARK    1  A    between atoms: C_3  and  C_22
REMARK    2  A    between atoms: C_10  and  C_14
REMARK    3  A    between atoms: C_11  and  O_20
REMARK    4  A    between atoms: C_22  and  C_25
REMARK    5  A    between atoms: N_24  and  CA_27
REMARK    6  A    between atoms: CA_27  and  C_28
REMARK    7  A    between atoms: CA_27  and  C_30
REMARK    8  A    between atoms: C_30  and  O_31
REMARK                            x       y       z     vdW  Elec       q    Type
REMARK                         _______ _______ _______ _____ _____    ______ ____
ROOT
ATOM      1  O   UNL     1      34.674 -10.292 -25.501  0.00  0.00    -0.267 OA
ATOM      2  N   UNL     1      33.576 -11.944 -24.410  0.00  0.00    -0.279 N 
ATOM      3  C   UNL     1      33.269 -14.126 -24.860  0.00  0.00    +0.001 A 
ATOM      4  C   UNL     1      33.021 -13.929 -23.481  0.00  0.00    +0.017 A 
ATOM      5  C   UNL     1      33.610 -12.910 -25.398  0.00  0.00    +0.041 A 
ATOM      6  C   UNL     1      33.219 -12.568 -23.209  0.00  0.00    +0.066 A 
ATOM      7  C   UNL     1      32.646 -14.799 -22.436  0.00  0.00    +0.038 C 
ATOM      8  C   UNL     1      33.037 -12.062 -21.908  0.00  0.00    +0.021 C 
ATOM      9  C   UNL     1      33.960 -12.632 -26.810  0.00  0.00    +0.050 C 
ATOM     10  C   UNL     1      33.891 -10.581 -24.602  0.00  0.00    +0.264 C 
ATOM     11  C   UNL     1      32.471 -14.294 -21.146  0.00  0.00    +0.139 C 
ATOM     12  C   UNL     1      32.663 -12.943 -20.888  0.00  0.00    +0.038 C 
ENDROOT
BRANCH  10  14
ATOM     13 CL   UNL     1      31.632  -6.077 -21.371  0.00  0.00    -0.082 Cl
ATOM     14  C   UNL     1      33.334  -9.470 -23.806  0.00  0.00    +0.057 C 
ATOM     15  C   UNL     1      31.956  -9.367 -23.621  0.00  0.00    +0.006 C 
ATOM     16  C   UNL     1      34.186  -8.524 -23.237  0.00  0.00    +0.006 C 
ATOM     17  C   UNL     1      31.429  -8.318 -22.868  0.00  0.00    +0.012 C 
ATOM     18  C   UNL     1      33.661  -7.474 -22.485  0.00  0.00    +0.012 C 
ATOM     19  C   UNL     1      32.281  -7.371 -22.299  0.00  0.00    +0.058 C 
ENDBRANCH  10  14
BRANCH  11  20
ATOM     20  O   UNL     1      32.108 -15.134 -20.136  0.00  0.00    -0.471 OA
ATOM     21  C   UNL     1      31.891 -16.502 -20.477  0.00  0.00    +0.252 C 
ENDBRANCH  11  20
BRANCH   3  22
ATOM     22  C   UNL     1      33.182 -15.409 -25.589  0.00  0.00    +0.112 C 
BRANCH  22  25
ATOM     23  O   UNL     1      35.231 -16.621 -26.039  0.00  0.00    -0.275 OA
ATOM     24  N   UNL     1      34.206 -16.886 -23.971  0.00  0.00    -0.303 N 
ATOM     25  C   UNL     1      34.322 -16.367 -25.253  0.00  0.00    +0.227 C 
ATOM     26  H   UNL     1      33.435 -16.616 -23.422  0.00  0.00    +0.149 HD
BRANCH  24  27
ATOM     27  CA  UNL     1      35.166 -17.808 -23.407  0.00  0.00    +0.101 C 
BRANCH  27  28
ATOM     28  C   UNL     1      34.647 -19.250 -23.475  0.00  0.00    +0.022 C 
ATOM     29  C   UNL     1      34.883 -19.898 -24.833  0.00  0.00    +0.002 C 
ENDBRANCH  27  28
BRANCH  27  30
ATOM     30  C   UNL     1      35.477 -17.412 -21.964  0.00  0.00    +0.157 C 
BRANCH  30  31
ATOM     31  O   UNL     1      36.254 -18.434 -21.349  0.00  0.00    -0.380 OA
ATOM     32  H   UNL     1      36.719 -18.942 -22.030  0.00  0.00    +0.211 HD
ENDBRANCH  30  31
ENDBRANCH  27  30
ENDBRANCH  24  27
ENDBRANCH  22  25
ENDBRANCH   3  22
TORSDOF 8
ENDMDL
MODEL 8
REMARK VINA RESULT:      -7.8      1.802      3.993
REMARK  Name = 16741227
REMARK  8 active torsions:
REMARK  status: ('A' for Active; 'I' for Inactive)
REMARK    1  A    between atoms: C_3  and  C_22
REMARK    2  A    between atoms: C_10  and  C_14
REMARK    3  A    between atoms: C_11  and  O_20
REMARK    4  A    between atoms: C_22  and  C_25
REMARK    5  A    between atoms: N_24  and  CA_27
REMARK    6  A    between atoms: CA_27  and  C_28
REMARK    7  A    between atoms: CA_27  and  C_30
REMARK    8  A    between atoms: C_30  and  O_31
REMARK                            x       y       z     vdW  Elec       q    Type
REMARK                         _______ _______ _______ _____ _____    ______ ____
ROOT
ATOM      1  O   UNL     1      34.393 -10.106 -24.732  0.00  0.00    -0.267 OA
ATOM      2  N   UNL     1      32.986 -10.746 -23.078  0.00  0.00    -0.279 N 
ATOM      3  C   UNL     1      32.487 -12.753 -22.192  0.00  0.00    +0.001 A 
ATOM      4  C   UNL     1      32.095 -11.760 -21.263  0.00  0.00    +0.017 A 
ATOM      5  C   UNL     1      33.029 -12.114 -23.279  0.00  0.00    +0.041 A 
ATOM      6  C   UNL     1      32.414 -10.514 -21.821  0.00  0.00    +0.066 A 
ATOM      7  C   UNL     1      31.496 -11.818 -19.988  0.00  0.00    +0.038 C 
ATOM      8  C   UNL     1      32.133  -9.323 -21.126  0.00  0.00    +0.021 C 
ATOM      9  C   UNL     1      33.580 -12.749 -24.499  0.00  0.00    +0.050 C 
ATOM     10  C   UNL     1      33.477  -9.781 -23.983  0.00  0.00    +0.264 C 
ATOM     11  C   UNL     1      31.224 -10.634 -19.298  0.00  0.00    +0.139 C 
ATOM     12  C   UNL     1      31.538  -9.404 -19.863  0.00  0.00    +0.038 C 
ENDROOT
BRANCH  10  14
ATOM     13 CL   UNL     1      31.375  -4.198 -24.479  0.00  0.00    -0.082 Cl
ATOM     14  C   UNL     1      32.959  -8.404 -24.106  0.00  0.00    +0.057 C 
ATOM     15  C   UNL     1      31.584  -8.181 -24.182  0.00  0.00    +0.006 C 
ATOM     16  C   UNL     1      33.844  -7.326 -24.144  0.00  0.00    +0.006 C 
ATOM     17  C   UNL     1      31.094  -6.880 -24.298  0.00  0.00    +0.012 C 
ATOM     18  C   UNL     1      33.354  -6.026 -24.261  0.00  0.00    +0.012 C 
ATOM     19  C   UNL     1      31.979  -5.803 -24.337  0.00  0.00    +0.058 C 
ENDBRANCH  10  14
BRANCH  11  20
ATOM     20  O   UNL     1      30.645 -10.688 -18.066  0.00  0.00    -0.471 OA
ATOM     21  C   UNL     1      31.321 -11.450 -17.066  0.00  0.00    +0.252 C 
ENDBRANCH  11  20
BRANCH   3  22
ATOM     22  C   UNL     1      32.342 -14.214 -22.023  0.00  0.00    +0.112 C 
BRANCH  22  25
ATOM     23  O   UNL     1      34.554 -14.608 -21.114  0.00  0.00    -0.275 OA
ATOM     24  N   UNL     1      33.771 -16.004 -22.797  0.00  0.00    -0.303 N 
ATOM     25  C   UNL     1      33.680 -14.939 -21.912  0.00  0.00    +0.227 C 
ATOM     26  H   UNL     1      33.011 -16.184 -23.396  0.00  0.00    +0.149 HD
BRANCH  24  27
ATOM     27  CA  UNL     1      34.932 -16.861 -22.880  0.00  0.00    +0.101 C 
BRANCH  27  28
ATOM     28  C   UNL     1      35.075 -17.455 -24.287  0.00  0.00    +0.022 C 
ATOM     29  C   UNL     1      34.629 -18.910 -24.360  0.00  0.00    +0.002 C 
ENDBRANCH  27  28
BRANCH  27  30
ATOM     30  C   UNL     1      34.835 -17.968 -21.831  0.00  0.00    +0.157 C 
BRANCH  30  31
ATOM     31  O   UNL     1      35.427 -17.524 -20.616  0.00  0.00    -0.380 OA
ATOM     32  H   UNL     1      35.139 -18.094 -19.887  0.00  0.00    +0.211 HD
ENDBRANCH  30  31
ENDBRANCH  27  30
ENDBRANCH  24  27
ENDBRANCH  22  25
ENDBRANCH   3  22
TORSDOF 8
ENDMDL
MODEL 9
REMARK VINA RESULT:      -7.3      2.354      3.769
REMARK  Name = 16741227
REMARK  8 active torsions:
REMARK  status: ('A' for Active; 'I' for Inactive)
REMARK    1  A    between atoms: C_3  and  C_22
REMARK    2  A    between atoms: C_10  and  C_14
REMARK    3  A    between atoms: C_11  and  O_20
REMARK    4  A    between atoms: C_22  and  C_25
REMARK    5  A    between atoms: N_24  and  CA_27
REMARK    6  A    between atoms: CA_27  and  C_28
REMARK    7  A    between atoms: CA_27  and  C_30
REMARK    8  A    between atoms: C_30  and  O_31
REMARK                            x       y       z     vdW  Elec       q    Type
REMARK                         _______ _______ _______ _____ _____    ______ ____
ROOT
ATOM      1  O   UNL     1      32.494 -14.318 -19.673  0.00  0.00    -0.267 OA
ATOM      2  N   UNL     1      33.408 -14.617 -21.721  0.00  0.00    -0.279 N 
ATOM      3  C   UNL     1      34.695 -16.243 -22.594  0.00  0.00    +0.001 A 
ATOM      4  C   UNL     1      34.111 -15.530 -23.667  0.00  0.00    +0.017 A 
ATOM      5  C   UNL     1      34.249 -15.675 -21.427  0.00  0.00    +0.041 A 
ATOM      6  C   UNL     1      33.307 -14.523 -23.114  0.00  0.00    +0.066 A 
ATOM      7  C   UNL     1      34.196 -15.661 -25.069  0.00  0.00    +0.038 C 
ATOM      8  C   UNL     1      32.595 -13.636 -23.944  0.00  0.00    +0.021 C 
ATOM      9  C   UNL     1      34.593 -16.093 -20.047  0.00  0.00    +0.050 C 
ATOM     10  C   UNL     1      32.750 -13.817 -20.763  0.00  0.00    +0.264 C 
ATOM     11  C   UNL     1      33.484 -14.782 -25.889  0.00  0.00    +0.139 C 
ATOM     12  C   UNL     1      32.696 -13.784 -25.331  0.00  0.00    +0.038 C 
ENDROOT
BRANCH  10  14
ATOM     13 CL   UNL     1      31.162  -8.106 -21.600  0.00  0.00    -0.082 Cl
ATOM     14  C   UNL     1      32.358 -12.409 -20.970  0.00  0.00    +0.057 C 
ATOM     15  C   UNL     1      31.700 -11.713 -19.956  0.00  0.00    +0.006 C 
ATOM     16  C   UNL     1      32.647 -11.775 -22.178  0.00  0.00    +0.006 C 
ATOM     17  C   UNL     1      31.329 -10.382 -20.151  0.00  0.00    +0.012 C 
ATOM     18  C   UNL     1      32.277 -10.445 -22.373  0.00  0.00    +0.012 C 
ATOM     19  C   UNL     1      31.619  -9.748 -21.359  0.00  0.00    +0.058 C 
ENDBRANCH  10  14
BRANCH  11  20
ATOM     20  O   UNL     1      33.566 -14.907 -27.243  0.00  0.00    -0.471 OA
ATOM     21  C   UNL     1      33.870 -13.727 -27.985  0.00  0.00    +0.252 C 
ENDBRANCH  11  20
BRANCH   3  22
ATOM     22  C   UNL     1      35.616 -17.393 -22.707  0.00  0.00    +0.112 C 
BRANCH  22  25
ATOM     23  O   UNL     1      34.190 -19.250 -23.331  0.00  0.00    -0.275 OA
ATOM     24  N   UNL     1      35.244 -19.296 -21.261  0.00  0.00    -0.303 N 
ATOM     25  C   UNL     1      34.926 -18.736 -22.492  0.00  0.00    +0.227 C 
ATOM     26  H   UNL     1      35.845 -18.799 -20.661  0.00  0.00    +0.149 HD
BRANCH  24  27
ATOM     27  CA  UNL     1      34.729 -20.573 -20.822  0.00  0.00    +0.101 C 
BRANCH  27  28
ATOM     28  C   UNL     1      33.338 -20.417 -20.196  0.00  0.00    +0.022 C 
ATOM     29  C   UNL     1      33.007 -21.529 -19.209  0.00  0.00    +0.002 C 
ENDBRANCH  27  28
BRANCH  27  30
ATOM     30  C   UNL     1      35.702 -21.208 -19.828  0.00  0.00    +0.157 C 
BRANCH  30  31
ATOM     31  O   UNL     1      36.677 -20.247 -19.439  0.00  0.00    -0.380 OA
ATOM     32  H   UNL     1      37.537 -20.486 -19.815  0.00  0.00    +0.211 HD
ENDBRANCH  30  31
ENDBRANCH  27  30
ENDBRANCH  24  27
ENDBRANCH  22  25
ENDBRANCH   3  22
TORSDOF 8
ENDMDL
