MODEL 1
REMARK VINA RESULT:     -10.5      0.000      0.000
REMARK  Name = 24741808
REMARK  3 active torsions:
REMARK  status: ('A' for Active; 'I' for Inactive)
REMARK    1  A    between atoms: N_4  and  C_13
REMARK    2  A    between atoms: N_4  and  C_23
REMARK    3  A    between atoms: C_23  and  C_25
REMARK                            x       y       z     vdW  Elec       q    Type
REMARK                         _______ _______ _______ _____ _____    ______ ____
ROOT
ATOM      1  O   UNL     1      36.669 -22.268 -17.852  0.00  0.00    -0.209 OA
ATOM      2  N   UNL     1      36.089 -18.954 -21.889  0.00  0.00    -0.305 N 
ATOM      3  N   UNL     1      33.923 -18.856 -22.375  0.00  0.00    -0.305 N 
ATOM      4  N   UNL     1      32.777 -22.051 -18.774  0.00  0.00    -0.275 N 
ATOM      5  N   UNL     1      34.523 -22.940 -17.422  0.00  0.00    -0.302 NA
ATOM      6  N   UNL     1      32.280 -23.536 -17.098  0.00  0.00    -0.320 N 
ATOM      7  C   UNL     1      35.475 -19.795 -20.995  0.00  0.00    +0.061 C 
ATOM      8  C   UNL     1      34.124 -19.715 -21.319  0.00  0.00    +0.061 C 
ATOM      9  C   UNL     1      33.661 -21.283 -19.537  0.00  0.00    +0.064 C 
ATOM     10  C   UNL     1      35.032 -21.336 -19.241  0.00  0.00    +0.110 C 
ATOM     11  C   UNL     1      35.975 -20.591 -19.964  0.00  0.00    +0.030 C 
ATOM     12  C   UNL     1      35.121 -18.418 -22.691  0.00  0.00    +0.208 C 
ATOM     13  C   UNL     1      33.195 -20.469 -20.582  0.00  0.00    +0.031 C 
ATOM     14  C   UNL     1      35.473 -22.216 -18.120  0.00  0.00    +0.208 C 
ATOM     15  C   UNL     1      33.263 -22.840 -17.755  0.00  0.00    +0.248 C 
ATOM     16  H   UNL     1      37.055 -18.771 -21.942  0.00  0.00    +0.150 HD
ATOM     17  H   UNL     1      33.067 -18.620 -22.802  0.00  0.00    +0.150 HD
ATOM     18  H   UNL     1      31.812 -22.029 -18.964  0.00  0.00    +0.156 HD
ATOM     19  H   UNL     1      31.340 -23.439 -17.373  0.00  0.00    +0.146 HD
ATOM     20  H   UNL     1      32.515 -24.133 -16.351  0.00  0.00    +0.146 HD
ENDROOT
BRANCH  12  21
ATOM     21  N   UNL     1      35.498 -17.552 -23.658  0.00  0.00    -0.262 NA
ATOM     22  H   UNL     1      36.324 -17.036 -23.514  0.00  0.00    +0.127 HD
BRANCH  21  23
ATOM     23  C   UNL     1      34.768 -17.330 -24.894  0.00  0.00    +0.105 C 
BRANCH  23  25
ATOM     24  S   UNL     1      34.118 -14.947 -23.618  0.00  0.00    -0.089 S 
ATOM     25  C   UNL     1      34.068 -16.000 -24.967  0.00  0.00    +0.023 C 
ATOM     26  C   UNL     1      33.348 -15.467 -26.013  0.00  0.00    +0.004 C 
ATOM     27  C   UNL     1      32.832 -14.176 -25.704  0.00  0.00    +0.007 C 
ATOM     28  C   UNL     1      33.176 -13.771 -24.433  0.00  0.00    +0.035 C 
ENDBRANCH  23  25
ENDBRANCH  21  23
ENDBRANCH  12  21
TORSDOF 3
ENDMDL
MODEL 2
REMARK VINA RESULT:     -10.1      4.968      7.118
REMARK  Name = 24741808
REMARK  3 active torsions:
REMARK  status: ('A' for Active; 'I' for Inactive)
REMARK    1  A    between atoms: N_4  and  C_13
REMARK    2  A    between atoms: N_4  and  C_23
REMARK    3  A    between atoms: C_23  and  C_25
REMARK                            x       y       z     vdW  Elec       q    Type
REMARK                         _______ _______ _______ _____ _____    ______ ____
ROOT
ATOM      1  O   UNL     1      34.950 -17.282 -24.685  0.00  0.00    -0.209 OA
ATOM      2  N   UNL     1      32.196 -13.164 -22.936  0.00  0.00    -0.305 N 
ATOM      3  N   UNL     1      32.332 -13.154 -20.718  0.00  0.00    -0.305 N 
ATOM      4  N   UNL     1      35.162 -17.214 -20.686  0.00  0.00    -0.275 N 
ATOM      5  N   UNL     1      35.737 -18.235 -22.758  0.00  0.00    -0.302 NA
ATOM      6  N   UNL     1      36.470 -19.098 -20.706  0.00  0.00    -0.320 N 
ATOM      7  C   UNL     1      32.972 -14.248 -22.612  0.00  0.00    +0.061 C 
ATOM      8  C   UNL     1      33.042 -14.219 -21.223  0.00  0.00    +0.061 C 
ATOM      9  C   UNL     1      34.419 -16.205 -21.307  0.00  0.00    +0.064 C 
ATOM     10  C   UNL     1      34.324 -16.200 -22.707  0.00  0.00    +0.110 C 
ATOM     11  C   UNL     1      33.597 -15.219 -23.396  0.00  0.00    +0.030 C 
ATOM     12  C   UNL     1      31.839 -12.543 -21.771  0.00  0.00    +0.208 C 
ATOM     13  C   UNL     1      33.777 -15.211 -20.552  0.00  0.00    +0.031 C 
ATOM     14  C   UNL     1      35.026 -17.279 -23.461  0.00  0.00    +0.208 C 
ATOM     15  C   UNL     1      35.781 -18.175 -21.453  0.00  0.00    +0.248 C 
ATOM     16  H   UNL     1      31.942 -12.883 -23.845  0.00  0.00    +0.150 HD
ATOM     17  H   UNL     1      32.219 -12.903 -19.773  0.00  0.00    +0.150 HD
ATOM     18  H   UNL     1      35.242 -17.237 -19.706  0.00  0.00    +0.156 HD
ATOM     19  H   UNL     1      36.483 -19.026 -19.725  0.00  0.00    +0.146 HD
ATOM     20  H   UNL     1      36.951 -19.832 -21.153  0.00  0.00    +0.146 HD
ENDROOT
BRANCH  12  21
ATOM     21  N   UNL     1      31.063 -11.438 -21.846  0.00  0.00    -0.262 NA
ATOM     22  H   UNL     1      30.226 -11.431 -21.328  0.00  0.00    +0.127 HD
BRANCH  21  23
ATOM     23  C   UNL     1      31.380 -10.263 -22.637  0.00  0.00    +0.105 C 
BRANCH  23  25
ATOM     24  S   UNL     1      31.600  -7.493 -22.523  0.00  0.00    -0.089 S 
ATOM     25  C   UNL     1      31.741  -9.050 -21.823  0.00  0.00    +0.023 C 
ATOM     26  C   UNL     1      32.196  -8.994 -20.524  0.00  0.00    +0.004 C 
ATOM     27  C   UNL     1      32.431  -7.655 -20.097  0.00  0.00    +0.007 C 
ATOM     28  C   UNL     1      32.147  -6.738 -21.086  0.00  0.00    +0.035 C 
ENDBRANCH  23  25
ENDBRANCH  21  23
ENDBRANCH  12  21
TORSDOF 3
ENDMDL
MODEL 3
REMARK VINA RESULT:     -10.1      1.573      2.463
REMARK  Name = 24741808
REMARK  3 active torsions:
REMARK  status: ('A' for Active; 'I' for Inactive)
REMARK    1  A    between atoms: N_4  and  C_13
REMARK    2  A    between atoms: N_4  and  C_23
REMARK    3  A    between atoms: C_23  and  C_25
REMARK                            x       y       z     vdW  Elec       q    Type
REMARK                         _______ _______ _______ _____ _____    ______ ____
ROOT
ATOM      1  O   UNL     1      32.994 -22.297 -19.233  0.00  0.00    -0.209 OA
ATOM      2  N   UNL     1      34.401 -18.848 -22.940  0.00  0.00    -0.305 N 
ATOM      3  N   UNL     1      36.491 -18.223 -22.522  0.00  0.00    -0.305 N 
ATOM      4  N   UNL     1      36.761 -21.134 -18.528  0.00  0.00    -0.275 N 
ATOM      5  N   UNL     1      34.867 -22.443 -17.925  0.00  0.00    -0.302 NA
ATOM      6  N   UNL     1      36.853 -22.491 -16.681  0.00  0.00    -0.320 N 
ATOM      7  C   UNL     1      34.770 -19.537 -21.813  0.00  0.00    +0.061 C 
ATOM      8  C   UNL     1      36.079 -19.131 -21.573  0.00  0.00    +0.061 C 
ATOM      9  C   UNL     1      36.116 -20.581 -19.638  0.00  0.00    +0.064 C 
ATOM     10  C   UNL     1      34.796 -20.967 -19.914  0.00  0.00    +0.110 C 
ATOM     11  C   UNL     1      34.088 -20.453 -21.011  0.00  0.00    +0.030 C 
ATOM     12  C   UNL     1      35.462 -18.077 -23.325  0.00  0.00    +0.208 C 
ATOM     13  C   UNL     1      36.770 -19.657 -20.468  0.00  0.00    +0.031 C 
ATOM     14  C   UNL     1      34.148 -21.952 -19.000  0.00  0.00    +0.208 C 
ATOM     15  C   UNL     1      36.095 -22.038 -17.732  0.00  0.00    +0.248 C 
ATOM     16  H   UNL     1      33.527 -18.900 -23.391  0.00  0.00    +0.150 HD
ATOM     17  H   UNL     1      37.369 -17.779 -22.585  0.00  0.00    +0.150 HD
ATOM     18  H   UNL     1      37.688 -20.877 -18.316  0.00  0.00    +0.156 HD
ATOM     19  H   UNL     1      37.774 -22.166 -16.563  0.00  0.00    +0.146 HD
ATOM     20  H   UNL     1      36.474 -23.142 -16.046  0.00  0.00    +0.146 HD
ENDROOT
BRANCH  12  21
ATOM     21  N   UNL     1      35.326 -17.303 -24.424  0.00  0.00    -0.262 NA
ATOM     22  H   UNL     1      36.134 -17.115 -24.954  0.00  0.00    +0.127 HD
BRANCH  21  23
ATOM     23  C   UNL     1      34.071 -16.729 -24.876  0.00  0.00    +0.105 C 
BRANCH  23  25
ATOM     24  S   UNL     1      33.095 -14.219 -25.569  0.00  0.00    -0.089 S 
ATOM     25  C   UNL     1      33.873 -15.290 -24.483  0.00  0.00    +0.023 C 
ATOM     26  C   UNL     1      34.244 -14.663 -23.314  0.00  0.00    +0.004 C 
ATOM     27  C   UNL     1      33.884 -13.284 -23.310  0.00  0.00    +0.007 C 
ATOM     28  C   UNL     1      33.251 -12.910 -24.475  0.00  0.00    +0.035 C 
ENDBRANCH  23  25
ENDBRANCH  21  23
ENDBRANCH  12  21
TORSDOF 3
ENDMDL
MODEL 4
REMARK VINA RESULT:     -10.0      3.774      8.364
REMARK  Name = 24741808
REMARK  3 active torsions:
REMARK  status: ('A' for Active; 'I' for Inactive)
REMARK    1  A    between atoms: N_4  and  C_13
REMARK    2  A    between atoms: N_4  and  C_23
REMARK    3  A    between atoms: C_23  and  C_25
REMARK                            x       y       z     vdW  Elec       q    Type
REMARK                         _______ _______ _______ _____ _____    ______ ____
ROOT
ATOM      1  O   UNL     1      37.879 -19.353 -21.010  0.00  0.00    -0.209 OA
ATOM      2  N   UNL     1      34.761 -22.495 -18.179  0.00  0.00    -0.305 N 
ATOM      3  N   UNL     1      32.663 -22.096 -18.794  0.00  0.00    -0.305 N 
ATOM      4  N   UNL     1      34.079 -18.676 -22.079  0.00  0.00    -0.275 N 
ATOM      5  N   UNL     1      36.398 -18.197 -22.318  0.00  0.00    -0.302 NA
ATOM      6  N   UNL     1      34.768 -17.094 -23.591  0.00  0.00    -0.320 N 
ATOM      7  C   UNL     1      34.841 -21.524 -19.144  0.00  0.00    +0.061 C 
ATOM      8  C   UNL     1      33.519 -21.293 -19.512  0.00  0.00    +0.061 C 
ATOM      9  C   UNL     1      34.306 -19.638 -21.090  0.00  0.00    +0.064 C 
ATOM     10  C   UNL     1      35.625 -19.900 -20.692  0.00  0.00    +0.110 C 
ATOM     11  C   UNL     1      35.927 -20.851 -19.707  0.00  0.00    +0.030 C 
ATOM     12  C   UNL     1      33.440 -22.803 -18.005  0.00  0.00    +0.208 C 
ATOM     13  C   UNL     1      33.239 -20.335 -20.502  0.00  0.00    +0.031 C 
ATOM     14  C   UNL     1      36.722 -19.131 -21.350  0.00  0.00    +0.208 C 
ATOM     15  C   UNL     1      35.145 -18.008 -22.638  0.00  0.00    +0.248 C 
ATOM     16  H   UNL     1      35.519 -22.898 -17.697  0.00  0.00    +0.150 HD
ATOM     17  H   UNL     1      31.681 -22.133 -18.857  0.00  0.00    +0.150 HD
ATOM     18  H   UNL     1      33.161 -18.476 -22.373  0.00  0.00    +0.156 HD
ATOM     19  H   UNL     1      33.816 -16.975 -23.808  0.00  0.00    +0.146 HD
ATOM     20  H   UNL     1      35.451 -16.559 -24.056  0.00  0.00    +0.146 HD
ENDROOT
BRANCH  12  21
ATOM     21  N   UNL     1      33.117 -23.745 -17.091  0.00  0.00    -0.262 NA
ATOM     22  H   UNL     1      33.265 -24.688 -17.334  0.00  0.00    +0.127 HD
BRANCH  21  23
ATOM     23  C   UNL     1      32.567 -23.463 -15.777  0.00  0.00    +0.105 C 
BRANCH  23  25
ATOM     24  S   UNL     1      30.606 -25.070 -14.634  0.00  0.00    -0.089 S 
ATOM     25  C   UNL     1      31.101 -23.777 -15.642  0.00  0.00    +0.023 C 
ATOM     26  C   UNL     1      30.031 -23.148 -16.240  0.00  0.00    +0.004 C 
ATOM     27  C   UNL     1      28.788 -23.735 -15.866  0.00  0.00    +0.007 C 
ATOM     28  C   UNL     1      28.955 -24.790 -14.995  0.00  0.00    +0.035 C 
ENDBRANCH  23  25
ENDBRANCH  21  23
ENDBRANCH  12  21
TORSDOF 3
ENDMDL
MODEL 5
REMARK VINA RESULT:      -9.8      3.814      8.452
REMARK  Name = 24741808
REMARK  3 active torsions:
REMARK  status: ('A' for Active; 'I' for Inactive)
REMARK    1  A    between atoms: N_4  and  C_13
REMARK    2  A    between atoms: N_4  and  C_23
REMARK    3  A    between atoms: C_23  and  C_25
REMARK                            x       y       z     vdW  Elec       q    Type
REMARK                         _______ _______ _______ _____ _____    ______ ____
ROOT
ATOM      1  O   UNL     1      32.905 -13.330 -22.222  0.00  0.00    -0.209 OA
ATOM      2  N   UNL     1      35.374 -17.677 -20.604  0.00  0.00    -0.305 N 
ATOM      3  N   UNL     1      35.850 -18.892 -22.403  0.00  0.00    -0.305 N 
ATOM      4  N   UNL     1      33.790 -15.561 -25.428  0.00  0.00    -0.275 N 
ATOM      5  N   UNL     1      32.829 -13.594 -24.495  0.00  0.00    -0.302 NA
ATOM      6  N   UNL     1      32.825 -13.999 -26.803  0.00  0.00    -0.320 N 
ATOM      7  C   UNL     1      34.891 -16.960 -21.669  0.00  0.00    +0.061 C 
ATOM      8  C   UNL     1      35.201 -17.738 -22.780  0.00  0.00    +0.061 C 
ATOM      9  C   UNL     1      34.171 -16.056 -24.178  0.00  0.00    +0.064 C 
ATOM     10  C   UNL     1      33.876 -15.299 -23.033  0.00  0.00    +0.110 C 
ATOM     11  C   UNL     1      34.230 -15.733 -21.747  0.00  0.00    +0.030 C 
ATOM     12  C   UNL     1      35.937 -18.823 -21.094  0.00  0.00    +0.208 C 
ATOM     13  C   UNL     1      34.838 -17.285 -24.059  0.00  0.00    +0.031 C 
ATOM     14  C   UNL     1      33.166 -14.000 -23.216  0.00  0.00    +0.208 C 
ATOM     15  C   UNL     1      33.137 -14.353 -25.514  0.00  0.00    +0.248 C 
ATOM     16  H   UNL     1      35.324 -17.414 -19.656  0.00  0.00    +0.150 HD
ATOM     17  H   UNL     1      36.179 -19.613 -22.988  0.00  0.00    +0.150 HD
ATOM     18  H   UNL     1      33.987 -16.075 -26.244  0.00  0.00    +0.156 HD
ATOM     19  H   UNL     1      33.070 -14.592 -27.549  0.00  0.00    +0.146 HD
ATOM     20  H   UNL     1      32.355 -13.152 -26.981  0.00  0.00    +0.146 HD
ENDROOT
BRANCH  12  21
ATOM     21  N   UNL     1      36.484 -19.694 -20.216  0.00  0.00    -0.262 NA
ATOM     22  H   UNL     1      37.085 -19.332 -19.526  0.00  0.00    +0.127 HD
BRANCH  21  23
ATOM     23  C   UNL     1      36.244 -21.126 -20.221  0.00  0.00    +0.105 C 
BRANCH  23  25
ATOM     24  S   UNL     1      34.435 -22.428 -18.558  0.00  0.00    -0.089 S 
ATOM     25  C   UNL     1      35.959 -21.709 -18.863  0.00  0.00    +0.023 C 
ATOM     26  C   UNL     1      36.782 -21.754 -17.760  0.00  0.00    +0.004 C 
ATOM     27  C   UNL     1      36.154 -22.389 -16.650  0.00  0.00    +0.007 C 
ATOM     28  C   UNL     1      34.875 -22.805 -16.947  0.00  0.00    +0.035 C 
ENDBRANCH  23  25
ENDBRANCH  21  23
ENDBRANCH  12  21
TORSDOF 3
ENDMDL
MODEL 6
REMARK VINA RESULT:      -9.7      3.829      8.529
REMARK  Name = 24741808
REMARK  3 active torsions:
REMARK  status: ('A' for Active; 'I' for Inactive)
REMARK    1  A    between atoms: N_4  and  C_13
REMARK    2  A    between atoms: N_4  and  C_23
REMARK    3  A    between atoms: C_23  and  C_25
REMARK                            x       y       z     vdW  Elec       q    Type
REMARK                         _______ _______ _______ _____ _____    ______ ____
ROOT
ATOM      1  O   UNL     1      33.498 -16.027 -26.202  0.00  0.00    -0.209 OA
ATOM      2  N   UNL     1      35.176 -19.289 -22.440  0.00  0.00    -0.305 N 
ATOM      3  N   UNL     1      35.564 -18.077 -20.619  0.00  0.00    -0.305 N 
ATOM      4  N   UNL     1      34.213 -13.892 -22.890  0.00  0.00    -0.275 N 
ATOM      5  N   UNL     1      33.515 -13.987 -25.163  0.00  0.00    -0.302 NA
ATOM      6  N   UNL     1      33.583 -11.970 -23.972  0.00  0.00    -0.320 N 
ATOM      7  C   UNL     1      34.870 -17.998 -22.789  0.00  0.00    +0.061 C 
ATOM      8  C   UNL     1      35.120 -17.261 -21.635  0.00  0.00    +0.061 C 
ATOM      9  C   UNL     1      34.443 -15.269 -22.827  0.00  0.00    +0.064 C 
ATOM     10  C   UNL     1      34.202 -16.047 -23.970  0.00  0.00    +0.110 C 
ATOM     11  C   UNL     1      34.411 -17.434 -23.979  0.00  0.00    +0.030 C 
ATOM     12  C   UNL     1      35.586 -19.284 -21.136  0.00  0.00    +0.208 C 
ATOM     13  C   UNL     1      34.904 -15.872 -21.647  0.00  0.00    +0.031 C 
ATOM     14  C   UNL     1      33.712 -15.355 -25.198  0.00  0.00    +0.208 C 
ATOM     15  C   UNL     1      33.760 -13.328 -24.061  0.00  0.00    +0.248 C 
ATOM     16  H   UNL     1      35.113 -20.078 -23.026  0.00  0.00    +0.150 HD
ATOM     17  H   UNL     1      35.812 -17.812 -19.703  0.00  0.00    +0.150 HD
ATOM     18  H   UNL     1      34.375 -13.327 -22.100  0.00  0.00    +0.156 HD
ATOM     19  H   UNL     1      33.777 -11.503 -23.127  0.00  0.00    +0.146 HD
ATOM     20  H   UNL     1      33.261 -11.463 -24.752  0.00  0.00    +0.146 HD
ENDROOT
BRANCH  12  21
ATOM     21  N   UNL     1      35.943 -20.460 -20.573  0.00  0.00    -0.262 NA
ATOM     22  H   UNL     1      36.894 -20.712 -20.603  0.00  0.00    +0.127 HD
BRANCH  21  23
ATOM     23  C   UNL     1      35.021 -21.376 -19.926  0.00  0.00    +0.105 C 
BRANCH  23  25
ATOM     24  S   UNL     1      34.392 -22.755 -17.595  0.00  0.00    -0.089 S 
ATOM     25  C   UNL     1      35.468 -21.845 -18.567  0.00  0.00    +0.023 C 
ATOM     26  C   UNL     1      36.680 -21.642 -17.947  0.00  0.00    +0.004 C 
ATOM     27  C   UNL     1      36.728 -22.242 -16.656  0.00  0.00    +0.007 C 
ATOM     28  C   UNL     1      35.550 -22.882 -16.338  0.00  0.00    +0.035 C 
ENDBRANCH  23  25
ENDBRANCH  21  23
ENDBRANCH  12  21
TORSDOF 3
ENDMDL
MODEL 7
REMARK VINA RESULT:      -9.7      2.221      3.239
REMARK  Name = 24741808
REMARK  3 active torsions:
REMARK  status: ('A' for Active; 'I' for Inactive)
REMARK    1  A    between atoms: N_4  and  C_13
REMARK    2  A    between atoms: N_4  and  C_23
REMARK    3  A    between atoms: C_23  and  C_25
REMARK                            x       y       z     vdW  Elec       q    Type
REMARK                         _______ _______ _______ _____ _____    ______ ____
ROOT
ATOM      1  O   UNL     1      37.996 -22.788 -15.639  0.00  0.00    -0.209 OA
ATOM      2  N   UNL     1      36.164 -20.458 -19.977  0.00  0.00    -0.305 N 
ATOM      3  N   UNL     1      34.029 -21.032 -20.201  0.00  0.00    -0.305 N 
ATOM      4  N   UNL     1      34.145 -23.789 -16.093  0.00  0.00    -0.275 N 
ATOM      5  N   UNL     1      36.176 -23.939 -14.862  0.00  0.00    -0.302 NA
ATOM      6  N   UNL     1      34.233 -25.061 -14.186  0.00  0.00    -0.320 N 
ATOM      7  C   UNL     1      35.891 -21.277 -18.911  0.00  0.00    +0.061 C 
ATOM      8  C   UNL     1      34.553 -21.621 -19.073  0.00  0.00    +0.061 C 
ATOM      9  C   UNL     1      34.706 -22.944 -17.055  0.00  0.00    +0.064 C 
ATOM     10  C   UNL     1      36.053 -22.573 -16.926  0.00  0.00    +0.110 C 
ATOM     11  C   UNL     1      36.681 -21.729 -17.853  0.00  0.00    +0.030 C 
ATOM     12  C   UNL     1      35.021 -20.342 -20.718  0.00  0.00    +0.208 C 
ATOM     13  C   UNL     1      33.943 -22.469 -18.133  0.00  0.00    +0.031 C 
ATOM     14  C   UNL     1      36.818 -23.107 -15.761  0.00  0.00    +0.208 C 
ATOM     15  C   UNL     1      34.917 -24.240 -15.047  0.00  0.00    +0.248 C 
ATOM     16  H   UNL     1      37.028 -20.029 -20.174  0.00  0.00    +0.150 HD
ATOM     17  H   UNL     1      33.110 -21.110 -20.546  0.00  0.00    +0.150 HD
ATOM     18  H   UNL     1      33.202 -24.062 -16.164  0.00  0.00    +0.156 HD
ATOM     19  H   UNL     1      33.286 -25.269 -14.354  0.00  0.00    +0.146 HD
ATOM     20  H   UNL     1      34.690 -25.442 -13.401  0.00  0.00    +0.146 HD
ENDROOT
BRANCH  12  21
ATOM     21  N   UNL     1      35.053 -19.575 -21.831  0.00  0.00    -0.262 NA
ATOM     22  H   UNL     1      34.431 -19.800 -22.560  0.00  0.00    +0.127 HD
BRANCH  21  23
ATOM     23  C   UNL     1      35.941 -18.443 -22.023  0.00  0.00    +0.105 C 
BRANCH  23  25
ATOM     24  S   UNL     1      34.952 -16.214 -23.360  0.00  0.00    -0.089 S 
ATOM     25  C   UNL     1      35.262 -17.103 -21.930  0.00  0.00    +0.023 C 
ATOM     26  C   UNL     1      34.826 -16.440 -20.804  0.00  0.00    +0.004 C 
ATOM     27  C   UNL     1      34.229 -15.186 -21.119  0.00  0.00    +0.007 C 
ATOM     28  C   UNL     1      34.231 -14.937 -22.474  0.00  0.00    +0.035 C 
ENDBRANCH  23  25
ENDBRANCH  21  23
ENDBRANCH  12  21
TORSDOF 3
ENDMDL
MODEL 8
REMARK VINA RESULT:      -9.7      3.407      8.536
REMARK  Name = 24741808
REMARK  3 active torsions:
REMARK  status: ('A' for Active; 'I' for Inactive)
REMARK    1  A    between atoms: N_4  and  C_13
REMARK    2  A    between atoms: N_4  and  C_23
REMARK    3  A    between atoms: C_23  and  C_25
REMARK                            x       y       z     vdW  Elec       q    Type
REMARK                         _______ _______ _______ _____ _____    ______ ____
ROOT
ATOM      1  O   UNL     1      37.857 -19.005 -21.393  0.00  0.00    -0.209 OA
ATOM      2  N   UNL     1      35.116 -22.359 -18.418  0.00  0.00    -0.305 N 
ATOM      3  N   UNL     1      32.964 -22.074 -18.889  0.00  0.00    -0.305 N 
ATOM      4  N   UNL     1      33.963 -18.536 -22.202  0.00  0.00    -0.275 N 
ATOM      5  N   UNL     1      36.230 -17.920 -22.583  0.00  0.00    -0.302 NA
ATOM      6  N   UNL     1      34.460 -16.897 -23.729  0.00  0.00    -0.320 N 
ATOM      7  C   UNL     1      35.077 -21.372 -19.371  0.00  0.00    +0.061 C 
ATOM      8  C   UNL     1      33.723 -21.214 -19.648  0.00  0.00    +0.061 C 
ATOM      9  C   UNL     1      34.309 -19.495 -21.246  0.00  0.00    +0.064 C 
ATOM     10  C   UNL     1      35.664 -19.686 -20.939  0.00  0.00    +0.110 C 
ATOM     11  C   UNL     1      36.084 -20.631 -19.991  0.00  0.00    +0.030 C 
ATOM     12  C   UNL     1      33.830 -22.745 -18.164  0.00  0.00    +0.208 C 
ATOM     13  C   UNL     1      33.324 -20.261 -20.601  0.00  0.00    +0.031 C 
ATOM     14  C   UNL     1      36.669 -18.846 -21.654  0.00  0.00    +0.208 C 
ATOM     15  C   UNL     1      34.949 -17.800 -22.818  0.00  0.00    +0.248 C 
ATOM     16  H   UNL     1      35.927 -22.723 -17.993  0.00  0.00    +0.150 HD
ATOM     17  H   UNL     1      31.983 -22.167 -18.889  0.00  0.00    +0.150 HD
ATOM     18  H   UNL     1      33.018 -18.386 -22.433  0.00  0.00    +0.156 HD
ATOM     19  H   UNL     1      33.490 -16.831 -23.882  0.00  0.00    +0.146 HD
ATOM     20  H   UNL     1      35.079 -16.317 -24.228  0.00  0.00    +0.146 HD
ENDROOT
BRANCH  12  21
ATOM     21  N   UNL     1      33.622 -23.717 -17.247  0.00  0.00    -0.262 NA
ATOM     22  H   UNL     1      33.257 -24.574 -17.564  0.00  0.00    +0.127 HD
BRANCH  21  23
ATOM     23  C   UNL     1      33.900 -23.582 -15.829  0.00  0.00    +0.105 C 
BRANCH  23  25
ATOM     24  S   UNL     1      36.553 -23.006 -15.227  0.00  0.00    -0.089 S 
ATOM     25  C   UNL     1      35.249 -24.101 -15.412  0.00  0.00    +0.023 C 
ATOM     26  C   UNL     1      35.622 -25.399 -15.141  0.00  0.00    +0.004 C 
ATOM     27  C   UNL     1      36.996 -25.497 -14.776  0.00  0.00    +0.007 C 
ATOM     28  C   UNL     1      37.621 -24.269 -14.782  0.00  0.00    +0.035 C 
ENDBRANCH  23  25
ENDBRANCH  21  23
ENDBRANCH  12  21
TORSDOF 3
ENDMDL
MODEL 9
REMARK VINA RESULT:      -9.6      5.652      8.131
REMARK  Name = 24741808
REMARK  3 active torsions:
REMARK  status: ('A' for Active; 'I' for Inactive)
REMARK    1  A    between atoms: N_4  and  C_13
REMARK    2  A    between atoms: N_4  and  C_23
REMARK    3  A    between atoms: C_23  and  C_25
REMARK                            x       y       z     vdW  Elec       q    Type
REMARK                         _______ _______ _______ _____ _____    ______ ____
ROOT
ATOM      1  O   UNL     1      33.597 -15.346 -26.445  0.00  0.00    -0.209 OA
ATOM      2  N   UNL     1      31.758 -12.259 -22.611  0.00  0.00    -0.305 N 
ATOM      3  N   UNL     1      32.359 -13.161 -20.672  0.00  0.00    -0.305 N 
ATOM      4  N   UNL     1      34.652 -16.927 -22.919  0.00  0.00    -0.275 N 
ATOM      5  N   UNL     1      34.658 -17.019 -25.297  0.00  0.00    -0.302 NA
ATOM      6  N   UNL     1      35.704 -18.661 -23.992  0.00  0.00    -0.320 N 
ATOM      7  C   UNL     1      32.456 -13.394 -22.937  0.00  0.00    +0.061 C 
ATOM      8  C   UNL     1      32.821 -13.938 -21.709  0.00  0.00    +0.061 C 
ATOM      9  C   UNL     1      33.914 -15.740 -22.895  0.00  0.00    +0.064 C 
ATOM     10  C   UNL     1      33.528 -15.159 -24.113  0.00  0.00    +0.110 C 
ATOM     11  C   UNL     1      32.788 -13.969 -24.164  0.00  0.00    +0.030 C 
ATOM     12  C   UNL     1      31.727 -12.164 -21.248  0.00  0.00    +0.208 C 
ATOM     13  C   UNL     1      33.563 -15.131 -21.680  0.00  0.00    +0.031 C 
ATOM     14  C   UNL     1      33.929 -15.847 -25.375  0.00  0.00    +0.208 C 
ATOM     15  C   UNL     1      34.982 -17.501 -24.126  0.00  0.00    +0.248 C 
ATOM     16  H   UNL     1      31.352 -11.626 -23.247  0.00  0.00    +0.150 HD
ATOM     17  H   UNL     1      32.476 -13.318 -19.707  0.00  0.00    +0.150 HD
ATOM     18  H   UNL     1      34.934 -17.351 -22.077  0.00  0.00    +0.156 HD
ATOM     19  H   UNL     1      35.931 -18.997 -23.095  0.00  0.00    +0.146 HD
ATOM     20  H   UNL     1      35.993 -19.156 -24.792  0.00  0.00    +0.146 HD
ENDROOT
BRANCH  12  21
ATOM     21  N   UNL     1      31.084 -11.112 -20.694  0.00  0.00    -0.262 NA
ATOM     22  H   UNL     1      30.100 -11.115 -20.714  0.00  0.00    +0.127 HD
BRANCH  21  23
ATOM     23  C   UNL     1      31.744  -9.978 -20.072  0.00  0.00    +0.105 C 
BRANCH  23  25
ATOM     24  S   UNL     1      32.313  -7.266 -20.308  0.00  0.00    -0.089 S 
ATOM     25  C   UNL     1      31.920  -8.791 -20.980  0.00  0.00    +0.023 C 
ATOM     26  C   UNL     1      31.805  -8.737 -22.352  0.00  0.00    +0.004 C 
ATOM     27  C   UNL     1      32.043  -7.427 -22.858  0.00  0.00    +0.007 C 
ATOM     28  C   UNL     1      32.332  -6.529 -21.854  0.00  0.00    +0.035 C 
ENDBRANCH  23  25
ENDBRANCH  21  23
ENDBRANCH  12  21
TORSDOF 3
ENDMDL
