MODEL 1
REMARK VINA RESULT:      -7.7      0.000      0.000
REMARK  Name = 736186
REMARK  5 active torsions:
REMARK  status: ('A' for Active; 'I' for Inactive)
REMARK    1  A    between atoms: C_1  and  C_11
REMARK    2  A    between atoms: C_2  and  O_7
REMARK    3  A    between atoms: C_4  and  O_9
REMARK    4  A    between atoms: C_12  and  C_14
REMARK    5  A    between atoms: C_14  and  O_15
REMARK                            x       y       z     vdW  Elec       q    Type
REMARK                         _______ _______ _______ _____ _____    ______ ____
ROOT
ATOM      1  C   UNL     1      34.866 -19.692 -21.129  0.00  0.00    +0.003 C 
ATOM      2  C   UNL     1      35.094 -21.638 -19.144  0.00  0.00    +0.172 C 
ATOM      3  C   UNL     1      33.722 -20.305 -20.619  0.00  0.00    +0.040 C 
ATOM      4  C   UNL     1      33.836 -21.278 -19.626  0.00  0.00    +0.168 C 
ATOM      5  C   UNL     1      36.124 -20.052 -20.646  0.00  0.00    +0.003 C 
ATOM      6  C   UNL     1      36.239 -21.025 -19.653  0.00  0.00    +0.040 C 
ENDROOT
BRANCH   2   7
ATOM      7  O   UNL     1      35.218 -22.588 -18.175  0.00  0.00    -0.468 OA
ATOM      8  C   UNL     1      36.081 -22.290 -17.081  0.00  0.00    +0.253 C 
ENDBRANCH   2   7
BRANCH   4   9
ATOM      9  O   UNL     1      32.711 -21.870 -19.136  0.00  0.00    -0.503 OA
ATOM     10  H   UNL     1      32.615 -22.801 -19.179  0.00  0.00    +0.292 HD
ENDBRANCH   4   9
BRANCH   1  11
ATOM     11  C   UNL     1      34.749 -18.676 -22.163  0.00  0.00    +0.007 C 
ATOM     12  C   UNL     1      35.074 -18.844 -23.464  0.00  0.00    +0.082 C 
BRANCH  12  14
ATOM     13  O   UNL     1      34.341 -17.791 -25.504  0.00  0.00    -0.245 OA
ATOM     14  C   UNL     1      34.897 -17.733 -24.421  0.00  0.00    +0.338 C 
BRANCH  14  15
ATOM     15  O   UNL     1      35.459 -16.618 -23.898  0.00  0.00    -0.477 OA
ATOM     16  H   UNL     1      34.996 -16.116 -23.257  0.00  0.00    +0.295 HD
ENDBRANCH  14  15
ENDBRANCH  12  14
ENDBRANCH   1  11
TORSDOF 5
ENDMDL
MODEL 2
REMARK VINA RESULT:      -7.7      1.000      1.931
REMARK  Name = 736186
REMARK  5 active torsions:
REMARK  status: ('A' for Active; 'I' for Inactive)
REMARK    1  A    between atoms: C_1  and  C_11
REMARK    2  A    between atoms: C_2  and  O_7
REMARK    3  A    between atoms: C_4  and  O_9
REMARK    4  A    between atoms: C_12  and  C_14
REMARK    5  A    between atoms: C_14  and  O_15
REMARK                            x       y       z     vdW  Elec       q    Type
REMARK                         _______ _______ _______ _____ _____    ______ ____
ROOT
ATOM      1  C   UNL     1      34.546 -19.749 -21.144  0.00  0.00    +0.003 C 
ATOM      2  C   UNL     1      34.491 -21.744 -19.197  0.00  0.00    +0.172 C 
ATOM      3  C   UNL     1      35.739 -20.232 -20.606  0.00  0.00    +0.040 C 
ATOM      4  C   UNL     1      35.711 -21.230 -19.633  0.00  0.00    +0.168 C 
ATOM      5  C   UNL     1      33.326 -20.264 -20.708  0.00  0.00    +0.003 C 
ATOM      6  C   UNL     1      33.297 -21.261 -19.734  0.00  0.00    +0.040 C 
ENDROOT
BRANCH   2   7
ATOM      7  O   UNL     1      34.450 -22.718 -18.244  0.00  0.00    -0.468 OA
ATOM      8  C   UNL     1      33.174 -23.031 -17.690  0.00  0.00    +0.253 C 
ENDBRANCH   2   7
BRANCH   4   9
ATOM      9  O   UNL     1      36.883 -21.694 -19.114  0.00  0.00    -0.503 OA
ATOM     10  H   UNL     1      37.578 -21.955 -19.685  0.00  0.00    +0.292 HD
ENDBRANCH   4   9
BRANCH   1  11
ATOM     11  C   UNL     1      34.574 -18.708 -22.161  0.00  0.00    +0.007 C 
ATOM     12  C   UNL     1      34.899 -18.893 -23.459  0.00  0.00    +0.082 C 
BRANCH  12  14
ATOM     13  O   UNL     1      34.372 -17.735 -25.505  0.00  0.00    -0.245 OA
ATOM     14  C   UNL     1      34.879 -17.753 -24.397  0.00  0.00    +0.338 C 
BRANCH  14  15
ATOM     15  O   UNL     1      35.523 -16.709 -23.824  0.00  0.00    -0.477 OA
ATOM     16  H   UNL     1      35.310 -16.450 -22.949  0.00  0.00    +0.295 HD
ENDBRANCH  14  15
ENDBRANCH  12  14
ENDBRANCH   1  11
TORSDOF 5
ENDMDL
MODEL 3
REMARK VINA RESULT:      -7.4      1.596      6.696
REMARK  Name = 736186
REMARK  5 active torsions:
REMARK  status: ('A' for Active; 'I' for Inactive)
REMARK    1  A    between atoms: C_1  and  C_11
REMARK    2  A    between atoms: C_2  and  O_7
REMARK    3  A    between atoms: C_4  and  O_9
REMARK    4  A    between atoms: C_12  and  C_14
REMARK    5  A    between atoms: C_14  and  O_15
REMARK                            x       y       z     vdW  Elec       q    Type
REMARK                         _______ _______ _______ _____ _____    ______ ____
ROOT
ATOM      1  C   UNL     1      34.740 -18.672 -22.788  0.00  0.00    +0.003 C 
ATOM      2  C   UNL     1      34.562 -16.852 -24.894  0.00  0.00    +0.172 C 
ATOM      3  C   UNL     1      34.907 -17.309 -22.547  0.00  0.00    +0.040 C 
ATOM      4  C   UNL     1      34.818 -16.398 -23.600  0.00  0.00    +0.168 C 
ATOM      5  C   UNL     1      34.483 -19.125 -24.082  0.00  0.00    +0.003 C 
ATOM      6  C   UNL     1      34.394 -18.216 -25.135  0.00  0.00    +0.040 C 
ENDROOT
BRANCH   2   7
ATOM      7  O   UNL     1      34.475 -15.973 -25.931  0.00  0.00    -0.468 OA
ATOM      8  C   UNL     1      33.203 -15.373 -26.168  0.00  0.00    +0.253 C 
ENDBRANCH   2   7
BRANCH   4   9
ATOM      9  O   UNL     1      34.984 -15.069 -23.353  0.00  0.00    -0.503 OA
ATOM     10  H   UNL     1      34.276 -14.564 -23.005  0.00  0.00    +0.292 HD
ENDBRANCH   4   9
BRANCH   1  11
ATOM     11  C   UNL     1      34.831 -19.622 -21.690  0.00  0.00    +0.007 C 
ATOM     12  C   UNL     1      33.810 -19.982 -20.881  0.00  0.00    +0.082 C 
BRANCH  12  14
ATOM     13  O   UNL     1      35.105 -21.419 -19.444  0.00  0.00    -0.245 OA
ATOM     14  C   UNL     1      34.031 -20.968 -19.805  0.00  0.00    +0.338 C 
BRANCH  14  15
ATOM     15  O   UNL     1      32.834 -21.300 -19.268  0.00  0.00    -0.477 OA
ATOM     16  H   UNL     1      32.545 -22.192 -19.281  0.00  0.00    +0.295 HD
ENDBRANCH  14  15
ENDBRANCH  12  14
ENDBRANCH   1  11
TORSDOF 5
ENDMDL
MODEL 4
REMARK VINA RESULT:      -7.3      1.351      6.314
REMARK  Name = 736186
REMARK  5 active torsions:
REMARK  status: ('A' for Active; 'I' for Inactive)
REMARK    1  A    between atoms: C_1  and  C_11
REMARK    2  A    between atoms: C_2  and  O_7
REMARK    3  A    between atoms: C_4  and  O_9
REMARK    4  A    between atoms: C_12  and  C_14
REMARK    5  A    between atoms: C_14  and  O_15
REMARK                            x       y       z     vdW  Elec       q    Type
REMARK                         _______ _______ _______ _____ _____    ______ ____
ROOT
ATOM      1  C   UNL     1      34.807 -18.942 -21.787  0.00  0.00    +0.003 C 
ATOM      2  C   UNL     1      34.781 -16.640 -23.363  0.00  0.00    +0.172 C 
ATOM      3  C   UNL     1      34.718 -19.047 -23.175  0.00  0.00    +0.040 C 
ATOM      4  C   UNL     1      34.706 -17.897 -23.963  0.00  0.00    +0.168 C 
ATOM      5  C   UNL     1      34.883 -17.685 -21.187  0.00  0.00    +0.003 C 
ATOM      6  C   UNL     1      34.870 -16.534 -21.975  0.00  0.00    +0.040 C 
ENDROOT
BRANCH   2   7
ATOM      7  O   UNL     1      34.768 -15.509 -24.122  0.00  0.00    -0.468 OA
ATOM      8  C   UNL     1      33.731 -14.565 -23.861  0.00  0.00    +0.253 C 
ENDBRANCH   2   7
BRANCH   4   9
ATOM      9  O   UNL     1      34.618 -18.013 -25.318  0.00  0.00    -0.503 OA
ATOM     10  H   UNL     1      34.522 -17.247 -25.848  0.00  0.00    +0.292 HD
ENDBRANCH   4   9
BRANCH   1  11
ATOM     11  C   UNL     1      34.821 -20.141 -20.964  0.00  0.00    +0.007 C 
ATOM     12  C   UNL     1      33.793 -20.582 -20.208  0.00  0.00    +0.082 C 
BRANCH  12  14
ATOM     13  O   UNL     1      34.948 -22.482 -19.278  0.00  0.00    -0.245 OA
ATOM     14  C   UNL     1      33.931 -21.825 -19.423  0.00  0.00    +0.338 C 
BRANCH  14  15
ATOM     15  O   UNL     1      32.730 -22.130 -18.877  0.00  0.00    -0.477 OA
ATOM     16  H   UNL     1      32.671 -22.783 -18.209  0.00  0.00    +0.295 HD
ENDBRANCH  14  15
ENDBRANCH  12  14
ENDBRANCH   1  11
TORSDOF 5
ENDMDL
MODEL 5
REMARK VINA RESULT:      -7.1      6.936      7.956
REMARK  Name = 736186
REMARK  5 active torsions:
REMARK  status: ('A' for Active; 'I' for Inactive)
REMARK    1  A    between atoms: C_1  and  C_11
REMARK    2  A    between atoms: C_2  and  O_7
REMARK    3  A    between atoms: C_4  and  O_9
REMARK    4  A    between atoms: C_12  and  C_14
REMARK    5  A    between atoms: C_14  and  O_15
REMARK                            x       y       z     vdW  Elec       q    Type
REMARK                         _______ _______ _______ _____ _____    ______ ____
ROOT
ATOM      1  C   UNL     1      31.967 -23.327 -15.975  0.00  0.00    +0.003 C 
ATOM      2  C   UNL     1      34.399 -24.154 -14.887  0.00  0.00    +0.172 C 
ATOM      3  C   UNL     1      32.005 -23.890 -14.700  0.00  0.00    +0.040 C 
ATOM      4  C   UNL     1      33.220 -24.303 -14.155  0.00  0.00    +0.168 C 
ATOM      5  C   UNL     1      33.145 -23.177 -16.706  0.00  0.00    +0.003 C 
ATOM      6  C   UNL     1      34.361 -23.591 -16.163  0.00  0.00    +0.040 C 
ENDROOT
BRANCH   2   7
ATOM      7  O   UNL     1      35.592 -24.555 -14.366  0.00  0.00    -0.468 OA
ATOM      8  C   UNL     1      36.227 -25.672 -14.986  0.00  0.00    +0.253 C 
ENDBRANCH   2   7
BRANCH   4   9
ATOM      9  O   UNL     1      33.245 -24.853 -12.908  0.00  0.00    -0.503 OA
ATOM     10  H   UNL     1      33.577 -25.720 -12.785  0.00  0.00    +0.292 HD
ENDBRANCH   4   9
BRANCH   1  11
ATOM     11  C   UNL     1      30.699 -22.895 -16.543  0.00  0.00    +0.007 C 
ATOM     12  C   UNL     1      29.489 -23.408 -16.232  0.00  0.00    +0.082 C 
BRANCH  12  14
ATOM     13  O   UNL     1      27.856 -21.729 -16.800  0.00  0.00    -0.245 OA
ATOM     14  C   UNL     1      28.271 -22.873 -16.874  0.00  0.00    +0.338 C 
BRANCH  14  15
ATOM     15  O   UNL     1      27.676 -23.867 -17.572  0.00  0.00    -0.477 OA
ATOM     16  H   UNL     1      26.773 -24.069 -17.424  0.00  0.00    +0.295 HD
ENDBRANCH  14  15
ENDBRANCH  12  14
ENDBRANCH   1  11
TORSDOF 5
ENDMDL
MODEL 6
REMARK VINA RESULT:      -7.0      1.729      6.402
REMARK  Name = 736186
REMARK  5 active torsions:
REMARK  status: ('A' for Active; 'I' for Inactive)
REMARK    1  A    between atoms: C_1  and  C_11
REMARK    2  A    between atoms: C_2  and  O_7
REMARK    3  A    between atoms: C_4  and  O_9
REMARK    4  A    between atoms: C_12  and  C_14
REMARK    5  A    between atoms: C_14  and  O_15
REMARK                            x       y       z     vdW  Elec       q    Type
REMARK                         _______ _______ _______ _____ _____    ______ ____
ROOT
ATOM      1  C   UNL     1      35.284 -18.285 -21.967  0.00  0.00    +0.003 C 
ATOM      2  C   UNL     1      34.444 -16.355 -23.798  0.00  0.00    +0.172 C 
ATOM      3  C   UNL     1      35.127 -18.621 -23.312  0.00  0.00    +0.040 C 
ATOM      4  C   UNL     1      34.708 -17.656 -24.227  0.00  0.00    +0.168 C 
ATOM      5  C   UNL     1      35.021 -16.984 -21.538  0.00  0.00    +0.003 C 
ATOM      6  C   UNL     1      34.601 -16.019 -22.453  0.00  0.00    +0.040 C 
ENDROOT
BRANCH   2   7
ATOM      7  O   UNL     1      34.032 -15.405 -24.682  0.00  0.00    -0.468 OA
ATOM      8  C   UNL     1      33.334 -14.281 -24.148  0.00  0.00    +0.253 C 
ENDBRANCH   2   7
BRANCH   4   9
ATOM      9  O   UNL     1      34.557 -17.996 -25.538  0.00  0.00    -0.503 OA
ATOM     10  H   UNL     1      33.796 -18.465 -25.817  0.00  0.00    +0.292 HD
ENDBRANCH   4   9
BRANCH   1  11
ATOM     11  C   UNL     1      35.723 -19.291 -21.012  0.00  0.00    +0.007 C 
ATOM     12  C   UNL     1      35.000 -20.363 -20.619  0.00  0.00    +0.082 C 
BRANCH  12  14
ATOM     13  O   UNL     1      35.166 -22.450 -19.427  0.00  0.00    -0.245 OA
ATOM     14  C   UNL     1      35.565 -21.320 -19.647  0.00  0.00    +0.338 C 
BRANCH  14  15
ATOM     15  O   UNL     1      36.617 -20.737 -19.025  0.00  0.00    -0.477 OA
ATOM     16  H   UNL     1      36.530 -20.436 -18.141  0.00  0.00    +0.295 HD
ENDBRANCH  14  15
ENDBRANCH  12  14
ENDBRANCH   1  11
TORSDOF 5
ENDMDL
MODEL 7
REMARK VINA RESULT:      -7.0      6.773      8.068
REMARK  Name = 736186
REMARK  5 active torsions:
REMARK  status: ('A' for Active; 'I' for Inactive)
REMARK    1  A    between atoms: C_1  and  C_11
REMARK    2  A    between atoms: C_2  and  O_7
REMARK    3  A    between atoms: C_4  and  O_9
REMARK    4  A    between atoms: C_12  and  C_14
REMARK    5  A    between atoms: C_14  and  O_15
REMARK                            x       y       z     vdW  Elec       q    Type
REMARK                         _______ _______ _______ _____ _____    ______ ____
ROOT
ATOM      1  C   UNL     1      31.716 -23.301 -15.775  0.00  0.00    +0.003 C 
ATOM      2  C   UNL     1      34.033 -24.027 -14.402  0.00  0.00    +0.172 C 
ATOM      3  C   UNL     1      32.948 -23.282 -16.427  0.00  0.00    +0.040 C 
ATOM      4  C   UNL     1      34.107 -23.645 -15.741  0.00  0.00    +0.168 C 
ATOM      5  C   UNL     1      31.642 -23.685 -14.436  0.00  0.00    +0.003 C 
ATOM      6  C   UNL     1      32.800 -24.047 -13.749  0.00  0.00    +0.040 C 
ENDROOT
BRANCH   2   7
ATOM      7  O   UNL     1      35.158 -24.382 -13.720  0.00  0.00    -0.468 OA
ATOM      8  C   UNL     1      35.230 -24.005 -12.347  0.00  0.00    +0.253 C 
ENDBRANCH   2   7
BRANCH   4   9
ATOM      9  O   UNL     1      35.305 -23.621 -16.389  0.00  0.00    -0.503 OA
ATOM     10  H   UNL     1      35.734 -22.804 -16.553  0.00  0.00    +0.292 HD
ENDBRANCH   4   9
BRANCH   1  11
ATOM     11  C   UNL     1      30.507 -22.924 -16.490  0.00  0.00    +0.007 C 
ATOM     12  C   UNL     1      29.246 -23.199 -16.092  0.00  0.00    +0.082 C 
BRANCH  12  14
ATOM     13  O   UNL     1      27.617 -21.630 -16.924  0.00  0.00    -0.245 OA
ATOM     14  C   UNL     1      28.098 -22.750 -16.905  0.00  0.00    +0.338 C 
BRANCH  14  15
ATOM     15  O   UNL     1      27.655 -23.794 -17.644  0.00  0.00    -0.477 OA
ATOM     16  H   UNL     1      27.135 -24.463 -17.244  0.00  0.00    +0.295 HD
ENDBRANCH  14  15
ENDBRANCH  12  14
ENDBRANCH   1  11
TORSDOF 5
ENDMDL
MODEL 8
REMARK VINA RESULT:      -6.9      2.916      4.536
REMARK  Name = 736186
REMARK  5 active torsions:
REMARK  status: ('A' for Active; 'I' for Inactive)
REMARK    1  A    between atoms: C_1  and  C_11
REMARK    2  A    between atoms: C_2  and  O_7
REMARK    3  A    between atoms: C_4  and  O_9
REMARK    4  A    between atoms: C_12  and  C_14
REMARK    5  A    between atoms: C_14  and  O_15
REMARK                            x       y       z     vdW  Elec       q    Type
REMARK                         _______ _______ _______ _____ _____    ______ ____
ROOT
ATOM      1  C   UNL     1      34.551 -16.725 -23.750  0.00  0.00    +0.003 C 
ATOM      2  C   UNL     1      35.576 -18.144 -21.578  0.00  0.00    +0.172 C 
ATOM      3  C   UNL     1      34.553 -16.150 -22.480  0.00  0.00    +0.040 C 
ATOM      4  C   UNL     1      35.066 -16.858 -21.394  0.00  0.00    +0.168 C 
ATOM      5  C   UNL     1      35.062 -18.010 -23.934  0.00  0.00    +0.003 C 
ATOM      6  C   UNL     1      35.574 -18.720 -22.848  0.00  0.00    +0.040 C 
ENDROOT
BRANCH   2   7
ATOM      7  O   UNL     1      36.078 -18.847 -20.524  0.00  0.00    -0.468 OA
ATOM      8  C   UNL     1      35.712 -20.222 -20.430  0.00  0.00    +0.253 C 
ENDBRANCH   2   7
BRANCH   4   9
ATOM      9  O   UNL     1      35.062 -16.286 -20.157  0.00  0.00    -0.503 OA
ATOM     10  H   UNL     1      35.695 -16.547 -19.518  0.00  0.00    +0.292 HD
ENDBRANCH   4   9
BRANCH   1  11
ATOM     11  C   UNL     1      34.018 -15.986 -24.884  0.00  0.00    +0.007 C 
ATOM     12  C   UNL     1      33.519 -14.731 -24.833  0.00  0.00    +0.082 C 
BRANCH  12  14
ATOM     13  O   UNL     1      33.335 -12.988 -26.486  0.00  0.00    -0.245 OA
ATOM     14  C   UNL     1      33.016 -14.085 -26.062  0.00  0.00    +0.338 C 
BRANCH  14  15
ATOM     15  O   UNL     1      32.128 -14.916 -26.657  0.00  0.00    -0.477 OA
ATOM     16  H   UNL     1      31.222 -14.684 -26.694  0.00  0.00    +0.295 HD
ENDBRANCH  14  15
ENDBRANCH  12  14
ENDBRANCH   1  11
TORSDOF 5
ENDMDL
MODEL 9
REMARK VINA RESULT:      -6.7      5.545      7.846
REMARK  Name = 736186
REMARK  5 active torsions:
REMARK  status: ('A' for Active; 'I' for Inactive)
REMARK    1  A    between atoms: C_1  and  C_11
REMARK    2  A    between atoms: C_2  and  O_7
REMARK    3  A    between atoms: C_4  and  O_9
REMARK    4  A    between atoms: C_12  and  C_14
REMARK    5  A    between atoms: C_14  and  O_15
REMARK                            x       y       z     vdW  Elec       q    Type
REMARK                         _______ _______ _______ _____ _____    ______ ____
ROOT
ATOM      1  C   UNL     1      32.964 -14.099 -23.392  0.00  0.00    +0.003 C 
ATOM      2  C   UNL     1      34.175 -16.173 -24.809  0.00  0.00    +0.172 C 
ATOM      3  C   UNL     1      32.877 -14.136 -24.783  0.00  0.00    +0.040 C 
ATOM      4  C   UNL     1      33.482 -15.174 -25.492  0.00  0.00    +0.168 C 
ATOM      5  C   UNL     1      33.656 -15.099 -22.709  0.00  0.00    +0.003 C 
ATOM      6  C   UNL     1      34.262 -16.136 -23.418  0.00  0.00    +0.040 C 
ENDROOT
BRANCH   2   7
ATOM      7  O   UNL     1      34.772 -17.191 -25.491  0.00  0.00    -0.468 OA
ATOM      8  C   UNL     1      34.509 -18.517 -25.038  0.00  0.00    +0.253 C 
ENDBRANCH   2   7
BRANCH   4   9
ATOM      9  O   UNL     1      33.392 -15.200 -26.852  0.00  0.00    -0.503 OA
ATOM     10  H   UNL     1      33.529 -16.002 -27.315  0.00  0.00    +0.292 HD
ENDBRANCH   4   9
BRANCH   1  11
ATOM     11  C   UNL     1      32.332 -13.017 -22.652  0.00  0.00    +0.007 C 
ATOM     12  C   UNL     1      32.106 -13.010 -21.320  0.00  0.00    +0.082 C 
BRANCH  12  14
ATOM     13  O   UNL     1      31.789 -11.317 -19.635  0.00  0.00    -0.245 OA
ATOM     14  C   UNL     1      31.463 -11.843 -20.685  0.00  0.00    +0.338 C 
BRANCH  14  15
ATOM     15  O   UNL     1      30.433 -11.437 -21.465  0.00  0.00    -0.477 OA
ATOM     16  H   UNL     1      30.300 -10.524 -21.627  0.00  0.00    +0.295 HD
ENDBRANCH  14  15
ENDBRANCH  12  14
ENDBRANCH   1  11
TORSDOF 5
ENDMDL
