MODEL 1
REMARK VINA RESULT:      -9.0      0.000      0.000
REMARK  Name = 21855
REMARK  5 active torsions:
REMARK  status: ('A' for Active; 'I' for Inactive)
REMARK    1  A    between atoms: C_1  and  C_10
REMARK    2  A    between atoms: C_2  and  C_18
REMARK    3  A    between atoms: C_10  and  C_13
REMARK    4  A    between atoms: C_18  and  C_19
REMARK    5  A    between atoms: C_19  and  N_20
REMARK                            x       y       z     vdW  Elec       q    Type
REMARK                         _______ _______ _______ _____ _____    ______ ____
ROOT
ATOM      1  C   UNL     1      34.602 -23.202 -15.559  0.00  0.00    -0.035 C 
ATOM      2  C   UNL     1      33.307 -23.512 -15.770  0.00  0.00    -0.032 C 
ATOM      3  C   UNL     1      32.857 -23.193 -17.182  0.00  0.00    -0.009 C 
ATOM      4  C   UNL     1      35.132 -22.648 -16.808  0.00  0.00    +0.062 C 
ATOM      5  C   UNL     1      34.114 -22.639 -17.770  0.00  0.00    -0.015 C 
ATOM      6  C   UNL     1      36.399 -22.180 -17.119  0.00  0.00    -0.018 C 
ATOM      7  C   UNL     1      34.333 -22.167 -19.054  0.00  0.00    -0.004 C 
ATOM      8  C   UNL     1      36.633 -21.702 -18.411  0.00  0.00    -0.004 C 
ATOM      9  C   UNL     1      35.608 -21.694 -19.371  0.00  0.00    -0.001 C 
ENDROOT
BRANCH   1  10
ATOM     10  C   UNL     1      35.441 -23.345 -14.342  0.00  0.00    +0.059 C 
ATOM     11  C   UNL     1      34.588 -23.638 -13.097  0.00  0.00    +0.011 C 
BRANCH  10  13
ATOM     12  N   UNL     1      37.782 -23.958 -14.253  0.00  0.00    -0.248 NA
ATOM     13  C   UNL     1      36.540 -24.383 -14.516  0.00  0.00    +0.062 C 
ATOM     14  C   UNL     1      36.183 -25.644 -14.920  0.00  0.00    +0.015 C 
ATOM     15  C   UNL     1      37.210 -26.569 -15.070  0.00  0.00    +0.003 C 
ATOM     16  C   UNL     1      38.753 -24.884 -14.410  0.00  0.00    +0.098 C 
ATOM     17  C   UNL     1      38.523 -26.190 -14.812  0.00  0.00    +0.021 C 
ENDBRANCH  10  13
ENDBRANCH   1  10
BRANCH   2  18
ATOM     18  C   UNL     1      32.326 -24.103 -14.818  0.00  0.00    +0.003 C 
BRANCH  18  19
ATOM     19  C   UNL     1      31.109 -23.198 -14.642  0.00  0.00    -0.073 C 
BRANCH  19  20
ATOM     20  N   UNL     1      29.881 -23.977 -14.742  0.00  0.00    +0.384 N 
ATOM     21  C   UNL     1      30.185 -25.405 -14.857  0.00  0.00    -0.101 C 
ATOM     22  C   UNL     1      29.081 -23.535 -15.885  0.00  0.00    -0.101 C 
ATOM     23  H   UNL     1      29.339 -23.830 -13.891  0.00  0.00    -0.080 HD
ENDBRANCH  19  20
ENDBRANCH  18  19
ENDBRANCH   2  18
TORSDOF 5
ENDMDL
MODEL 2
REMARK VINA RESULT:      -8.7     15.013     17.813
REMARK  Name = 21855
REMARK  5 active torsions:
REMARK  status: ('A' for Active; 'I' for Inactive)
REMARK    1  A    between atoms: C_1  and  C_10
REMARK    2  A    between atoms: C_2  and  C_18
REMARK    3  A    between atoms: C_10  and  C_13
REMARK    4  A    between atoms: C_18  and  C_19
REMARK    5  A    between atoms: C_19  and  N_20
REMARK                            x       y       z     vdW  Elec       q    Type
REMARK                         _______ _______ _______ _____ _____    ______ ____
ROOT
ATOM      1  C   UNL     1      33.158  -7.340 -22.567  0.00  0.00    -0.035 C 
ATOM      2  C   UNL     1      33.870  -7.722 -23.647  0.00  0.00    -0.032 C 
ATOM      3  C   UNL     1      33.604  -6.846 -24.856  0.00  0.00    -0.009 C 
ATOM      4  C   UNL     1      32.354  -6.178 -22.957  0.00  0.00    +0.062 C 
ATOM      5  C   UNL     1      32.609  -5.879 -24.302  0.00  0.00    -0.015 C 
ATOM      6  C   UNL     1      31.459  -5.416 -22.223  0.00  0.00    -0.018 C 
ATOM      7  C   UNL     1      31.984  -4.821 -24.941  0.00  0.00    -0.004 C 
ATOM      8  C   UNL     1      30.822  -4.345 -22.856  0.00  0.00    -0.004 C 
ATOM      9  C   UNL     1      31.082  -4.050 -24.204  0.00  0.00    -0.001 C 
ENDROOT
BRANCH   1  10
ATOM     10  C   UNL     1      33.111  -7.907 -21.196  0.00  0.00    +0.059 C 
ATOM     11  C   UNL     1      32.737  -6.841 -20.154  0.00  0.00    +0.011 C 
BRANCH  10  13
ATOM     12  N   UNL     1      31.628  -9.504 -22.252  0.00  0.00    -0.248 NA
ATOM     13  C   UNL     1      32.192  -9.118 -21.102  0.00  0.00    +0.062 C 
ATOM     14  C   UNL     1      32.018  -9.705 -19.875  0.00  0.00    +0.015 C 
ATOM     15  C   UNL     1      31.174 -10.808 -19.823  0.00  0.00    +0.003 C 
ATOM     16  C   UNL     1      30.814 -10.579 -22.162  0.00  0.00    +0.098 C 
ATOM     17  C   UNL     1      30.556 -11.260 -20.983  0.00  0.00    +0.021 C 
ENDBRANCH  10  13
ENDBRANCH   1  10
BRANCH   2  18
ATOM     18  C   UNL     1      34.837  -8.847 -23.772  0.00  0.00    +0.003 C 
BRANCH  18  19
ATOM     19  C   UNL     1      34.117 -10.172 -24.016  0.00  0.00    -0.073 C 
BRANCH  19  20
ATOM     20  N   UNL     1      34.863 -10.985 -24.969  0.00  0.00    +0.384 N 
ATOM     21  C   UNL     1      35.655 -10.135 -25.861  0.00  0.00    -0.101 C 
ATOM     22  C   UNL     1      33.957 -11.830 -25.746  0.00  0.00    -0.101 C 
ATOM     23  H   UNL     1      35.499 -11.587 -24.447  0.00  0.00    -0.080 HD
ENDBRANCH  19  20
ENDBRANCH  18  19
ENDBRANCH   2  18
TORSDOF 5
ENDMDL
MODEL 3
REMARK VINA RESULT:      -8.4      2.064      4.709
REMARK  Name = 21855
REMARK  5 active torsions:
REMARK  status: ('A' for Active; 'I' for Inactive)
REMARK    1  A    between atoms: C_1  and  C_10
REMARK    2  A    between atoms: C_2  and  C_18
REMARK    3  A    between atoms: C_10  and  C_13
REMARK    4  A    between atoms: C_18  and  C_19
REMARK    5  A    between atoms: C_19  and  N_20
REMARK                            x       y       z     vdW  Elec       q    Type
REMARK                         _______ _______ _______ _____ _____    ______ ____
ROOT
ATOM      1  C   UNL     1      34.749 -23.183 -16.387  0.00  0.00    -0.035 C 
ATOM      2  C   UNL     1      34.083 -22.909 -17.528  0.00  0.00    -0.032 C 
ATOM      3  C   UNL     1      32.579 -22.972 -17.351  0.00  0.00    -0.009 C 
ATOM      4  C   UNL     1      33.751 -23.455 -15.349  0.00  0.00    +0.062 C 
ATOM      5  C   UNL     1      32.470 -23.333 -15.905  0.00  0.00    -0.015 C 
ATOM      6  C   UNL     1      33.910 -23.786 -14.012  0.00  0.00    -0.018 C 
ATOM      7  C   UNL     1      31.329 -23.535 -15.148  0.00  0.00    -0.004 C 
ATOM      8  C   UNL     1      32.765 -23.992 -13.237  0.00  0.00    -0.004 C 
ATOM      9  C   UNL     1      31.485 -23.869 -13.800  0.00  0.00    -0.001 C 
ENDROOT
BRANCH   1  10
ATOM     10  C   UNL     1      36.207 -23.233 -16.112  0.00  0.00    +0.059 C 
ATOM     11  C   UNL     1      36.722 -21.905 -15.535  0.00  0.00    +0.011 C 
BRANCH  10  13
ATOM     12  N   UNL     1      36.244 -25.616 -15.681  0.00  0.00    -0.248 NA
ATOM     13  C   UNL     1      36.587 -24.407 -15.220  0.00  0.00    +0.062 C 
ATOM     14  C   UNL     1      37.236 -24.142 -14.042  0.00  0.00    +0.015 C 
ATOM     15  C   UNL     1      37.570 -25.236 -13.251  0.00  0.00    +0.003 C 
ATOM     16  C   UNL     1      36.584 -26.654 -14.885  0.00  0.00    +0.098 C 
ATOM     17  C   UNL     1      37.241 -26.519 -13.672  0.00  0.00    +0.021 C 
ENDBRANCH  10  13
ENDBRANCH   1  10
BRANCH   2  18
ATOM     18  C   UNL     1      34.637 -22.566 -18.867  0.00  0.00    +0.003 C 
BRANCH  18  19
ATOM     19  C   UNL     1      33.793 -21.501 -19.561  0.00  0.00    -0.073 C 
BRANCH  19  20
ATOM     20  N   UNL     1      34.625 -20.369 -19.950  0.00  0.00    +0.384 N 
ATOM     21  C   UNL     1      34.079 -19.713 -21.139  0.00  0.00    -0.101 C 
ATOM     22  C   UNL     1      36.001 -20.802 -20.196  0.00  0.00    -0.101 C 
ATOM     23  H   UNL     1      34.630 -19.697 -19.183  0.00  0.00    -0.080 HD
ENDBRANCH  19  20
ENDBRANCH  18  19
ENDBRANCH   2  18
TORSDOF 5
ENDMDL
MODEL 4
REMARK VINA RESULT:      -8.3     14.315     17.494
REMARK  Name = 21855
REMARK  5 active torsions:
REMARK  status: ('A' for Active; 'I' for Inactive)
REMARK    1  A    between atoms: C_1  and  C_10
REMARK    2  A    between atoms: C_2  and  C_18
REMARK    3  A    between atoms: C_10  and  C_13
REMARK    4  A    between atoms: C_18  and  C_19
REMARK    5  A    between atoms: C_19  and  N_20
REMARK                            x       y       z     vdW  Elec       q    Type
REMARK                         _______ _______ _______ _____ _____    ______ ____
ROOT
ATOM      1  C   UNL     1      32.986  -8.965 -22.512  0.00  0.00    -0.035 C 
ATOM      2  C   UNL     1      32.865 -10.004 -23.362  0.00  0.00    -0.032 C 
ATOM      3  C   UNL     1      32.108 -11.168 -22.752  0.00  0.00    -0.009 C 
ATOM      4  C   UNL     1      32.322  -9.340 -21.260  0.00  0.00    +0.062 C 
ATOM      5  C   UNL     1      31.802 -10.634 -21.391  0.00  0.00    -0.015 C 
ATOM      6  C   UNL     1      32.165  -8.633 -20.078  0.00  0.00    -0.018 C 
ATOM      7  C   UNL     1      31.117 -11.248 -20.356  0.00  0.00    -0.004 C 
ATOM      8  C   UNL     1      31.475  -9.242 -19.026  0.00  0.00    -0.004 C 
ATOM      9  C   UNL     1      30.956 -10.539 -19.163  0.00  0.00    -0.001 C 
ENDROOT
BRANCH   1  10
ATOM     10  C   UNL     1      33.642  -7.645 -22.692  0.00  0.00    +0.059 C 
ATOM     11  C   UNL     1      34.971  -7.771 -23.455  0.00  0.00    +0.011 C 
BRANCH  10  13
ATOM     12  N   UNL     1      31.713  -6.185 -22.589  0.00  0.00    -0.248 NA
ATOM     13  C   UNL     1      32.721  -6.627 -23.349  0.00  0.00    +0.062 C 
ATOM     14  C   UNL     1      32.989  -6.250 -24.640  0.00  0.00    +0.015 C 
ATOM     15  C   UNL     1      32.130  -5.318 -25.212  0.00  0.00    +0.003 C 
ATOM     16  C   UNL     1      30.899  -5.281 -23.178  0.00  0.00    +0.098 C 
ATOM     17  C   UNL     1      31.062  -4.820 -24.474  0.00  0.00    +0.021 C 
ENDBRANCH  10  13
ENDBRANCH   1  10
BRANCH   2  18
ATOM     18  C   UNL     1      33.366 -10.124 -24.760  0.00  0.00    +0.003 C 
BRANCH  18  19
ATOM     19  C   UNL     1      34.163 -11.412 -24.954  0.00  0.00    -0.073 C 
BRANCH  19  20
ATOM     20  N   UNL     1      33.343 -12.419 -25.619  0.00  0.00    +0.384 N 
ATOM     21  C   UNL     1      33.406 -13.691 -24.898  0.00  0.00    -0.101 C 
ATOM     22  C   UNL     1      33.773 -12.599 -27.006  0.00  0.00    -0.101 C 
ATOM     23  H   UNL     1      32.377 -12.095 -25.619  0.00  0.00    -0.080 HD
ENDBRANCH  19  20
ENDBRANCH  18  19
ENDBRANCH   2  18
TORSDOF 5
ENDMDL
MODEL 5
REMARK VINA RESULT:      -8.1      1.294      2.353
REMARK  Name = 21855
REMARK  5 active torsions:
REMARK  status: ('A' for Active; 'I' for Inactive)
REMARK    1  A    between atoms: C_1  and  C_10
REMARK    2  A    between atoms: C_2  and  C_18
REMARK    3  A    between atoms: C_10  and  C_13
REMARK    4  A    between atoms: C_18  and  C_19
REMARK    5  A    between atoms: C_19  and  N_20
REMARK                            x       y       z     vdW  Elec       q    Type
REMARK                         _______ _______ _______ _____ _____    ______ ____
ROOT
ATOM      1  C   UNL     1      35.310 -22.645 -17.243  0.00  0.00    -0.035 C 
ATOM      2  C   UNL     1      34.082 -23.084 -16.899  0.00  0.00    -0.032 C 
ATOM      3  C   UNL     1      33.012 -22.635 -17.875  0.00  0.00    -0.009 C 
ATOM      4  C   UNL     1      35.172 -21.866 -18.476  0.00  0.00    +0.062 C 
ATOM      5  C   UNL     1      33.823 -21.854 -18.858  0.00  0.00    -0.015 C 
ATOM      6  C   UNL     1      36.125 -21.206 -19.235  0.00  0.00    -0.018 C 
ATOM      7  C   UNL     1      33.398 -21.189 -19.995  0.00  0.00    -0.004 C 
ATOM      8  C   UNL     1      35.708 -20.531 -20.387  0.00  0.00    -0.004 C 
ATOM      9  C   UNL     1      34.355 -20.522 -20.763  0.00  0.00    -0.001 C 
ENDROOT
BRANCH   1  10
ATOM     10  C   UNL     1      36.624 -22.846 -16.580  0.00  0.00    +0.059 C 
ATOM     11  C   UNL     1      37.355 -21.513 -16.353  0.00  0.00    +0.011 C 
BRANCH  10  13
ATOM     12  N   UNL     1      36.654 -24.964 -15.406  0.00  0.00    -0.248 NA
ATOM     13  C   UNL     1      36.504 -23.639 -15.286  0.00  0.00    +0.062 C 
ATOM     14  C   UNL     1      36.256 -22.952 -14.126  0.00  0.00    +0.015 C 
ATOM     15  C   UNL     1      36.153 -23.705 -12.962  0.00  0.00    +0.003 C 
ATOM     16  C   UNL     1      36.547 -25.662 -14.253  0.00  0.00    +0.098 C 
ATOM     17  C   UNL     1      36.299 -25.086 -13.017  0.00  0.00    +0.021 C 
ENDBRANCH  10  13
ENDBRANCH   1  10
BRANCH   2  18
ATOM     18  C   UNL     1      33.686 -23.916 -15.729  0.00  0.00    +0.003 C 
BRANCH  18  19
ATOM     19  C   UNL     1      32.456 -23.342 -15.031  0.00  0.00    -0.073 C 
BRANCH  19  20
ATOM     20  N   UNL     1      31.407 -24.351 -14.943  0.00  0.00    +0.384 N 
ATOM     21  C   UNL     1      30.274 -23.991 -15.798  0.00  0.00    -0.101 C 
ATOM     22  C   UNL     1      30.965 -24.516 -13.558  0.00  0.00    -0.101 C 
ATOM     23  H   UNL     1      31.789 -25.238 -15.269  0.00  0.00    -0.080 HD
ENDBRANCH  19  20
ENDBRANCH  18  19
ENDBRANCH   2  18
TORSDOF 5
ENDMDL
MODEL 6
REMARK VINA RESULT:      -7.8     13.608     16.786
REMARK  Name = 21855
REMARK  5 active torsions:
REMARK  status: ('A' for Active; 'I' for Inactive)
REMARK    1  A    between atoms: C_1  and  C_10
REMARK    2  A    between atoms: C_2  and  C_18
REMARK    3  A    between atoms: C_10  and  C_13
REMARK    4  A    between atoms: C_18  and  C_19
REMARK    5  A    between atoms: C_19  and  N_20
REMARK                            x       y       z     vdW  Elec       q    Type
REMARK                         _______ _______ _______ _____ _____    ______ ____
ROOT
ATOM      1  C   UNL     1      33.139 -10.000 -22.866  0.00  0.00    -0.035 C 
ATOM      2  C   UNL     1      32.969 -11.218 -23.419  0.00  0.00    -0.032 C 
ATOM      3  C   UNL     1      32.135 -12.138 -22.549  0.00  0.00    -0.009 C 
ATOM      4  C   UNL     1      32.438  -9.997 -21.580  0.00  0.00    +0.062 C 
ATOM      5  C   UNL     1      31.843 -11.251 -21.383  0.00  0.00    -0.015 C 
ATOM      6  C   UNL     1      32.306  -8.998 -20.628  0.00  0.00    -0.018 C 
ATOM      7  C   UNL     1      31.109 -11.534 -20.244  0.00  0.00    -0.004 C 
ATOM      8  C   UNL     1      31.567  -9.271 -19.474  0.00  0.00    -0.004 C 
ATOM      9  C   UNL     1      30.974 -10.530 -19.283  0.00  0.00    -0.001 C 
ENDROOT
BRANCH   1  10
ATOM     10  C   UNL     1      33.875  -8.811 -23.366  0.00  0.00    +0.059 C 
ATOM     11  C   UNL     1      34.915  -9.193 -24.431  0.00  0.00    +0.011 C 
BRANCH  10  13
ATOM     12  N   UNL     1      33.533  -6.605 -24.306  0.00  0.00    -0.248 NA
ATOM     13  C   UNL     1      32.938  -7.723 -23.873  0.00  0.00    +0.062 C 
ATOM     14  C   UNL     1      31.589  -7.965 -23.846  0.00  0.00    +0.015 C 
ATOM     15  C   UNL     1      30.761  -6.952 -24.316  0.00  0.00    +0.003 C 
ATOM     16  C   UNL     1      32.697  -5.643 -24.754  0.00  0.00    +0.098 C 
ATOM     17  C   UNL     1      31.317  -5.765 -24.780  0.00  0.00    +0.021 C 
ENDBRANCH  10  13
ENDBRANCH   1  10
BRANCH   2  18
ATOM     18  C   UNL     1      33.481 -11.727 -24.722  0.00  0.00    +0.003 C 
BRANCH  18  19
ATOM     19  C   UNL     1      33.668 -13.242 -24.690  0.00  0.00    -0.073 C 
BRANCH  19  20
ATOM     20  N   UNL     1      32.964 -13.863 -25.805  0.00  0.00    +0.384 N 
ATOM     21  C   UNL     1      33.284 -15.289 -25.887  0.00  0.00    -0.101 C 
ATOM     22  C   UNL     1      33.299 -13.194 -27.063  0.00  0.00    -0.101 C 
ATOM     23  H   UNL     1      31.962 -13.766 -25.644  0.00  0.00    -0.080 HD
ENDBRANCH  19  20
ENDBRANCH  18  19
ENDBRANCH   2  18
TORSDOF 5
ENDMDL
MODEL 7
REMARK VINA RESULT:      -7.8      2.196      4.673
REMARK  Name = 21855
REMARK  5 active torsions:
REMARK  status: ('A' for Active; 'I' for Inactive)
REMARK    1  A    between atoms: C_1  and  C_10
REMARK    2  A    between atoms: C_2  and  C_18
REMARK    3  A    between atoms: C_10  and  C_13
REMARK    4  A    between atoms: C_18  and  C_19
REMARK    5  A    between atoms: C_19  and  N_20
REMARK                            x       y       z     vdW  Elec       q    Type
REMARK                         _______ _______ _______ _____ _____    ______ ____
ROOT
ATOM      1  C   UNL     1      34.151 -23.788 -14.895  0.00  0.00    -0.035 C 
ATOM      2  C   UNL     1      34.004 -24.206 -13.621  0.00  0.00    -0.032 C 
ATOM      3  C   UNL     1      32.555 -24.201 -13.173  0.00  0.00    -0.009 C 
ATOM      4  C   UNL     1      32.817 -23.467 -15.411  0.00  0.00    +0.062 C 
ATOM      5  C   UNL     1      31.871 -23.706 -14.406  0.00  0.00    -0.015 C 
ATOM      6  C   UNL     1      32.422 -23.000 -16.655  0.00  0.00    -0.018 C 
ATOM      7  C   UNL     1      30.520 -23.489 -14.616  0.00  0.00    -0.004 C 
ATOM      8  C   UNL     1      31.060 -22.777 -16.879  0.00  0.00    -0.004 C 
ATOM      9  C   UNL     1      30.117 -23.019 -15.868  0.00  0.00    -0.001 C 
ENDROOT
BRANCH   1  10
ATOM     10  C   UNL     1      35.374 -23.638 -15.724  0.00  0.00    +0.059 C 
ATOM     11  C   UNL     1      35.947 -22.215 -15.637  0.00  0.00    +0.011 C 
BRANCH  10  13
ATOM     12  N   UNL     1      36.039 -25.956 -15.497  0.00  0.00    -0.248 NA
ATOM     13  C   UNL     1      36.431 -24.681 -15.388  0.00  0.00    +0.062 C 
ATOM     14  C   UNL     1      37.674 -24.244 -15.008  0.00  0.00    +0.015 C 
ATOM     15  C   UNL     1      38.617 -25.221 -14.709  0.00  0.00    +0.003 C 
ATOM     16  C   UNL     1      36.981 -26.877 -15.198  0.00  0.00    +0.098 C 
ATOM     17  C   UNL     1      38.273 -26.565 -14.802  0.00  0.00    +0.021 C 
ENDBRANCH  10  13
ENDBRANCH   1  10
BRANCH   2  18
ATOM     18  C   UNL     1      35.053 -24.649 -12.661  0.00  0.00    +0.003 C 
BRANCH  18  19
ATOM     19  C   UNL     1      35.444 -23.522 -11.709  0.00  0.00    -0.073 C 
BRANCH  19  20
ATOM     20  N   UNL     1      36.794 -23.734 -11.201  0.00  0.00    +0.384 N 
ATOM     21  C   UNL     1      37.716 -22.742 -11.759  0.00  0.00    -0.101 C 
ATOM     22  C   UNL     1      37.256 -25.087 -11.514  0.00  0.00    -0.101 C 
ATOM     23  H   UNL     1      36.776 -23.624 -10.188  0.00  0.00    -0.080 HD
ENDBRANCH  19  20
ENDBRANCH  18  19
ENDBRANCH   2  18
TORSDOF 5
ENDMDL
MODEL 8
REMARK VINA RESULT:      -7.7     11.155     14.032
REMARK  Name = 21855
REMARK  5 active torsions:
REMARK  status: ('A' for Active; 'I' for Inactive)
REMARK    1  A    between atoms: C_1  and  C_10
REMARK    2  A    between atoms: C_2  and  C_18
REMARK    3  A    between atoms: C_10  and  C_13
REMARK    4  A    between atoms: C_18  and  C_19
REMARK    5  A    between atoms: C_19  and  N_20
REMARK                            x       y       z     vdW  Elec       q    Type
REMARK                         _______ _______ _______ _____ _____    ______ ____
ROOT
ATOM      1  C   UNL     1      33.114 -12.627 -24.376  0.00  0.00    -0.035 C 
ATOM      2  C   UNL     1      32.790 -11.948 -23.256  0.00  0.00    -0.032 C 
ATOM      3  C   UNL     1      33.472 -10.596 -23.180  0.00  0.00    -0.009 C 
ATOM      4  C   UNL     1      34.040 -11.791 -25.146  0.00  0.00    +0.062 C 
ATOM      5  C   UNL     1      34.257 -10.593 -24.451  0.00  0.00    -0.015 C 
ATOM      6  C   UNL     1      34.664 -12.023 -26.361  0.00  0.00    -0.018 C 
ATOM      7  C   UNL     1      35.093  -9.608 -24.949  0.00  0.00    -0.004 C 
ATOM      8  C   UNL     1      35.510 -11.036 -26.874  0.00  0.00    -0.004 C 
ATOM      9  C   UNL     1      35.723  -9.838 -26.173  0.00  0.00    -0.001 C 
ENDROOT
BRANCH   1  10
ATOM     10  C   UNL     1      32.684 -13.967 -24.848  0.00  0.00    +0.059 C 
ATOM     11  C   UNL     1      32.488 -13.996 -26.372  0.00  0.00    +0.011 C 
BRANCH  10  13
ATOM     12  N   UNL     1      33.946 -15.979 -25.320  0.00  0.00    -0.248 NA
ATOM     13  C   UNL     1      33.626 -15.072 -24.390  0.00  0.00    +0.062 C 
ATOM     14  C   UNL     1      34.062 -15.053 -23.090  0.00  0.00    +0.015 C 
ATOM     15  C   UNL     1      34.922 -16.075 -22.703  0.00  0.00    +0.003 C 
ATOM     16  C   UNL     1      34.783 -16.956 -24.907  0.00  0.00    +0.098 C 
ATOM     17  C   UNL     1      35.294 -17.049 -23.622  0.00  0.00    +0.021 C 
ENDBRANCH  10  13
ENDBRANCH   1  10
BRANCH   2  18
ATOM     18  C   UNL     1      31.884 -12.361 -22.149  0.00  0.00    +0.003 C 
BRANCH  18  19
ATOM     19  C   UNL     1      30.909 -11.244 -21.785  0.00  0.00    -0.073 C 
BRANCH  19  20
ATOM     20  N   UNL     1      31.050 -10.890 -20.377  0.00  0.00    +0.384 N 
ATOM     21  C   UNL     1      31.714  -9.592 -20.237  0.00  0.00    -0.101 C 
ATOM     22  C   UNL     1      31.796 -11.922 -19.657  0.00  0.00    -0.101 C 
ATOM     23  H   UNL     1      30.117 -10.821 -19.970  0.00  0.00    -0.080 HD
ENDBRANCH  19  20
ENDBRANCH  18  19
ENDBRANCH   2  18
TORSDOF 5
ENDMDL
MODEL 9
REMARK VINA RESULT:      -7.6      1.177      5.421
REMARK  Name = 21855
REMARK  5 active torsions:
REMARK  status: ('A' for Active; 'I' for Inactive)
REMARK    1  A    between atoms: C_1  and  C_10
REMARK    2  A    between atoms: C_2  and  C_18
REMARK    3  A    between atoms: C_10  and  C_13
REMARK    4  A    between atoms: C_18  and  C_19
REMARK    5  A    between atoms: C_19  and  N_20
REMARK                            x       y       z     vdW  Elec       q    Type
REMARK                         _______ _______ _______ _____ _____    ______ ____
ROOT
ATOM      1  C   UNL     1      34.662 -23.545 -15.302  0.00  0.00    -0.035 C 
ATOM      2  C   UNL     1      35.828 -23.051 -14.839  0.00  0.00    -0.032 C 
ATOM      3  C   UNL     1      36.577 -22.253 -15.889  0.00  0.00    -0.009 C 
ATOM      4  C   UNL     1      34.527 -23.122 -16.699  0.00  0.00    +0.062 C 
ATOM      5  C   UNL     1      35.648 -22.361 -17.055  0.00  0.00    -0.015 C 
ATOM      6  C   UNL     1      33.518 -23.363 -17.619  0.00  0.00    -0.018 C 
ATOM      7  C   UNL     1      35.789 -21.826 -18.324  0.00  0.00    -0.004 C 
ATOM      8  C   UNL     1      33.649 -22.828 -18.904  0.00  0.00    -0.004 C 
ATOM      9  C   UNL     1      34.775 -22.067 -19.254  0.00  0.00    -0.001 C 
ENDROOT
BRANCH   1  10
ATOM     10  C   UNL     1      33.629 -24.370 -14.625  0.00  0.00    +0.059 C 
ATOM     11  C   UNL     1      33.902 -24.495 -13.118  0.00  0.00    +0.011 C 
BRANCH  10  13
ATOM     12  N   UNL     1      31.441 -24.681 -15.614  0.00  0.00    -0.248 NA
ATOM     13  C   UNL     1      32.218 -23.865 -14.892  0.00  0.00    +0.062 C 
ATOM     14  C   UNL     1      31.862 -22.641 -14.386  0.00  0.00    +0.015 C 
ATOM     15  C   UNL     1      30.566 -22.209 -14.647  0.00  0.00    +0.003 C 
ATOM     16  C   UNL     1      30.189 -24.227 -15.847  0.00  0.00    +0.098 C 
ATOM     17  C   UNL     1      29.708 -23.010 -15.391  0.00  0.00    +0.021 C 
ENDBRANCH  10  13
ENDBRANCH   1  10
BRANCH   2  18
ATOM     18  C   UNL     1      36.426 -23.196 -13.483  0.00  0.00    +0.003 C 
BRANCH  18  19
ATOM     19  C   UNL     1      37.687 -24.055 -13.522  0.00  0.00    -0.073 C 
BRANCH  19  20
ATOM     20  N   UNL     1      37.348 -25.441 -13.822  0.00  0.00    +0.384 N 
ATOM     21  C   UNL     1      37.266 -26.228 -12.590  0.00  0.00    -0.101 C 
ATOM     22  C   UNL     1      38.330 -26.026 -14.734  0.00  0.00    -0.101 C 
ATOM     23  H   UNL     1      36.435 -25.455 -14.276  0.00  0.00    -0.080 HD
ENDBRANCH  19  20
ENDBRANCH  18  19
ENDBRANCH   2  18
TORSDOF 5
ENDMDL
