MODEL 1
REMARK VINA RESULT:     -10.3      0.000      0.000
REMARK  Name = 447961
REMARK  3 active torsions:
REMARK  status: ('A' for Active; 'I' for Inactive)
REMARK    1  A    between atoms: N_1  and  C_18
REMARK    2  A    between atoms: C_4  and  C_12
REMARK    3  A    between atoms: C_21  and  N_26
REMARK                            x       y       z     vdW  Elec       q    Type
REMARK                         _______ _______ _______ _____ _____    ______ ____
ROOT
ATOM      1  N   UNL     1      34.923 -17.827 -24.175  0.00  0.00    -0.247 N 
ATOM      2  N   UNL     1      33.843 -15.871 -23.454  0.00  0.00    -0.341 NA
ATOM      3  N   UNL     1      34.160 -16.317 -25.801  0.00  0.00    -0.170 NA
ATOM      4  C   UNL     1      33.230 -14.718 -23.794  0.00  0.00    +0.140 C 
ATOM      5  C   UNL     1      34.278 -16.615 -24.492  0.00  0.00    +0.148 C 
ATOM      6  C   UNL     1      33.048 -14.302 -25.096  0.00  0.00    +0.051 C 
ATOM      7  C   UNL     1      33.538 -15.150 -26.068  0.00  0.00    +0.114 C 
ATOM      8  H   UNL     1      35.223 -18.333 -24.964  0.00  0.00    +0.165 HD
ENDROOT
BRANCH   4  12
ATOM      9  S   UNL     1      32.391 -12.272 -22.909  0.00  0.00    -0.054 S 
ATOM     10  N   UNL     1      32.095 -13.262 -20.539  0.00  0.00    -0.389 NA
ATOM     11  N   UNL     1      31.552 -10.971 -20.747  0.00  0.00    -0.328 N 
ATOM     12  C   UNL     1      32.767 -13.932 -22.682  0.00  0.00    +0.156 C 
ATOM     13  C   UNL     1      32.548 -14.275 -21.362  0.00  0.00    +0.106 C 
ATOM     14  C   UNL     1      32.752 -15.611 -20.762  0.00  0.00    +0.063 C 
ATOM     15  C   UNL     1      31.976 -12.161 -21.248  0.00  0.00    +0.204 C 
ATOM     16  H   UNL     1      31.486 -10.184 -21.335  0.00  0.00    +0.145 HD
ATOM     17  H   UNL     1      31.311 -10.895 -19.795  0.00  0.00    +0.145 HD
ENDBRANCH   4  12
BRANCH   1  18
ATOM     18  C   UNL     1      35.223 -18.457 -22.950  0.00  0.00    +0.059 C 
ATOM     19  C   UNL     1      34.241 -19.188 -22.282  0.00  0.00    +0.039 C 
ATOM     20  C   UNL     1      36.503 -18.350 -22.407  0.00  0.00    +0.015 C 
ATOM     21  C   UNL     1      34.539 -19.812 -21.070  0.00  0.00    +0.144 C 
ATOM     22  C   UNL     1      36.801 -18.973 -21.194  0.00  0.00    +0.003 C 
ATOM     23  C   UNL     1      35.818 -19.704 -20.527  0.00  0.00    +0.024 C 
BRANCH  21  26
ATOM     24  O   UNL     1      32.349 -20.473 -20.777  0.00  0.00    -0.126 OA
ATOM     25  O   UNL     1      33.874 -21.279 -19.419  0.00  0.00    -0.126 OA
ATOM     26  N   UNL     1      33.539 -20.557 -20.390  0.00  0.00    +0.058 N 
ENDBRANCH  21  26
ENDBRANCH   1  18
TORSDOF 3
ENDMDL
MODEL 2
REMARK VINA RESULT:      -9.9      6.359     10.205
REMARK  Name = 447961
REMARK  3 active torsions:
REMARK  status: ('A' for Active; 'I' for Inactive)
REMARK    1  A    between atoms: N_1  and  C_18
REMARK    2  A    between atoms: C_4  and  C_12
REMARK    3  A    between atoms: C_21  and  N_26
REMARK                            x       y       z     vdW  Elec       q    Type
REMARK                         _______ _______ _______ _____ _____    ______ ____
ROOT
ATOM      1  N   UNL     1      32.802 -22.447 -18.281  0.00  0.00    -0.247 N 
ATOM      2  N   UNL     1      33.981 -22.980 -16.323  0.00  0.00    -0.341 NA
ATOM      3  N   UNL     1      31.652 -23.554 -16.561  0.00  0.00    -0.170 NA
ATOM      4  C   UNL     1      33.954 -23.539 -15.094  0.00  0.00    +0.140 C 
ATOM      5  C   UNL     1      32.812 -23.021 -16.995  0.00  0.00    +0.148 C 
ATOM      6  C   UNL     1      32.831 -24.115 -14.539  0.00  0.00    +0.051 C 
ATOM      7  C   UNL     1      31.697 -24.093 -15.326  0.00  0.00    +0.114 C 
ATOM      8  H   UNL     1      31.928 -22.500 -18.731  0.00  0.00    +0.165 HD
ENDROOT
BRANCH   4  12
ATOM      9  S   UNL     1      35.278 -24.018 -12.752  0.00  0.00    -0.054 S 
ATOM     10  N   UNL     1      37.461 -23.164 -13.844  0.00  0.00    -0.389 NA
ATOM     11  N   UNL     1      37.667 -23.863 -11.595  0.00  0.00    -0.328 N 
ATOM     12  C   UNL     1      35.205 -23.493 -14.385  0.00  0.00    +0.156 C 
ATOM     13  C   UNL     1      36.458 -23.077 -14.790  0.00  0.00    +0.106 C 
ATOM     14  C   UNL     1      36.815 -22.554 -16.126  0.00  0.00    +0.063 C 
ATOM     15  C   UNL     1      36.954 -23.648 -12.731  0.00  0.00    +0.204 C 
ATOM     16  H   UNL     1      37.223 -24.228 -10.796  0.00  0.00    +0.145 HD
ATOM     17  H   UNL     1      38.629 -23.655 -11.571  0.00  0.00    +0.145 HD
ENDBRANCH   4  12
BRANCH   1  18
ATOM     18  C   UNL     1      33.798 -21.812 -19.052  0.00  0.00    +0.059 C 
ATOM     19  C   UNL     1      33.455 -20.769 -19.912  0.00  0.00    +0.039 C 
ATOM     20  C   UNL     1      35.126 -22.226 -18.952  0.00  0.00    +0.015 C 
ATOM     21  C   UNL     1      34.441 -20.140 -20.673  0.00  0.00    +0.144 C 
ATOM     22  C   UNL     1      36.112 -21.599 -19.714  0.00  0.00    +0.003 C 
ATOM     23  C   UNL     1      35.769 -20.556 -20.574  0.00  0.00    +0.024 C 
BRANCH  21  26
ATOM     24  O   UNL     1      34.283 -19.218 -22.780  0.00  0.00    -0.126 OA
ATOM     25  O   UNL     1      33.605 -18.027 -21.066  0.00  0.00    -0.126 OA
ATOM     26  N   UNL     1      34.093 -19.078 -21.549  0.00  0.00    +0.058 N 
ENDBRANCH  21  26
ENDBRANCH   1  18
TORSDOF 3
ENDMDL
MODEL 3
REMARK VINA RESULT:      -9.5      7.516     10.961
REMARK  Name = 447961
REMARK  3 active torsions:
REMARK  status: ('A' for Active; 'I' for Inactive)
REMARK    1  A    between atoms: N_1  and  C_18
REMARK    2  A    between atoms: C_4  and  C_12
REMARK    3  A    between atoms: C_21  and  N_26
REMARK                            x       y       z     vdW  Elec       q    Type
REMARK                         _______ _______ _______ _____ _____    ______ ____
ROOT
ATOM      1  N   UNL     1      34.320 -24.552 -13.472  0.00  0.00    -0.247 N 
ATOM      2  N   UNL     1      34.418 -23.493 -15.564  0.00  0.00    -0.341 NA
ATOM      3  N   UNL     1      32.332 -24.333 -14.698  0.00  0.00    -0.170 NA
ATOM      4  C   UNL     1      33.752 -23.078 -16.662  0.00  0.00    +0.140 C 
ATOM      5  C   UNL     1      33.659 -24.105 -14.632  0.00  0.00    +0.148 C 
ATOM      6  C   UNL     1      32.396 -23.252 -16.848  0.00  0.00    +0.051 C 
ATOM      7  C   UNL     1      31.731 -23.893 -15.823  0.00  0.00    +0.114 C 
ATOM      8  H   UNL     1      33.725 -24.993 -12.823  0.00  0.00    +0.165 HD
ENDROOT
BRANCH   4  12
ATOM      9  S   UNL     1      33.868 -21.914 -19.132  0.00  0.00    -0.054 S 
ATOM     10  N   UNL     1      36.389 -21.466 -18.772  0.00  0.00    -0.389 NA
ATOM     11  N   UNL     1      35.521 -20.726 -20.843  0.00  0.00    -0.328 N 
ATOM     12  C   UNL     1      34.568 -22.425 -17.651  0.00  0.00    +0.156 C 
ATOM     13  C   UNL     1      35.911 -22.101 -17.642  0.00  0.00    +0.106 C 
ATOM     14  C   UNL     1      36.867 -22.371 -16.547  0.00  0.00    +0.063 C 
ATOM     15  C   UNL     1      35.399 -21.315 -19.625  0.00  0.00    +0.204 C 
ATOM     16  H   UNL     1      34.737 -20.646 -21.433  0.00  0.00    +0.145 HD
ATOM     17  H   UNL     1      36.395 -20.379 -21.137  0.00  0.00    +0.145 HD
ENDBRANCH   4  12
BRANCH   1  18
ATOM     18  C   UNL     1      35.667 -24.493 -13.058  0.00  0.00    +0.059 C 
ATOM     19  C   UNL     1      36.631 -25.266 -13.705  0.00  0.00    +0.039 C 
ATOM     20  C   UNL     1      36.035 -23.661 -12.001  0.00  0.00    +0.015 C 
ATOM     21  C   UNL     1      37.963 -25.206 -13.295  0.00  0.00    +0.144 C 
ATOM     22  C   UNL     1      37.366 -23.602 -11.590  0.00  0.00    +0.003 C 
ATOM     23  C   UNL     1      38.330 -24.375 -12.238  0.00  0.00    +0.024 C 
BRANCH  21  26
ATOM     24  O   UNL     1      38.580 -26.999 -14.607  0.00  0.00    -0.126 OA
ATOM     25  O   UNL     1      40.152 -25.659 -13.864  0.00  0.00    -0.126 OA
ATOM     26  N   UNL     1      38.945 -25.993 -13.954  0.00  0.00    +0.058 N 
ENDBRANCH  21  26
ENDBRANCH   1  18
TORSDOF 3
ENDMDL
MODEL 4
REMARK VINA RESULT:      -9.5      8.947     11.455
REMARK  Name = 447961
REMARK  3 active torsions:
REMARK  status: ('A' for Active; 'I' for Inactive)
REMARK    1  A    between atoms: N_1  and  C_18
REMARK    2  A    between atoms: C_4  and  C_12
REMARK    3  A    between atoms: C_21  and  N_26
REMARK                            x       y       z     vdW  Elec       q    Type
REMARK                         _______ _______ _______ _____ _____    ______ ____
ROOT
ATOM      1  N   UNL     1      36.853 -23.226 -16.127  0.00  0.00    -0.247 N 
ATOM      2  N   UNL     1      34.569 -23.607 -15.746  0.00  0.00    -0.341 NA
ATOM      3  N   UNL     1      35.325 -22.529 -17.765  0.00  0.00    -0.170 NA
ATOM      4  C   UNL     1      33.303 -23.485 -16.199  0.00  0.00    +0.140 C 
ATOM      5  C   UNL     1      35.520 -23.116 -16.567  0.00  0.00    +0.148 C 
ATOM      6  C   UNL     1      32.974 -22.904 -17.406  0.00  0.00    +0.051 C 
ATOM      7  C   UNL     1      34.036 -22.440 -18.155  0.00  0.00    +0.114 C 
ATOM      8  H   UNL     1      37.510 -22.853 -16.759  0.00  0.00    +0.165 HD
ENDROOT
BRANCH   4  12
ATOM      9  S   UNL     1      30.697 -24.250 -15.898  0.00  0.00    -0.054 S 
ATOM     10  N   UNL     1      31.192 -24.868 -13.436  0.00  0.00    -0.389 NA
ATOM     11  N   UNL     1      28.964 -25.231 -14.136  0.00  0.00    -0.328 N 
ATOM     12  C   UNL     1      32.295 -24.012 -15.318  0.00  0.00    +0.156 C 
ATOM     13  C   UNL     1      32.365 -24.396 -13.993  0.00  0.00    +0.106 C 
ATOM     14  C   UNL     1      33.566 -24.348 -13.132  0.00  0.00    +0.063 C 
ATOM     15  C   UNL     1      30.246 -24.836 -14.349  0.00  0.00    +0.204 C 
ATOM     16  H   UNL     1      28.304 -25.180 -14.866  0.00  0.00    +0.145 HD
ATOM     17  H   UNL     1      28.693 -25.569 -13.252  0.00  0.00    +0.145 HD
ENDBRANCH   4  12
BRANCH   1  18
ATOM     18  C   UNL     1      37.433 -23.765 -14.960  0.00  0.00    +0.059 C 
ATOM     19  C   UNL     1      36.958 -23.384 -13.705  0.00  0.00    +0.039 C 
ATOM     20  C   UNL     1      38.480 -24.681 -15.061  0.00  0.00    +0.015 C 
ATOM     21  C   UNL     1      37.531 -23.919 -12.551  0.00  0.00    +0.144 C 
ATOM     22  C   UNL     1      39.054 -25.215 -13.907  0.00  0.00    +0.003 C 
ATOM     23  C   UNL     1      38.579 -24.834 -12.652  0.00  0.00    +0.024 C 
BRANCH  21  26
ATOM     24  O   UNL     1      36.501 -24.393 -10.543  0.00  0.00    -0.126 OA
ATOM     25  O   UNL     1      37.181 -22.338 -10.909  0.00  0.00    -0.126 OA
ATOM     26  N   UNL     1      37.048 -23.532 -11.273  0.00  0.00    +0.058 N 
ENDBRANCH  21  26
ENDBRANCH   1  18
TORSDOF 3
ENDMDL
MODEL 5
REMARK VINA RESULT:      -9.5      4.374      7.313
REMARK  Name = 447961
REMARK  3 active torsions:
REMARK  status: ('A' for Active; 'I' for Inactive)
REMARK    1  A    between atoms: N_1  and  C_18
REMARK    2  A    between atoms: C_4  and  C_12
REMARK    3  A    between atoms: C_21  and  N_26
REMARK                            x       y       z     vdW  Elec       q    Type
REMARK                         _______ _______ _______ _____ _____    ______ ____
ROOT
ATOM      1  N   UNL     1      32.309 -12.597 -23.778  0.00  0.00    -0.247 N 
ATOM      2  N   UNL     1      33.415 -14.600 -23.253  0.00  0.00    -0.341 NA
ATOM      3  N   UNL     1      32.904 -14.030 -25.538  0.00  0.00    -0.170 NA
ATOM      4  C   UNL     1      33.976 -15.742 -23.702  0.00  0.00    +0.140 C 
ATOM      5  C   UNL     1      32.904 -13.798 -24.210  0.00  0.00    +0.148 C 
ATOM      6  C   UNL     1      34.038 -16.093 -25.034  0.00  0.00    +0.051 C 
ATOM      7  C   UNL     1      33.480 -15.190 -25.917  0.00  0.00    +0.114 C 
ATOM      8  H   UNL     1      31.950 -12.047 -24.512  0.00  0.00    +0.165 HD
ENDROOT
BRANCH   4  12
ATOM      9  S   UNL     1      34.943 -18.212 -23.045  0.00  0.00    -0.054 S 
ATOM     10  N   UNL     1      35.319 -17.390 -20.623  0.00  0.00    -0.389 NA
ATOM     11  N   UNL     1      35.931 -19.636 -21.028  0.00  0.00    -0.328 N 
ATOM     12  C   UNL     1      34.520 -16.590 -22.675  0.00  0.00    +0.156 C 
ATOM     13  C   UNL     1      34.791 -16.337 -21.344  0.00  0.00    +0.106 C 
ATOM     14  C   UNL     1      34.569 -15.058 -20.636  0.00  0.00    +0.063 C 
ATOM     15  C   UNL     1      35.442 -18.430 -21.417  0.00  0.00    +0.204 C 
ATOM     16  H   UNL     1      35.997 -20.374 -21.678  0.00  0.00    +0.145 HD
ATOM     17  H   UNL     1      36.221 -19.774 -20.098  0.00  0.00    +0.145 HD
ENDBRANCH   4  12
BRANCH   1  18
ATOM     18  C   UNL     1      32.126 -12.027 -22.501  0.00  0.00    +0.059 C 
ATOM     19  C   UNL     1      32.126 -10.640 -22.350  0.00  0.00    +0.039 C 
ATOM     20  C   UNL     1      31.945 -12.849 -21.390  0.00  0.00    +0.015 C 
ATOM     21  C   UNL     1      31.945 -10.077 -21.087  0.00  0.00    +0.144 C 
ATOM     22  C   UNL     1      31.764 -12.287 -20.127  0.00  0.00    +0.003 C 
ATOM     23  C   UNL     1      31.764 -10.900 -19.975  0.00  0.00    +0.024 C 
BRANCH  21  26
ATOM     24  O   UNL     1      32.319  -8.173 -19.840  0.00  0.00    -0.126 OA
ATOM     25  O   UNL     1      31.569  -7.948 -21.891  0.00  0.00    -0.126 OA
ATOM     26  N   UNL     1      31.945  -8.665 -20.931  0.00  0.00    +0.058 N 
ENDBRANCH  21  26
ENDBRANCH   1  18
TORSDOF 3
ENDMDL
MODEL 6
REMARK VINA RESULT:      -9.4      7.064     10.415
REMARK  Name = 447961
REMARK  3 active torsions:
REMARK  status: ('A' for Active; 'I' for Inactive)
REMARK    1  A    between atoms: N_1  and  C_18
REMARK    2  A    between atoms: C_4  and  C_12
REMARK    3  A    between atoms: C_21  and  N_26
REMARK                            x       y       z     vdW  Elec       q    Type
REMARK                         _______ _______ _______ _____ _____    ______ ____
ROOT
ATOM      1  N   UNL     1      34.306 -24.683 -14.451  0.00  0.00    -0.247 N 
ATOM      2  N   UNL     1      34.420 -23.348 -16.379  0.00  0.00    -0.341 NA
ATOM      3  N   UNL     1      32.300 -24.121 -15.531  0.00  0.00    -0.170 NA
ATOM      4  C   UNL     1      33.753 -22.725 -17.373  0.00  0.00    +0.140 C 
ATOM      5  C   UNL     1      33.644 -24.019 -15.503  0.00  0.00    +0.148 C 
ATOM      6  C   UNL     1      32.381 -22.753 -17.511  0.00  0.00    +0.051 C 
ATOM      7  C   UNL     1      31.699 -23.474 -16.551  0.00  0.00    +0.114 C 
ATOM      8  H   UNL     1      33.698 -25.159 -13.840  0.00  0.00    +0.165 HD
ENDROOT
BRANCH   4  12
ATOM      9  S   UNL     1      33.901 -21.345 -19.727  0.00  0.00    -0.054 S 
ATOM     10  N   UNL     1      36.435 -21.011 -19.340  0.00  0.00    -0.389 NA
ATOM     11  N   UNL     1      35.587 -20.059 -21.331  0.00  0.00    -0.328 N 
ATOM     12  C   UNL     1      34.588 -22.010 -18.301  0.00  0.00    +0.156 C 
ATOM     13  C   UNL     1      35.940 -21.732 -18.270  0.00  0.00    +0.106 C 
ATOM     14  C   UNL     1      36.890 -22.130 -17.209  0.00  0.00    +0.063 C 
ATOM     15  C   UNL     1      35.449 -20.752 -20.171  0.00  0.00    +0.204 C 
ATOM     16  H   UNL     1      34.804 -19.900 -21.907  0.00  0.00    +0.145 HD
ATOM     17  H   UNL     1      36.470 -19.714 -21.596  0.00  0.00    +0.145 HD
ENDBRANCH   4  12
BRANCH   1  18
ATOM     18  C   UNL     1      35.667 -24.801 -14.103  0.00  0.00    +0.059 C 
ATOM     19  C   UNL     1      36.197 -24.009 -13.084  0.00  0.00    +0.039 C 
ATOM     20  C   UNL     1      36.483 -25.709 -14.776  0.00  0.00    +0.015 C 
ATOM     21  C   UNL     1      37.543 -24.126 -12.739  0.00  0.00    +0.144 C 
ATOM     22  C   UNL     1      37.830 -25.825 -14.432  0.00  0.00    +0.003 C 
ATOM     23  C   UNL     1      38.360 -25.034 -13.413  0.00  0.00    +0.024 C 
BRANCH  21  26
ATOM     24  O   UNL     1      37.302 -22.765 -10.893  0.00  0.00    -0.126 OA
ATOM     25  O   UNL     1      39.329 -23.187 -11.621  0.00  0.00    -0.126 OA
ATOM     26  N   UNL     1      38.084 -23.320 -11.701  0.00  0.00    +0.058 N 
ENDBRANCH  21  26
ENDBRANCH   1  18
TORSDOF 3
ENDMDL
MODEL 7
REMARK VINA RESULT:      -9.3      2.766      3.647
REMARK  Name = 447961
REMARK  3 active torsions:
REMARK  status: ('A' for Active; 'I' for Inactive)
REMARK    1  A    between atoms: N_1  and  C_18
REMARK    2  A    between atoms: C_4  and  C_12
REMARK    3  A    between atoms: C_21  and  N_26
REMARK                            x       y       z     vdW  Elec       q    Type
REMARK                         _______ _______ _______ _____ _____    ______ ____
ROOT
ATOM      1  N   UNL     1      33.906 -15.954 -24.617  0.00  0.00    -0.247 N 
ATOM      2  N   UNL     1      33.856 -13.610 -24.727  0.00  0.00    -0.341 NA
ATOM      3  N   UNL     1      33.386 -14.952 -26.674  0.00  0.00    -0.170 NA
ATOM      4  C   UNL     1      33.658 -12.510 -25.484  0.00  0.00    +0.140 C 
ATOM      5  C   UNL     1      33.706 -14.784 -25.375  0.00  0.00    +0.148 C 
ATOM      6  C   UNL     1      33.328 -12.550 -26.822  0.00  0.00    +0.051 C 
ATOM      7  C   UNL     1      33.204 -13.811 -27.370  0.00  0.00    +0.114 C 
ATOM      8  H   UNL     1      33.787 -16.784 -25.132  0.00  0.00    +0.165 HD
ENDROOT
BRANCH   4  12
ATOM      9  S   UNL     1      32.747 -10.857 -23.507  0.00  0.00    -0.054 S 
ATOM     10  N   UNL     1      34.610  -9.166 -24.101  0.00  0.00    -0.389 NA
ATOM     11  N   UNL     1      33.187  -8.515 -22.329  0.00  0.00    -0.328 N 
ATOM     12  C   UNL     1      33.819 -11.263 -24.786  0.00  0.00    +0.156 C 
ATOM     13  C   UNL     1      34.738 -10.245 -24.954  0.00  0.00    +0.106 C 
ATOM     14  C   UNL     1      35.830 -10.211 -25.950  0.00  0.00    +0.063 C 
ATOM     15  C   UNL     1      33.593  -9.380 -23.295  0.00  0.00    +0.204 C 
ATOM     16  H   UNL     1      32.416  -8.739 -21.759  0.00  0.00    +0.145 HD
ATOM     17  H   UNL     1      33.665  -7.664 -22.197  0.00  0.00    +0.145 HD
ENDBRANCH   4  12
BRANCH   1  18
ATOM     18  C   UNL     1      34.243 -16.171 -23.264  0.00  0.00    +0.059 C 
ATOM     19  C   UNL     1      34.675 -17.429 -22.846  0.00  0.00    +0.039 C 
ATOM     20  C   UNL     1      34.144 -15.126 -22.346  0.00  0.00    +0.015 C 
ATOM     21  C   UNL     1      35.008 -17.642 -21.508  0.00  0.00    +0.144 C 
ATOM     22  C   UNL     1      34.477 -15.339 -21.008  0.00  0.00    +0.003 C 
ATOM     23  C   UNL     1      34.909 -16.597 -20.590  0.00  0.00    +0.024 C 
BRANCH  21  26
ATOM     24  O   UNL     1      36.416 -18.999 -20.286  0.00  0.00    -0.126 OA
ATOM     25  O   UNL     1      34.858 -19.944 -21.511  0.00  0.00    -0.126 OA
ATOM     26  N   UNL     1      35.449 -18.923 -21.081  0.00  0.00    +0.058 N 
ENDBRANCH  21  26
ENDBRANCH   1  18
TORSDOF 3
ENDMDL
MODEL 8
REMARK VINA RESULT:      -9.2      8.765     11.362
REMARK  Name = 447961
REMARK  3 active torsions:
REMARK  status: ('A' for Active; 'I' for Inactive)
REMARK    1  A    between atoms: N_1  and  C_18
REMARK    2  A    between atoms: C_4  and  C_12
REMARK    3  A    between atoms: C_21  and  N_26
REMARK                            x       y       z     vdW  Elec       q    Type
REMARK                         _______ _______ _______ _____ _____    ______ ____
ROOT
ATOM      1  N   UNL     1      36.809 -23.059 -16.434  0.00  0.00    -0.247 N 
ATOM      2  N   UNL     1      34.554 -23.501 -15.953  0.00  0.00    -0.341 NA
ATOM      3  N   UNL     1      35.185 -22.333 -17.964  0.00  0.00    -0.170 NA
ATOM      4  C   UNL     1      33.265 -23.388 -16.336  0.00  0.00    +0.140 C 
ATOM      5  C   UNL     1      35.453 -22.960 -16.801  0.00  0.00    +0.148 C 
ATOM      6  C   UNL     1      32.863 -22.770 -17.501  0.00  0.00    +0.051 C 
ATOM      7  C   UNL     1      33.877 -22.255 -18.285  0.00  0.00    +0.114 C 
ATOM      8  H   UNL     1      37.425 -22.649 -17.083  0.00  0.00    +0.165 HD
ENDROOT
BRANCH   4  12
ATOM      9  S   UNL     1      30.696 -24.228 -15.936  0.00  0.00    -0.054 S 
ATOM     10  N   UNL     1      31.324 -24.912 -13.523  0.00  0.00    -0.389 NA
ATOM     11  N   UNL     1      29.073 -25.309 -14.128  0.00  0.00    -0.328 N 
ATOM     12  C   UNL     1      32.314 -23.969 -15.426  0.00  0.00    +0.156 C 
ATOM     13  C   UNL     1      32.457 -24.393 -14.119  0.00  0.00    +0.106 C 
ATOM     14  C   UNL     1      33.696 -24.342 -13.315  0.00  0.00    +0.063 C 
ATOM     15  C   UNL     1      30.334 -24.875 -14.388  0.00  0.00    +0.204 C 
ATOM     16  H   UNL     1      28.379 -25.252 -14.823  0.00  0.00    +0.145 HD
ATOM     17  H   UNL     1      28.853 -25.682 -13.243  0.00  0.00    +0.145 HD
ENDBRANCH   4  12
BRANCH   1  18
ATOM     18  C   UNL     1      37.457 -23.629 -15.319  0.00  0.00    +0.059 C 
ATOM     19  C   UNL     1      38.546 -24.482 -15.506  0.00  0.00    +0.039 C 
ATOM     20  C   UNL     1      37.011 -23.340 -14.030  0.00  0.00    +0.015 C 
ATOM     21  C   UNL     1      39.187 -25.045 -14.403  0.00  0.00    +0.144 C 
ATOM     22  C   UNL     1      37.652 -23.905 -12.927  0.00  0.00    +0.003 C 
ATOM     23  C   UNL     1      38.740 -24.757 -13.114  0.00  0.00    +0.024 C 
BRANCH  21  26
ATOM     24  O   UNL     1      40.829 -26.445 -13.590  0.00  0.00    -0.126 OA
ATOM     25  O   UNL     1      40.711 -26.124 -15.758  0.00  0.00    -0.126 OA
ATOM     26  N   UNL     1      40.296 -25.913 -14.592  0.00  0.00    +0.058 N 
ENDBRANCH  21  26
ENDBRANCH   1  18
TORSDOF 3
ENDMDL
MODEL 9
REMARK VINA RESULT:      -9.1      3.712      6.779
REMARK  Name = 447961
REMARK  3 active torsions:
REMARK  status: ('A' for Active; 'I' for Inactive)
REMARK    1  A    between atoms: N_1  and  C_18
REMARK    2  A    between atoms: C_4  and  C_12
REMARK    3  A    between atoms: C_21  and  N_26
REMARK                            x       y       z     vdW  Elec       q    Type
REMARK                         _______ _______ _______ _____ _____    ______ ____
ROOT
ATOM      1  N   UNL     1      33.792 -15.450 -23.649  0.00  0.00    -0.247 N 
ATOM      2  N   UNL     1      34.098 -17.538 -22.620  0.00  0.00    -0.341 NA
ATOM      3  N   UNL     1      34.671 -17.203 -24.938  0.00  0.00    -0.170 NA
ATOM      4  C   UNL     1      34.504 -18.819 -22.744  0.00  0.00    +0.140 C 
ATOM      5  C   UNL     1      34.207 -16.793 -23.740  0.00  0.00    +0.148 C 
ATOM      6  C   UNL     1      34.997 -19.358 -23.914  0.00  0.00    +0.051 C 
ATOM      7  C   UNL     1      35.059 -18.495 -24.989  0.00  0.00    +0.114 C 
ATOM      8  H   UNL     1      33.889 -14.949 -24.491  0.00  0.00    +0.165 HD
ENDROOT
BRANCH   4  12
ATOM      9  S   UNL     1      32.852 -20.207 -21.067  0.00  0.00    -0.054 S 
ATOM     10  N   UNL     1      34.885 -20.767 -19.571  0.00  0.00    -0.389 NA
ATOM     11  N   UNL     1      32.818 -21.640 -18.827  0.00  0.00    -0.328 N 
ATOM     12  C   UNL     1      34.387 -19.606 -21.545  0.00  0.00    +0.156 C 
ATOM     13  C   UNL     1      35.341 -20.004 -20.629  0.00  0.00    +0.106 C 
ATOM     14  C   UNL     1      36.786 -19.692 -20.682  0.00  0.00    +0.063 C 
ATOM     15  C   UNL     1      33.587 -20.937 -19.699  0.00  0.00    +0.204 C 
ATOM     16  H   UNL     1      31.850 -21.728 -18.984  0.00  0.00    +0.145 HD
ATOM     17  H   UNL     1      33.229 -22.063 -18.038  0.00  0.00    +0.145 HD
ENDBRANCH   4  12
BRANCH   1  18
ATOM     18  C   UNL     1      33.265 -14.683 -22.590  0.00  0.00    +0.059 C 
ATOM     19  C   UNL     1      32.708 -13.430 -22.846  0.00  0.00    +0.039 C 
ATOM     20  C   UNL     1      33.300 -15.178 -21.287  0.00  0.00    +0.015 C 
ATOM     21  C   UNL     1      32.186 -12.672 -21.797  0.00  0.00    +0.144 C 
ATOM     22  C   UNL     1      32.779 -14.419 -20.238  0.00  0.00    +0.003 C 
ATOM     23  C   UNL     1      32.222 -13.167 -20.494  0.00  0.00    +0.024 C 
BRANCH  21  26
ATOM     24  O   UNL     1      30.460 -11.151 -21.642  0.00  0.00    -0.126 OA
ATOM     25  O   UNL     1      32.290 -10.550 -22.695  0.00  0.00    -0.126 OA
ATOM     26  N   UNL     1      31.618 -11.396 -22.057  0.00  0.00    +0.058 N 
ENDBRANCH  21  26
ENDBRANCH   1  18
TORSDOF 3
ENDMDL
