MODEL 1
REMARK VINA RESULT:     -10.0      0.000      0.000
REMARK  Name = 133967
REMARK  0 active torsions:
REMARK  status: ('A' for Active; 'I' for Inactive)
REMARK                            x       y       z     vdW  Elec       q    Type
REMARK                         _______ _______ _______ _____ _____    ______ ____
ROOT
ATOM      1  F   UNL     1      36.734 -22.752 -12.271  0.00  0.00    -0.229 F 
ATOM      2  O   UNL     1      34.444 -24.575 -12.418  0.00  0.00    -0.293 OA
ATOM      3  C   UNL     1      34.456 -22.363 -17.155  0.00  0.00    +0.004 C 
ATOM      4  C   UNL     1      35.876 -22.817 -16.700  0.00  0.00    +0.005 C 
ATOM      5  C   UNL     1      35.865 -23.055 -15.188  0.00  0.00    +0.010 C 
ATOM      6  C   UNL     1      34.840 -24.131 -14.777  0.00  0.00    +0.054 C 
ATOM      7  C   UNL     1      34.396 -22.138 -18.719  0.00  0.00    +0.015 C 
ATOM      8  C   UNL     1      33.323 -23.269 -16.597  0.00  0.00    +0.001 C 
ATOM      9  C   UNL     1      33.451 -23.587 -15.097  0.00  0.00    +0.007 C 
ATOM     10  C   UNL     1      37.153 -23.473 -14.482  0.00  0.00    +0.043 C 
ATOM     11  C   UNL     1      36.918 -21.755 -17.081  0.00  0.00    +0.025 C 
ATOM     12  C   UNL     1      35.629 -21.366 -19.207  0.00  0.00    -0.049 C 
ATOM     13  C   UNL     1      33.114 -21.314 -19.044  0.00  0.00    +0.004 C 
ATOM     14  C   UNL     1      35.208 -24.231 -13.309  0.00  0.00    +0.182 C 
ATOM     15  C   UNL     1      36.658 -23.840 -13.078  0.00  0.00    +0.218 C 
ATOM     16  C   UNL     1      35.054 -25.530 -15.383  0.00  0.00    +0.007 C 
ATOM     17  C   UNL     1      36.731 -21.198 -18.455  0.00  0.00    -0.035 C 
ATOM     18  C   UNL     1      34.345 -23.486 -19.478  0.00  0.00    +0.004 C 
ATOM     19  C   UNL     1      35.567 -20.772 -20.597  0.00  0.00    +0.022 C 
ATOM     20  C   UNL     1      33.053 -20.780 -20.476  0.00  0.00    +0.001 C 
ATOM     21  C   UNL     1      34.294 -19.962 -20.810  0.00  0.00    +0.004 C 
ENDROOT
TORSDOF 0
ENDMDL
MODEL 2
REMARK VINA RESULT:      -8.5      3.368      5.785
REMARK  Name = 133967
REMARK  0 active torsions:
REMARK  status: ('A' for Active; 'I' for Inactive)
REMARK                            x       y       z     vdW  Elec       q    Type
REMARK                         _______ _______ _______ _____ _____    ______ ____
ROOT
ATOM      1  F   UNL     1      29.263 -24.216 -17.309  0.00  0.00    -0.229 F 
ATOM      2  O   UNL     1      28.778 -24.910 -14.503  0.00  0.00    -0.293 OA
ATOM      3  C   UNL     1      33.984 -24.472 -14.693  0.00  0.00    +0.004 C 
ATOM      4  C   UNL     1      33.255 -23.299 -15.417  0.00  0.00    +0.005 C 
ATOM      5  C   UNL     1      31.802 -23.701 -15.684  0.00  0.00    +0.010 C 
ATOM      6  C   UNL     1      31.045 -24.034 -14.383  0.00  0.00    +0.054 C 
ATOM      7  C   UNL     1      35.483 -24.099 -14.356  0.00  0.00    +0.015 C 
ATOM      8  C   UNL     1      33.180 -25.032 -13.487  0.00  0.00    +0.001 C 
ATOM      9  C   UNL     1      31.690 -25.280 -13.782  0.00  0.00    +0.007 C 
ATOM     10  C   UNL     1      30.877 -22.735 -16.421  0.00  0.00    +0.043 C 
ATOM     11  C   UNL     1      33.978 -22.955 -16.727  0.00  0.00    +0.025 C 
ATOM     12  C   UNL     1      36.157 -23.414 -15.553  0.00  0.00    -0.049 C 
ATOM     13  C   UNL     1      36.249 -25.414 -14.022  0.00  0.00    +0.004 C 
ATOM     14  C   UNL     1      29.660 -24.208 -14.978  0.00  0.00    +0.182 C 
ATOM     15  C   UNL     1      29.505 -23.398 -16.253  0.00  0.00    +0.218 C 
ATOM     16  C   UNL     1      30.943 -22.896 -13.352  0.00  0.00    +0.007 C 
ATOM     17  C   UNL     1      35.468 -22.927 -16.600  0.00  0.00    -0.035 C 
ATOM     18  C   UNL     1      35.564 -23.136 -13.147  0.00  0.00    +0.004 C 
ATOM     19  C   UNL     1      37.665 -23.305 -15.527  0.00  0.00    +0.022 C 
ATOM     20  C   UNL     1      37.768 -25.257 -13.943  0.00  0.00    +0.001 C 
ATOM     21  C   UNL     1      38.325 -24.645 -15.221  0.00  0.00    +0.004 C 
ENDROOT
TORSDOF 0
ENDMDL
MODEL 3
REMARK VINA RESULT:      -7.8      2.525      4.559
REMARK  Name = 133967
REMARK  0 active torsions:
REMARK  status: ('A' for Active; 'I' for Inactive)
REMARK                            x       y       z     vdW  Elec       q    Type
REMARK                         _______ _______ _______ _____ _____    ______ ____
ROOT
ATOM      1  F   UNL     1      37.791 -21.465 -15.783  0.00  0.00    -0.229 F 
ATOM      2  O   UNL     1      37.863 -23.357 -13.546  0.00  0.00    -0.293 OA
ATOM      3  C   UNL     1      32.794 -23.280 -14.821  0.00  0.00    +0.004 C 
ATOM      4  C   UNL     1      33.725 -23.399 -16.065  0.00  0.00    +0.005 C 
ATOM      5  C   UNL     1      35.148 -22.998 -15.667  0.00  0.00    +0.010 C 
ATOM      6  C   UNL     1      35.706 -23.887 -14.537  0.00  0.00    +0.054 C 
ATOM      7  C   UNL     1      31.314 -23.720 -15.162  0.00  0.00    +0.015 C 
ATOM      8  C   UNL     1      33.385 -23.962 -13.555  0.00  0.00    +0.001 C 
ATOM      9  C   UNL     1      34.864 -23.629 -13.291  0.00  0.00    +0.007 C 
ATOM     10  C   UNL     1      36.251 -22.992 -16.722  0.00  0.00    +0.043 C 
ATOM     11  C   UNL     1      33.203 -22.510 -17.203  0.00  0.00    +0.025 C 
ATOM     12  C   UNL     1      30.864 -23.123 -16.503  0.00  0.00    -0.049 C 
ATOM     13  C   UNL     1      30.377 -23.200 -14.031  0.00  0.00    +0.004 C 
ATOM     14  C   UNL     1      37.125 -23.350 -14.521  0.00  0.00    +0.182 C 
ATOM     15  C   UNL     1      37.515 -22.790 -15.878  0.00  0.00    +0.218 C 
ATOM     16  C   UNL     1      35.806 -25.391 -14.851  0.00  0.00    +0.007 C 
ATOM     17  C   UNL     1      31.721 -22.579 -17.385  0.00  0.00    -0.035 C 
ATOM     18  C   UNL     1      31.195 -25.260 -15.261  0.00  0.00    +0.004 C 
ATOM     19  C   UNL     1      29.384 -23.156 -16.811  0.00  0.00    +0.022 C 
ATOM     20  C   UNL     1      28.885 -23.304 -14.349  0.00  0.00    +0.001 C 
ATOM     21  C   UNL     1      28.553 -22.602 -15.659  0.00  0.00    +0.004 C 
ENDROOT
TORSDOF 0
ENDMDL
MODEL 4
REMARK VINA RESULT:      -7.6     10.770     14.240
REMARK  Name = 133967
REMARK  0 active torsions:
REMARK  status: ('A' for Active; 'I' for Inactive)
REMARK                            x       y       z     vdW  Elec       q    Type
REMARK                         _______ _______ _______ _____ _____    ______ ____
ROOT
ATOM      1  F   UNL     1      32.897  -6.744 -20.011  0.00  0.00    -0.229 F 
ATOM      2  O   UNL     1      33.172  -6.305 -22.895  0.00  0.00    -0.293 OA
ATOM      3  C   UNL     1      33.218 -11.518 -22.520  0.00  0.00    +0.004 C 
ATOM      4  C   UNL     1      32.092 -10.864 -21.664  0.00  0.00    +0.005 C 
ATOM      5  C   UNL     1      32.397  -9.374 -21.489  0.00  0.00    +0.010 C 
ATOM      6  C   UNL     1      32.489  -8.639 -22.841  0.00  0.00    +0.054 C 
ATOM      7  C   UNL     1      32.937 -13.055 -22.767  0.00  0.00    +0.015 C 
ATOM      8  C   UNL     1      33.543 -10.715 -23.810  0.00  0.00    +0.001 C 
ATOM      9  C   UNL     1      33.696  -9.200 -23.587  0.00  0.00    +0.007 C 
ATOM     10  C   UNL     1      31.459  -8.507 -20.652  0.00  0.00    +0.043 C 
ATOM     11  C   UNL     1      31.987 -11.566 -20.302  0.00  0.00    +0.025 C 
ATOM     12  C   UNL     1      32.477 -13.740 -21.473  0.00  0.00    -0.049 C 
ATOM     13  C   UNL     1      34.258 -13.720 -23.255  0.00  0.00    +0.004 C 
ATOM     14  C   UNL     1      32.618  -7.224 -22.309  0.00  0.00    +0.182 C 
ATOM     15  C   UNL     1      31.971  -7.091 -20.941  0.00  0.00    +0.218 C 
ATOM     16  C   UNL     1      31.220  -8.670 -23.713  0.00  0.00    +0.007 C 
ATOM     17  C   UNL     1      32.072 -13.056 -20.388  0.00  0.00    -0.035 C 
ATOM     18  C   UNL     1      31.834 -13.259 -23.834  0.00  0.00    +0.004 C 
ATOM     19  C   UNL     1      32.497 -15.252 -21.447  0.00  0.00    +0.022 C 
ATOM     20  C   UNL     1      34.226 -15.249 -23.276  0.00  0.00    +0.001 C 
ATOM     21  C   UNL     1      33.837 -15.808 -21.913  0.00  0.00    +0.004 C 
ENDROOT
TORSDOF 0
ENDMDL
MODEL 5
REMARK VINA RESULT:      -7.5      7.082     10.289
REMARK  Name = 133967
REMARK  0 active torsions:
REMARK  status: ('A' for Active; 'I' for Inactive)
REMARK                            x       y       z     vdW  Elec       q    Type
REMARK                         _______ _______ _______ _____ _____    ______ ____
ROOT
ATOM      1  F   UNL     1      36.345 -19.687 -22.943  0.00  0.00    -0.229 F 
ATOM      2  O   UNL     1      35.683 -18.691 -20.268  0.00  0.00    -0.293 OA
ATOM      3  C   UNL     1      34.304 -14.700 -23.350  0.00  0.00    +0.004 C 
ATOM      4  C   UNL     1      33.811 -16.076 -23.891  0.00  0.00    +0.005 C 
ATOM      5  C   UNL     1      34.587 -17.196 -23.194  0.00  0.00    +0.010 C 
ATOM      6  C   UNL     1      34.402 -17.165 -21.664  0.00  0.00    +0.054 C 
ATOM      7  C   UNL     1      33.509 -13.502 -24.007  0.00  0.00    +0.015 C 
ATOM      8  C   UNL     1      34.368 -14.647 -21.797  0.00  0.00    +0.001 C 
ATOM      9  C   UNL     1      35.035 -15.874 -21.152  0.00  0.00    +0.007 C 
ATOM     10  C   UNL     1      34.317 -18.650 -23.577  0.00  0.00    +0.043 C 
ATOM     11  C   UNL     1      33.998 -16.143 -25.414  0.00  0.00    +0.025 C 
ATOM     12  C   UNL     1      33.362 -13.710 -25.520  0.00  0.00    -0.049 C 
ATOM     13  C   UNL     1      34.303 -12.187 -23.746  0.00  0.00    +0.004 C 
ATOM     14  C   UNL     1      35.129 -18.455 -21.332  0.00  0.00    +0.182 C 
ATOM     15  C   UNL     1      35.089 -19.424 -22.501  0.00  0.00    +0.218 C 
ATOM     16  C   UNL     1      32.958 -17.328 -21.156  0.00  0.00    +0.007 C 
ATOM     17  C   UNL     1      33.598 -14.889 -26.122  0.00  0.00    -0.035 C 
ATOM     18  C   UNL     1      32.089 -13.372 -23.403  0.00  0.00    +0.004 C 
ATOM     19  C   UNL     1      32.939 -12.514 -26.344  0.00  0.00    +0.022 C 
ATOM     20  C   UNL     1      33.812 -10.982 -24.549  0.00  0.00    +0.001 C 
ATOM     21  C   UNL     1      33.791 -11.288 -26.041  0.00  0.00    +0.004 C 
ENDROOT
TORSDOF 0
ENDMDL
MODEL 6
REMARK VINA RESULT:      -7.4      3.458      6.028
REMARK  Name = 133967
REMARK  0 active torsions:
REMARK  status: ('A' for Active; 'I' for Inactive)
REMARK                            x       y       z     vdW  Elec       q    Type
REMARK                         _______ _______ _______ _____ _____    ______ ____
ROOT
ATOM      1  F   UNL     1      29.005 -21.515 -14.464  0.00  0.00    -0.229 F 
ATOM      2  O   UNL     1      29.273 -22.353 -17.260  0.00  0.00    -0.293 OA
ATOM      3  C   UNL     1      33.981 -23.456 -15.276  0.00  0.00    +0.004 C 
ATOM      4  C   UNL     1      32.815 -23.928 -14.355  0.00  0.00    +0.005 C 
ATOM      5  C   UNL     1      31.526 -23.218 -14.775  0.00  0.00    +0.010 C 
ATOM      6  C   UNL     1      31.155 -23.510 -16.243  0.00  0.00    +0.054 C 
ATOM      7  C   UNL     1      35.336 -24.187 -14.913  0.00  0.00    +0.015 C 
ATOM      8  C   UNL     1      33.618 -23.502 -16.786  0.00  0.00    +0.001 C 
ATOM      9  C   UNL     1      32.242 -22.899 -17.122  0.00  0.00    +0.007 C 
ATOM     10  C   UNL     1      30.236 -23.478 -14.001  0.00  0.00    +0.043 C 
ATOM     11  C   UNL     1      33.150 -23.633 -12.885  0.00  0.00    +0.025 C 
ATOM     12  C   UNL     1      35.543 -24.228 -13.393  0.00  0.00    -0.049 C 
ATOM     13  C   UNL     1      36.508 -23.396 -15.567  0.00  0.00    +0.004 C 
ATOM     14  C   UNL     1      29.801 -22.826 -16.264  0.00  0.00    +0.182 C 
ATOM     15  C   UNL     1      29.180 -22.796 -14.878  0.00  0.00    +0.218 C 
ATOM     16  C   UNL     1      30.908 -24.989 -16.593  0.00  0.00    +0.007 C 
ATOM     17  C   UNL     1      34.559 -23.965 -12.514  0.00  0.00    -0.035 C 
ATOM     18  C   UNL     1      35.345 -25.644 -15.436  0.00  0.00    +0.004 C 
ATOM     19  C   UNL     1      36.927 -24.576 -12.893  0.00  0.00    +0.022 C 
ATOM     20  C   UNL     1      37.898 -23.813 -15.086  0.00  0.00    +0.001 C 
ATOM     21  C   UNL     1      38.001 -23.731 -13.568  0.00  0.00    +0.004 C 
ENDROOT
TORSDOF 0
ENDMDL
MODEL 7
REMARK VINA RESULT:      -7.3     16.625     20.235
REMARK  Name = 133967
REMARK  0 active torsions:
REMARK  status: ('A' for Active; 'I' for Inactive)
REMARK                            x       y       z     vdW  Elec       q    Type
REMARK                         _______ _______ _______ _____ _____    ______ ____
ROOT
ATOM      1  F   UNL     1      32.808  -2.976 -29.060  0.00  0.00    -0.229 F 
ATOM      2  O   UNL     1      30.679  -1.786 -27.435  0.00  0.00    -0.293 OA
ATOM      3  C   UNL     1      31.975  -6.042 -24.690  0.00  0.00    +0.004 C 
ATOM      4  C   UNL     1      33.219  -5.241 -25.180  0.00  0.00    +0.005 C 
ATOM      5  C   UNL     1      32.791  -4.284 -26.296  0.00  0.00    +0.010 C 
ATOM      6  C   UNL     1      31.710  -3.291 -25.825  0.00  0.00    +0.054 C 
ATOM      7  C   UNL     1      32.349  -7.022 -23.507  0.00  0.00    +0.015 C 
ATOM      8  C   UNL     1      30.746  -5.135 -24.402  0.00  0.00    +0.001 C 
ATOM      9  C   UNL     1      30.456  -4.097 -25.500  0.00  0.00    +0.007 C 
ATOM     10  C   UNL     1      33.839  -3.406 -26.977  0.00  0.00    +0.043 C 
ATOM     11  C   UNL     1      34.308  -6.205 -25.672  0.00  0.00    +0.025 C 
ATOM     12  C   UNL     1      33.656  -7.767 -23.809  0.00  0.00    -0.049 C 
ATOM     13  C   UNL     1      31.195  -8.058 -23.349  0.00  0.00    +0.004 C 
ATOM     14  C   UNL     1      31.656  -2.425 -27.070  0.00  0.00    +0.182 C 
ATOM     15  C   UNL     1      32.978  -2.456 -27.818  0.00  0.00    +0.218 C 
ATOM     16  C   UNL     1      32.107  -2.366 -24.660  0.00  0.00    +0.007 C 
ATOM     17  C   UNL     1      34.502  -7.392 -24.784  0.00  0.00    -0.035 C 
ATOM     18  C   UNL     1      32.533  -6.252 -22.177  0.00  0.00    +0.004 C 
ATOM     19  C   UNL     1      33.974  -8.977 -22.958  0.00  0.00    +0.022 C 
ATOM     20  C   UNL     1      31.527  -9.237 -22.434  0.00  0.00    +0.001 C 
ATOM     21  C   UNL     1      32.798  -9.944 -22.887  0.00  0.00    +0.004 C 
ENDROOT
TORSDOF 0
ENDMDL
