MODEL 1
REMARK VINA RESULT:      -9.8      0.000      0.000
REMARK  Name = 10409873
REMARK  6 active torsions:
REMARK  status: ('A' for Active; 'I' for Inactive)
REMARK    1  A    between atoms: C_4  and  C_19
REMARK    2  A    between atoms: C_5  and  N_22
REMARK    3  A    between atoms: C_6  and  C_11
REMARK    4  A    between atoms: C_7  and  O_28
REMARK    5  A    between atoms: N_22  and  S_24
REMARK    6  A    between atoms: O_28  and  C_29
REMARK                            x       y       z     vdW  Elec       q    Type
REMARK                         _______ _______ _______ _____ _____    ______ ____
ROOT
ATOM      1  O   UNL     1      33.836 -16.313 -21.158  0.00  0.00    -0.453 OA
ATOM      2  C   UNL     1      33.847 -15.586 -23.298  0.00  0.00    +0.045 A 
ATOM      3  C   UNL     1      33.605 -15.243 -21.970  0.00  0.00    +0.147 A 
ATOM      4  C   UNL     1      34.247 -16.947 -23.278  0.00  0.00    +0.091 A 
ATOM      5  C   UNL     1      33.010 -13.022 -22.554  0.00  0.00    +0.101 C 
ATOM      6  C   UNL     1      34.225 -17.339 -21.959  0.00  0.00    +0.150 A 
ATOM      7  C   UNL     1      33.240 -13.326 -23.898  0.00  0.00    +0.153 C 
ATOM      8  C   UNL     1      33.660 -14.606 -24.287  0.00  0.00    +0.041 C 
ATOM      9  C   UNL     1      33.188 -13.981 -21.553  0.00  0.00    +0.056 C 
ENDROOT
BRANCH   6  11
ATOM     10  F   UNL     1      35.360 -22.096 -19.288  0.00  0.00    -0.204 F 
ATOM     11  C   UNL     1      34.518 -18.567 -21.271  0.00  0.00    +0.035 C 
ATOM     12  C   UNL     1      35.843 -18.934 -21.023  0.00  0.00    +0.005 C 
ATOM     13  C   UNL     1      33.479 -19.399 -20.846  0.00  0.00    +0.005 C 
ATOM     14  C   UNL     1      36.127 -20.125 -20.354  0.00  0.00    +0.030 C 
ATOM     15  C   UNL     1      33.762 -20.589 -20.176  0.00  0.00    +0.030 C 
ATOM     16  C   UNL     1      35.087 -20.952 -19.931  0.00  0.00    +0.140 C 
ENDBRANCH   6  11
BRANCH   4  19
ATOM     17  O   UNL     1      34.966 -17.318 -25.491  0.00  0.00    -0.270 OA
ATOM     18  N   UNL     1      34.585 -19.170 -24.172  0.00  0.00    -0.299 N 
ATOM     19  C   UNL     1      34.612 -17.782 -24.387  0.00  0.00    +0.249 C 
ATOM     20  C   UNL     1      34.953 -20.138 -25.180  0.00  0.00    +0.111 C 
ATOM     21  H   UNL     1      34.301 -19.500 -23.289  0.00  0.00    +0.150 HD
ENDBRANCH   4  19
BRANCH   5  22
ATOM     22  N   UNL     1      32.580 -11.710 -22.178  0.00  0.00    -0.216 N 
ATOM     23  H   UNL     1      32.872 -10.917 -22.683  0.00  0.00    +0.173 HD
BRANCH  22  24
ATOM     24  S   UNL     1      31.535 -11.557 -20.819  0.00  0.00    +0.056 S 
ATOM     25  O   UNL     1      30.163 -11.603 -21.290  0.00  0.00    -0.154 OA
ATOM     26  O   UNL     1      31.970 -12.410 -19.731  0.00  0.00    -0.154 OA
ATOM     27  C   UNL     1      31.865  -9.871 -20.357  0.00  0.00    +0.200 C 
ENDBRANCH  22  24
ENDBRANCH   5  22
BRANCH   7  28
ATOM     28  O   UNL     1      33.061 -12.376 -24.862  0.00  0.00    -0.478 OA
BRANCH  28  29
ATOM     29  C   UNL     1      34.076 -12.271 -25.858  0.00  0.00    +0.166 C 
ATOM     30  C   UNL     1      34.706 -10.888 -25.786  0.00  0.00    +0.047 C 
ATOM     31  C   UNL     1      33.467 -12.546 -27.224  0.00  0.00    +0.047 C 
ENDBRANCH  28  29
ENDBRANCH   7  28
TORSDOF 6
ENDMDL
MODEL 2
REMARK VINA RESULT:      -9.0      9.194     12.981
REMARK  Name = 10409873
REMARK  6 active torsions:
REMARK  status: ('A' for Active; 'I' for Inactive)
REMARK    1  A    between atoms: C_4  and  C_19
REMARK    2  A    between atoms: C_5  and  N_22
REMARK    3  A    between atoms: C_6  and  C_11
REMARK    4  A    between atoms: C_7  and  O_28
REMARK    5  A    between atoms: N_22  and  S_24
REMARK    6  A    between atoms: O_28  and  C_29
REMARK                            x       y       z     vdW  Elec       q    Type
REMARK                         _______ _______ _______ _____ _____    ______ ____
ROOT
ATOM      1  O   UNL     1      31.940 -23.966 -14.228  0.00  0.00    -0.453 OA
ATOM      2  C   UNL     1      33.850 -23.800 -15.424  0.00  0.00    +0.045 A 
ATOM      3  C   UNL     1      33.286 -24.180 -14.210  0.00  0.00    +0.147 A 
ATOM      4  C   UNL     1      32.772 -23.330 -16.219  0.00  0.00    +0.091 A 
ATOM      5  C   UNL     1      35.390 -24.839 -13.332  0.00  0.00    +0.101 C 
ATOM      6  C   UNL     1      31.639 -23.452 -15.449  0.00  0.00    +0.150 A 
ATOM      7  C   UNL     1      35.995 -24.468 -14.536  0.00  0.00    +0.153 C 
ATOM      8  C   UNL     1      35.238 -23.947 -15.595  0.00  0.00    +0.041 C 
ATOM      9  C   UNL     1      34.012 -24.701 -13.141  0.00  0.00    +0.056 C 
ENDROOT
BRANCH   6  11
ATOM     10  F   UNL     1      26.241 -22.327 -16.251  0.00  0.00    -0.204 F 
ATOM     11  C   UNL     1      30.247 -23.162 -15.657  0.00  0.00    +0.035 C 
ATOM     12  C   UNL     1      29.526 -23.843 -16.641  0.00  0.00    +0.005 C 
ATOM     13  C   UNL     1      29.607 -22.196 -14.875  0.00  0.00    +0.005 C 
ATOM     14  C   UNL     1      28.175 -23.561 -16.841  0.00  0.00    +0.030 C 
ATOM     15  C   UNL     1      28.256 -21.915 -15.074  0.00  0.00    +0.030 C 
ATOM     16  C   UNL     1      27.539 -22.597 -16.058  0.00  0.00    +0.140 C 
ENDBRANCH   6  11
BRANCH   4  19
ATOM     17  O   UNL     1      31.894 -22.135 -18.051  0.00  0.00    -0.270 OA
ATOM     18  N   UNL     1      33.968 -23.106 -18.310  0.00  0.00    -0.299 N 
ATOM     19  C   UNL     1      32.815 -22.822 -17.561  0.00  0.00    +0.249 C 
ATOM     20  C   UNL     1      34.172 -22.641 -19.663  0.00  0.00    +0.111 C 
ATOM     21  H   UNL     1      34.674 -23.650 -17.893  0.00  0.00    +0.150 HD
ENDBRANCH   4  19
BRANCH   5  22
ATOM     22  N   UNL     1      36.182 -25.368 -12.265  0.00  0.00    -0.216 N 
ATOM     23  H   UNL     1      36.265 -26.339 -12.129  0.00  0.00    +0.173 HD
BRANCH  22  24
ATOM     24  S   UNL     1      36.987 -24.257 -11.226  0.00  0.00    +0.056 S 
ATOM     25  O   UNL     1      36.220 -24.141  -9.999  0.00  0.00    -0.154 OA
ATOM     26  O   UNL     1      38.411 -24.522 -11.183  0.00  0.00    -0.154 OA
ATOM     27  C   UNL     1      36.741 -22.745 -12.131  0.00  0.00    +0.200 C 
ENDBRANCH  22  24
ENDBRANCH   5  22
BRANCH   7  28
ATOM     28  O   UNL     1      37.342 -24.611 -14.706  0.00  0.00    -0.478 OA
BRANCH  28  29
ATOM     29  C   UNL     1      37.886 -25.909 -14.485  0.00  0.00    +0.166 C 
ATOM     30  C   UNL     1      39.393 -25.862 -14.684  0.00  0.00    +0.047 C 
ATOM     31  C   UNL     1      37.220 -26.898 -15.429  0.00  0.00    +0.047 C 
ENDBRANCH  28  29
ENDBRANCH   7  28
TORSDOF 6
ENDMDL
MODEL 3
REMARK VINA RESULT:      -9.0      8.267     12.954
REMARK  Name = 10409873
REMARK  6 active torsions:
REMARK  status: ('A' for Active; 'I' for Inactive)
REMARK    1  A    between atoms: C_4  and  C_19
REMARK    2  A    between atoms: C_5  and  N_22
REMARK    3  A    between atoms: C_6  and  C_11
REMARK    4  A    between atoms: C_7  and  O_28
REMARK    5  A    between atoms: N_22  and  S_24
REMARK    6  A    between atoms: O_28  and  C_29
REMARK                            x       y       z     vdW  Elec       q    Type
REMARK                         _______ _______ _______ _____ _____    ______ ____
ROOT
ATOM      1  O   UNL     1      36.570 -22.533 -17.303  0.00  0.00    -0.453 OA
ATOM      2  C   UNL     1      35.572 -23.542 -15.544  0.00  0.00    +0.045 A 
ATOM      3  C   UNL     1      36.785 -23.221 -16.146  0.00  0.00    +0.147 A 
ATOM      4  C   UNL     1      34.567 -23.013 -16.396  0.00  0.00    +0.091 A 
ATOM      5  C   UNL     1      38.028 -24.272 -14.420  0.00  0.00    +0.101 C 
ATOM      6  C   UNL     1      35.224 -22.412 -17.444  0.00  0.00    +0.150 A 
ATOM      7  C   UNL     1      36.832 -24.615 -13.785  0.00  0.00    +0.153 C 
ATOM      8  C   UNL     1      35.593 -24.257 -14.334  0.00  0.00    +0.041 C 
ATOM      9  C   UNL     1      38.031 -23.563 -15.624  0.00  0.00    +0.056 C 
ENDROOT
BRANCH   6  11
ATOM     10  F   UNL     1      33.585 -19.664 -22.007  0.00  0.00    -0.204 F 
ATOM     11  C   UNL     1      34.801 -21.704 -18.621  0.00  0.00    +0.035 C 
ATOM     12  C   UNL     1      33.444 -21.625 -18.945  0.00  0.00    +0.005 C 
ATOM     13  C   UNL     1      35.745 -21.090 -19.449  0.00  0.00    +0.005 C 
ATOM     14  C   UNL     1      33.033 -20.938 -20.086  0.00  0.00    +0.030 C 
ATOM     15  C   UNL     1      35.335 -20.401 -20.590  0.00  0.00    +0.030 C 
ATOM     16  C   UNL     1      33.979 -20.325 -20.910  0.00  0.00    +0.140 C 
ENDBRANCH   6  11
BRANCH   4  19
ATOM     17  O   UNL     1      32.378 -23.506 -17.116  0.00  0.00    -0.270 OA
ATOM     18  N   UNL     1      32.630 -22.638 -14.996  0.00  0.00    -0.299 N 
ATOM     19  C   UNL     1      33.143 -23.070 -16.230  0.00  0.00    +0.249 C 
ATOM     20  C   UNL     1      31.223 -22.662 -14.667  0.00  0.00    +0.111 C 
ATOM     21  H   UNL     1      33.261 -22.301 -14.320  0.00  0.00    +0.150 HD
ENDBRANCH   4  19
BRANCH   5  22
ATOM     22  N   UNL     1      39.281 -24.650 -13.842  0.00  0.00    -0.216 N 
ATOM     23  H   UNL     1      39.659 -24.152 -13.082  0.00  0.00    +0.173 HD
BRANCH  22  24
ATOM     24  S   UNL     1      40.109 -26.001 -14.514  0.00  0.00    +0.056 S 
ATOM     25  O   UNL     1      40.604 -25.627 -15.825  0.00  0.00    -0.154 OA
ATOM     26  O   UNL     1      40.991 -26.609 -13.538  0.00  0.00    -0.154 OA
ATOM     27  C   UNL     1      38.741 -27.108 -14.777  0.00  0.00    +0.200 C 
ENDBRANCH  22  24
ENDBRANCH   5  22
BRANCH   7  28
ATOM     28  O   UNL     1      36.847 -25.308 -12.608  0.00  0.00    -0.478 OA
BRANCH  28  29
ATOM     29  C   UNL     1      36.752 -24.544 -11.409  0.00  0.00    +0.166 C 
ATOM     30  C   UNL     1      35.353 -24.693 -10.831  0.00  0.00    +0.047 C 
ATOM     31  C   UNL     1      37.088 -23.092 -11.712  0.00  0.00    +0.047 C 
ENDBRANCH  28  29
ENDBRANCH   7  28
TORSDOF 6
ENDMDL
MODEL 4
REMARK VINA RESULT:      -8.9      4.444      9.272
REMARK  Name = 10409873
REMARK  6 active torsions:
REMARK  status: ('A' for Active; 'I' for Inactive)
REMARK    1  A    between atoms: C_4  and  C_19
REMARK    2  A    between atoms: C_5  and  N_22
REMARK    3  A    between atoms: C_6  and  C_11
REMARK    4  A    between atoms: C_7  and  O_28
REMARK    5  A    between atoms: N_22  and  S_24
REMARK    6  A    between atoms: O_28  and  C_29
REMARK                            x       y       z     vdW  Elec       q    Type
REMARK                         _______ _______ _______ _____ _____    ______ ____
ROOT
ATOM      1  O   UNL     1      33.030 -10.995 -24.289  0.00  0.00    -0.453 OA
ATOM      2  C   UNL     1      32.431 -12.086 -22.403  0.00  0.00    +0.045 A 
ATOM      3  C   UNL     1      32.887 -12.221 -23.711  0.00  0.00    +0.147 A 
ATOM      4  C   UNL     1      32.291 -10.690 -22.186  0.00  0.00    +0.091 A 
ATOM      5  C   UNL     1      32.941 -14.587 -23.547  0.00  0.00    +0.101 C 
ATOM      6  C   UNL     1      32.666 -10.075 -23.357  0.00  0.00    +0.150 A 
ATOM      7  C   UNL     1      32.482 -14.494 -22.231  0.00  0.00    +0.153 C 
ATOM      8  C   UNL     1      32.222 -13.249 -21.642  0.00  0.00    +0.041 C 
ATOM      9  C   UNL     1      33.155 -13.444 -24.322  0.00  0.00    +0.056 C 
ENDROOT
BRANCH   6  11
ATOM     10  F   UNL     1      33.007  -4.774 -25.042  0.00  0.00    -0.204 F 
ATOM     11  C   UNL     1      32.755  -8.707 -23.791  0.00  0.00    +0.035 C 
ATOM     12  C   UNL     1      34.003  -8.112 -23.988  0.00  0.00    +0.005 C 
ATOM     13  C   UNL     1      31.592  -7.966 -24.018  0.00  0.00    +0.005 C 
ATOM     14  C   UNL     1      34.088  -6.785 -24.410  0.00  0.00    +0.030 C 
ATOM     15  C   UNL     1      31.677  -6.640 -24.441  0.00  0.00    +0.030 C 
ATOM     16  C   UNL     1      32.925  -6.049 -24.636  0.00  0.00    +0.140 C 
ENDBRANCH   6  11
BRANCH   4  19
ATOM     17  O   UNL     1      30.996 -10.499 -20.226  0.00  0.00    -0.270 OA
ATOM     18  N   UNL     1      32.451  -8.779 -20.711  0.00  0.00    -0.299 N 
ATOM     19  C   UNL     1      31.851 -10.016 -20.998  0.00  0.00    +0.249 C 
ATOM     20  C   UNL     1      32.137  -7.995 -19.538  0.00  0.00    +0.111 C 
ATOM     21  H   UNL     1      33.121  -8.428 -21.341  0.00  0.00    +0.150 HD
ENDBRANCH   4  19
BRANCH   5  22
ATOM     22  N   UNL     1      33.199 -15.869 -24.128  0.00  0.00    -0.216 N 
ATOM     23  H   UNL     1      32.466 -16.497 -24.316  0.00  0.00    +0.173 HD
BRANCH  22  24
ATOM     24  S   UNL     1      34.831 -16.279 -24.491  0.00  0.00    +0.056 S 
ATOM     25  O   UNL     1      35.066 -16.014 -25.898  0.00  0.00    -0.154 OA
ATOM     26  O   UNL     1      35.734 -15.764 -23.482  0.00  0.00    -0.154 OA
ATOM     27  C   UNL     1      34.759 -18.047 -24.306  0.00  0.00    +0.200 C 
ENDBRANCH  22  24
ENDBRANCH   5  22
BRANCH   7  28
ATOM     28  O   UNL     1      32.280 -15.622 -21.488  0.00  0.00    -0.478 OA
BRANCH  28  29
ATOM     29  C   UNL     1      33.313 -15.987 -20.576  0.00  0.00    +0.166 C 
ATOM     30  C   UNL     1      34.399 -14.922 -20.598  0.00  0.00    +0.047 C 
ATOM     31  C   UNL     1      33.855 -17.356 -20.956  0.00  0.00    +0.047 C 
ENDBRANCH  28  29
ENDBRANCH   7  28
TORSDOF 6
ENDMDL
MODEL 5
REMARK VINA RESULT:      -8.9      4.215      8.994
REMARK  Name = 10409873
REMARK  6 active torsions:
REMARK  status: ('A' for Active; 'I' for Inactive)
REMARK    1  A    between atoms: C_4  and  C_19
REMARK    2  A    between atoms: C_5  and  N_22
REMARK    3  A    between atoms: C_6  and  C_11
REMARK    4  A    between atoms: C_7  and  O_28
REMARK    5  A    between atoms: N_22  and  S_24
REMARK    6  A    between atoms: O_28  and  C_29
REMARK                            x       y       z     vdW  Elec       q    Type
REMARK                         _______ _______ _______ _____ _____    ______ ____
ROOT
ATOM      1  O   UNL     1      33.648 -11.501 -23.890  0.00  0.00    -0.453 OA
ATOM      2  C   UNL     1      32.698 -12.857 -22.352  0.00  0.00    +0.045 A 
ATOM      3  C   UNL     1      33.572 -12.782 -23.432  0.00  0.00    +0.147 A 
ATOM      4  C   UNL     1      32.220 -11.535 -22.152  0.00  0.00    +0.091 A 
ATOM      5  C   UNL     1      34.040 -15.106 -23.334  0.00  0.00    +0.101 C 
ATOM      6  C   UNL     1      32.826 -10.754 -23.107  0.00  0.00    +0.150 A 
ATOM      7  C   UNL     1      33.169 -15.223 -22.248  0.00  0.00    +0.153 C 
ATOM      8  C   UNL     1      32.489 -14.106 -21.743  0.00  0.00    +0.041 C 
ATOM      9  C   UNL     1      34.263 -13.874 -23.955  0.00  0.00    +0.056 C 
ENDROOT
BRANCH   6  11
ATOM     10  F   UNL     1      32.636  -5.338 -24.405  0.00  0.00    -0.204 F 
ATOM     11  C   UNL     1      32.777  -9.357 -23.443  0.00  0.00    +0.035 C 
ATOM     12  C   UNL     1      31.546  -8.720 -23.621  0.00  0.00    +0.005 C 
ATOM     13  C   UNL     1      33.960  -8.628 -23.593  0.00  0.00    +0.005 C 
ATOM     14  C   UNL     1      31.498  -7.365 -23.946  0.00  0.00    +0.030 C 
ATOM     15  C   UNL     1      33.913  -7.272 -23.916  0.00  0.00    +0.030 C 
ATOM     16  C   UNL     1      32.681  -6.641 -24.094  0.00  0.00    +0.140 C 
ENDBRANCH   6  11
BRANCH   4  19
ATOM     17  O   UNL     1      30.059 -11.243 -21.257  0.00  0.00    -0.270 OA
ATOM     18  N   UNL     1      31.835 -10.418 -20.041  0.00  0.00    -0.299 N 
ATOM     19  C   UNL     1      31.292 -11.067 -21.162  0.00  0.00    +0.249 C 
ATOM     20  C   UNL     1      31.035  -9.917 -18.946  0.00  0.00    +0.111 C 
ATOM     21  H   UNL     1      32.811 -10.297 -19.998  0.00  0.00    +0.150 HD
ENDBRANCH   4  19
BRANCH   5  22
ATOM     22  N   UNL     1      34.723 -16.260 -23.834  0.00  0.00    -0.216 N 
ATOM     23  H   UNL     1      35.411 -16.714 -23.296  0.00  0.00    +0.173 HD
BRANCH  22  24
ATOM     24  S   UNL     1      34.305 -16.832 -25.402  0.00  0.00    +0.056 S 
ATOM     25  O   UNL     1      33.039 -16.234 -25.784  0.00  0.00    -0.154 OA
ATOM     26  O   UNL     1      35.445 -16.780 -26.296  0.00  0.00    -0.154 OA
ATOM     27  C   UNL     1      33.977 -18.542 -25.036  0.00  0.00    +0.200 C 
ENDBRANCH  22  24
ENDBRANCH   5  22
BRANCH   7  28
ATOM     28  O   UNL     1      32.964 -16.435 -21.653  0.00  0.00    -0.478 OA
BRANCH  28  29
ATOM     29  C   UNL     1      33.877 -16.810 -20.625  0.00  0.00    +0.166 C 
ATOM     30  C   UNL     1      34.754 -15.618 -20.274  0.00  0.00    +0.047 C 
ATOM     31  C   UNL     1      34.700 -18.000 -21.095  0.00  0.00    +0.047 C 
ENDBRANCH  28  29
ENDBRANCH   7  28
TORSDOF 6
ENDMDL
MODEL 6
REMARK VINA RESULT:      -8.8      4.518      9.009
REMARK  Name = 10409873
REMARK  6 active torsions:
REMARK  status: ('A' for Active; 'I' for Inactive)
REMARK    1  A    between atoms: C_4  and  C_19
REMARK    2  A    between atoms: C_5  and  N_22
REMARK    3  A    between atoms: C_6  and  C_11
REMARK    4  A    between atoms: C_7  and  O_28
REMARK    5  A    between atoms: N_22  and  S_24
REMARK    6  A    between atoms: O_28  and  C_29
REMARK                            x       y       z     vdW  Elec       q    Type
REMARK                         _______ _______ _______ _____ _____    ______ ____
ROOT
ATOM      1  O   UNL     1      31.689 -10.295 -22.185  0.00  0.00    -0.453 OA
ATOM      2  C   UNL     1      33.341 -11.132 -23.480  0.00  0.00    +0.045 A 
ATOM      3  C   UNL     1      32.304 -11.437 -22.604  0.00  0.00    +0.147 A 
ATOM      4  C   UNL     1      33.347  -9.717 -23.593  0.00  0.00    +0.091 A 
ATOM      5  C   UNL     1      32.722 -13.766 -22.770  0.00  0.00    +0.101 C 
ATOM      6  C   UNL     1      32.328  -9.260 -22.790  0.00  0.00    +0.150 A 
ATOM      7  C   UNL     1      33.772 -13.503 -23.653  0.00  0.00    +0.153 C 
ATOM      8  C   UNL     1      34.095 -12.189 -24.020  0.00  0.00    +0.041 C 
ATOM      9  C   UNL     1      31.959 -12.732 -22.221  0.00  0.00    +0.056 C 
ENDROOT
BRANCH   6  11
ATOM     10  F   UNL     1      30.325  -4.212 -21.539  0.00  0.00    -0.204 F 
ATOM     11  C   UNL     1      31.811  -7.958 -22.467  0.00  0.00    +0.035 C 
ATOM     12  C   UNL     1      32.161  -7.342 -21.262  0.00  0.00    +0.005 C 
ATOM     13  C   UNL     1      30.956  -7.301 -23.356  0.00  0.00    +0.005 C 
ATOM     14  C   UNL     1      31.660  -6.079 -20.949  0.00  0.00    +0.030 C 
ATOM     15  C   UNL     1      30.455  -6.037 -23.044  0.00  0.00    +0.030 C 
ATOM     16  C   UNL     1      30.807  -5.426 -21.839  0.00  0.00    +0.140 C 
ENDBRANCH   6  11
BRANCH   4  19
ATOM     17  O   UNL     1      35.152  -9.362 -25.066  0.00  0.00    -0.270 OA
ATOM     18  N   UNL     1      33.972  -7.511 -24.364  0.00  0.00    -0.299 N 
ATOM     19  C   UNL     1      34.222  -8.893 -24.376  0.00  0.00    +0.249 C 
ATOM     20  C   UNL     1      34.745  -6.555 -25.123  0.00  0.00    +0.111 C 
ATOM     21  H   UNL     1      33.231  -7.176 -23.809  0.00  0.00    +0.150 HD
ENDBRANCH   4  19
BRANCH   5  22
ATOM     22  N   UNL     1      32.410 -15.116 -22.409  0.00  0.00    -0.216 N 
ATOM     23  H   UNL     1      31.861 -15.683 -22.996  0.00  0.00    +0.173 HD
BRANCH  22  24
ATOM     24  S   UNL     1      33.025 -15.718 -20.919  0.00  0.00    +0.056 S 
ATOM     25  O   UNL     1      33.889 -14.706 -20.339  0.00  0.00    -0.154 OA
ATOM     26  O   UNL     1      31.973 -16.328 -20.130  0.00  0.00    -0.154 OA
ATOM     27  C   UNL     1      34.083 -17.017 -21.516  0.00  0.00    +0.200 C 
ENDBRANCH  22  24
ENDBRANCH   5  22
BRANCH   7  28
ATOM     28  O   UNL     1      34.506 -14.526 -24.180  0.00  0.00    -0.478 OA
BRANCH  28  29
ATOM     29  C   UNL     1      33.794 -15.517 -24.917  0.00  0.00    +0.166 C 
ATOM     30  C   UNL     1      34.709 -16.706 -25.171  0.00  0.00    +0.047 C 
ATOM     31  C   UNL     1      33.284 -14.908 -26.213  0.00  0.00    +0.047 C 
ENDBRANCH  28  29
ENDBRANCH   7  28
TORSDOF 6
ENDMDL
MODEL 7
REMARK VINA RESULT:      -8.5      3.116      5.418
REMARK  Name = 10409873
REMARK  6 active torsions:
REMARK  status: ('A' for Active; 'I' for Inactive)
REMARK    1  A    between atoms: C_4  and  C_19
REMARK    2  A    between atoms: C_5  and  N_22
REMARK    3  A    between atoms: C_6  and  C_11
REMARK    4  A    between atoms: C_7  and  O_28
REMARK    5  A    between atoms: N_22  and  S_24
REMARK    6  A    between atoms: O_28  and  C_29
REMARK                            x       y       z     vdW  Elec       q    Type
REMARK                         _______ _______ _______ _____ _____    ______ ____
ROOT
ATOM      1  O   UNL     1      33.836 -13.123 -24.365  0.00  0.00    -0.453 OA
ATOM      2  C   UNL     1      32.801 -12.203 -22.579  0.00  0.00    +0.045 A 
ATOM      3  C   UNL     1      33.339 -11.967 -23.841  0.00  0.00    +0.147 A 
ATOM      4  C   UNL     1      32.989 -13.589 -22.333  0.00  0.00    +0.091 A 
ATOM      5  C   UNL     1      32.791  -9.661 -23.746  0.00  0.00    +0.101 C 
ATOM      6  C   UNL     1      33.618 -14.099 -23.444  0.00  0.00    +0.150 A 
ATOM      7  C   UNL     1      32.241  -9.856 -22.476  0.00  0.00    +0.153 C 
ATOM      8  C   UNL     1      32.238 -11.124 -21.877  0.00  0.00    +0.041 C 
ATOM      9  C   UNL     1      33.356 -10.720 -24.462  0.00  0.00    +0.056 C 
ENDROOT
BRANCH   6  11
ATOM     10  F   UNL     1      35.405 -19.164 -24.929  0.00  0.00    -0.204 F 
ATOM     11  C   UNL     1      34.080 -15.405 -23.827  0.00  0.00    +0.035 C 
ATOM     12  C   UNL     1      34.917 -16.132 -22.977  0.00  0.00    +0.005 C 
ATOM     13  C   UNL     1      33.694 -15.955 -25.053  0.00  0.00    +0.005 C 
ATOM     14  C   UNL     1      35.364 -17.399 -23.349  0.00  0.00    +0.030 C 
ATOM     15  C   UNL     1      34.140 -17.223 -25.424  0.00  0.00    +0.030 C 
ATOM     16  C   UNL     1      34.976 -17.945 -24.572  0.00  0.00    +0.140 C 
ENDBRANCH   6  11
BRANCH   4  19
ATOM     17  O   UNL     1      32.601 -13.854 -20.024  0.00  0.00    -0.270 OA
ATOM     18  N   UNL     1      32.213 -15.674 -21.383  0.00  0.00    -0.299 N 
ATOM     19  C   UNL     1      32.611 -14.343 -21.172  0.00  0.00    +0.249 C 
ATOM     20  C   UNL     1      31.777 -16.552 -20.321  0.00  0.00    +0.111 C 
ATOM     21  H   UNL     1      32.233 -16.027 -22.302  0.00  0.00    +0.150 HD
ENDBRANCH   4  19
BRANCH   5  22
ATOM     22  N   UNL     1      32.784  -8.358 -24.338  0.00  0.00    -0.216 N 
ATOM     23  H   UNL     1      32.160  -8.135 -25.065  0.00  0.00    +0.173 HD
BRANCH  22  24
ATOM     24  S   UNL     1      33.899  -7.192 -23.739  0.00  0.00    +0.056 S 
ATOM     25  O   UNL     1      33.149  -6.141 -23.076  0.00  0.00    -0.154 OA
ATOM     26  O   UNL     1      35.016  -7.832 -23.075  0.00  0.00    -0.154 OA
ATOM     27  C   UNL     1      34.494  -6.510 -25.271  0.00  0.00    +0.200 C 
ENDBRANCH  22  24
ENDBRANCH   5  22
BRANCH   7  28
ATOM     28  O   UNL     1      31.692  -8.810 -21.792  0.00  0.00    -0.478 OA
BRANCH  28  29
ATOM     29  C   UNL     1      32.273  -8.490 -20.530  0.00  0.00    +0.166 C 
ATOM     30  C   UNL     1      31.602  -9.320 -19.446  0.00  0.00    +0.047 C 
ATOM     31  C   UNL     1      32.125  -6.998 -20.274  0.00  0.00    +0.047 C 
ENDBRANCH  28  29
ENDBRANCH   7  28
TORSDOF 6
ENDMDL
MODEL 8
REMARK VINA RESULT:      -8.2      5.201      9.381
REMARK  Name = 10409873
REMARK  6 active torsions:
REMARK  status: ('A' for Active; 'I' for Inactive)
REMARK    1  A    between atoms: C_4  and  C_19
REMARK    2  A    between atoms: C_5  and  N_22
REMARK    3  A    between atoms: C_6  and  C_11
REMARK    4  A    between atoms: C_7  and  O_28
REMARK    5  A    between atoms: N_22  and  S_24
REMARK    6  A    between atoms: O_28  and  C_29
REMARK                            x       y       z     vdW  Elec       q    Type
REMARK                         _______ _______ _______ _____ _____    ______ ____
ROOT
ATOM      1  O   UNL     1      33.463 -20.234 -20.968  0.00  0.00    -0.453 OA
ATOM      2  C   UNL     1      35.112 -20.956 -19.603  0.00  0.00    +0.045 A 
ATOM      3  C   UNL     1      33.767 -21.075 -19.940  0.00  0.00    +0.147 A 
ATOM      4  C   UNL     1      35.646 -19.981 -20.486  0.00  0.00    +0.091 A 
ATOM      5  C   UNL     1      33.397 -22.717 -18.268  0.00  0.00    +0.101 C 
ATOM      6  C   UNL     1      34.607 -19.577 -21.292  0.00  0.00    +0.150 A 
ATOM      7  C   UNL     1      34.741 -22.626 -17.898  0.00  0.00    +0.153 C 
ATOM      8  C   UNL     1      35.614 -21.749 -18.557  0.00  0.00    +0.041 C 
ATOM      9  C   UNL     1      32.876 -21.938 -19.304  0.00  0.00    +0.056 C 
ENDROOT
BRANCH   6  11
ATOM     10  F   UNL     1      34.116 -15.932 -25.478  0.00  0.00    -0.204 F 
ATOM     11  C   UNL     1      34.480 -18.637 -22.371  0.00  0.00    +0.035 C 
ATOM     12  C   UNL     1      34.328 -17.274 -22.102  0.00  0.00    +0.005 C 
ATOM     13  C   UNL     1      34.507 -19.081 -23.696  0.00  0.00    +0.005 C 
ATOM     14  C   UNL     1      34.205 -16.362 -23.150  0.00  0.00    +0.030 C 
ATOM     15  C   UNL     1      34.386 -18.168 -24.744  0.00  0.00    +0.030 C 
ATOM     16  C   UNL     1      34.234 -16.809 -24.471  0.00  0.00    +0.140 C 
ENDBRANCH   6  11
BRANCH   4  19
ATOM     17  O   UNL     1      37.752 -19.460 -19.566  0.00  0.00    -0.270 OA
ATOM     18  N   UNL     1      37.446 -19.063 -21.816  0.00  0.00    -0.299 N 
ATOM     19  C   UNL     1      36.992 -19.490 -20.557  0.00  0.00    +0.249 C 
ATOM     20  C   UNL     1      38.784 -18.571 -22.054  0.00  0.00    +0.111 C 
ATOM     21  H   UNL     1      36.821 -19.101 -22.575  0.00  0.00    +0.150 HD
ENDBRANCH   4  19
BRANCH   5  22
ATOM     22  N   UNL     1      32.523 -23.618 -17.581  0.00  0.00    -0.216 N 
ATOM     23  H   UNL     1      32.564 -24.588 -17.745  0.00  0.00    +0.173 HD
BRANCH  22  24
ATOM     24  S   UNL     1      31.400 -22.958 -16.456  0.00  0.00    +0.056 S 
ATOM     25  O   UNL     1      32.139 -22.479 -15.302  0.00  0.00    -0.154 OA
ATOM     26  O   UNL     1      30.437 -22.104 -17.122  0.00  0.00    -0.154 OA
ATOM     27  C   UNL     1      30.557 -24.440 -15.947  0.00  0.00    +0.200 C 
ENDBRANCH  22  24
ENDBRANCH   5  22
BRANCH   7  28
ATOM     28  O   UNL     1      35.233 -23.396 -16.883  0.00  0.00    -0.478 OA
BRANCH  28  29
ATOM     29  C   UNL     1      35.843 -22.711 -15.792  0.00  0.00    +0.166 C 
ATOM     30  C   UNL     1      37.353 -22.868 -15.884  0.00  0.00    +0.047 C 
ATOM     31  C   UNL     1      35.295 -23.262 -14.485  0.00  0.00    +0.047 C 
ENDBRANCH  28  29
ENDBRANCH   7  28
TORSDOF 6
ENDMDL
MODEL 9
REMARK VINA RESULT:      -8.2      4.523      9.276
REMARK  Name = 10409873
REMARK  6 active torsions:
REMARK  status: ('A' for Active; 'I' for Inactive)
REMARK    1  A    between atoms: C_4  and  C_19
REMARK    2  A    between atoms: C_5  and  N_22
REMARK    3  A    between atoms: C_6  and  C_11
REMARK    4  A    between atoms: C_7  and  O_28
REMARK    5  A    between atoms: N_22  and  S_24
REMARK    6  A    between atoms: O_28  and  C_29
REMARK                            x       y       z     vdW  Elec       q    Type
REMARK                         _______ _______ _______ _____ _____    ______ ____
ROOT
ATOM      1  O   UNL     1      32.654  -9.906 -23.593  0.00  0.00    -0.453 OA
ATOM      2  C   UNL     1      32.386 -11.797 -22.386  0.00  0.00    +0.045 A 
ATOM      3  C   UNL     1      32.886 -11.249 -23.563  0.00  0.00    +0.147 A 
ATOM      4  C   UNL     1      31.819 -10.713 -21.666  0.00  0.00    +0.091 A 
ATOM      5  C   UNL     1      33.663 -13.356 -24.326  0.00  0.00    +0.101 C 
ATOM      6  C   UNL     1      32.008  -9.592 -22.439  0.00  0.00    +0.150 A 
ATOM      7  C   UNL     1      33.174 -13.946 -23.157  0.00  0.00    +0.153 C 
ATOM      8  C   UNL     1      32.532 -13.179 -22.175  0.00  0.00    +0.041 C 
ATOM      9  C   UNL     1      33.529 -11.985 -24.557  0.00  0.00    +0.056 C 
ENDROOT
BRANCH   6  11
ATOM     10  F   UNL     1      30.732  -4.198 -21.864  0.00  0.00    -0.204 F 
ATOM     11  C   UNL     1      31.679  -8.201 -22.290  0.00  0.00    +0.035 C 
ATOM     12  C   UNL     1      32.086  -7.500 -21.152  0.00  0.00    +0.005 C 
ATOM     13  C   UNL     1      30.948  -7.542 -23.283  0.00  0.00    +0.005 C 
ATOM     14  C   UNL     1      31.767  -6.150 -21.008  0.00  0.00    +0.030 C 
ATOM     15  C   UNL     1      30.630  -6.191 -23.140  0.00  0.00    +0.030 C 
ATOM     16  C   UNL     1      31.039  -5.496 -22.002  0.00  0.00    +0.140 C 
ENDBRANCH   6  11
BRANCH   4  19
ATOM     17  O   UNL     1      29.944 -10.932 -20.255  0.00  0.00    -0.270 OA
ATOM     18  N   UNL     1      31.989 -10.569 -19.257  0.00  0.00    -0.299 N 
ATOM     19  C   UNL     1      31.171 -10.740 -20.386  0.00  0.00    +0.249 C 
ATOM     20  C   UNL     1      31.491 -10.601 -17.901  0.00  0.00    +0.111 C 
ATOM     21  H   UNL     1      32.952 -10.420 -19.397  0.00  0.00    +0.150 HD
ENDBRANCH   4  19
BRANCH   5  22
ATOM     22  N   UNL     1      34.315 -14.158 -25.316  0.00  0.00    -0.216 N 
ATOM     23  H   UNL     1      35.241 -14.467 -25.189  0.00  0.00    +0.173 HD
BRANCH  22  24
ATOM     24  S   UNL     1      33.431 -14.570 -26.734  0.00  0.00    +0.056 S 
ATOM     25  O   UNL     1      34.045 -13.900 -27.865  0.00  0.00    -0.154 OA
ATOM     26  O   UNL     1      33.155 -15.992 -26.781  0.00  0.00    -0.154 OA
ATOM     27  C   UNL     1      31.899 -13.728 -26.406  0.00  0.00    +0.200 C 
ENDBRANCH  22  24
ENDBRANCH   5  22
BRANCH   7  28
ATOM     28  O   UNL     1      33.315 -15.288 -22.948  0.00  0.00    -0.478 OA
BRANCH  28  29
ATOM     29  C   UNL     1      34.570 -15.732 -22.440  0.00  0.00    +0.166 C 
ATOM     30  C   UNL     1      34.994 -16.991 -23.182  0.00  0.00    +0.047 C 
ATOM     31  C   UNL     1      34.448 -15.971 -20.943  0.00  0.00    +0.047 C 
ENDBRANCH  28  29
ENDBRANCH   7  28
TORSDOF 6
ENDMDL
