MODEL 1
REMARK VINA RESULT:     -10.0      0.000      0.000
REMARK  Name = 6102763
REMARK  9 active torsions:
REMARK  status: ('A' for Active; 'I' for Inactive)
REMARK    1  A    between atoms: C_2  and  C_19
REMARK    2  A    between atoms: C_3  and  O_8
REMARK    3  A    between atoms: O_8  and  C_9
REMARK    4  A    between atoms: C_9  and  C_11
REMARK    5  A    between atoms: C_10  and  C_16
REMARK    6  A    between atoms: C_19  and  C_22
REMARK    7  A    between atoms: N_21  and  C_24
REMARK    8  A    between atoms: C_24  and  C_25
REMARK    9  A    between atoms: C_25  and  N_26
REMARK                            x       y       z     vdW  Elec       q    Type
REMARK                         _______ _______ _______ _____ _____    ______ ____
ROOT
ATOM      1 CL   UNL     1      30.395 -22.864 -16.515  0.00  0.00    -0.079 Cl
ATOM      2  C   UNL     1      33.706 -23.805 -14.487  0.00  0.00    -0.012 C 
ATOM      3  C   UNL     1      33.059 -22.951 -17.056  0.00  0.00    +0.149 C 
ATOM      4  C   UNL     1      32.374 -23.573 -14.831  0.00  0.00    +0.011 C 
ATOM      5  C   UNL     1      34.713 -23.609 -15.432  0.00  0.00    -0.001 C 
ATOM      6  C   UNL     1      32.050 -23.144 -16.118  0.00  0.00    +0.091 C 
ATOM      7  C   UNL     1      34.390 -23.180 -16.719  0.00  0.00    +0.037 C 
ENDROOT
BRANCH   3   8
ATOM      8  O   UNL     1      32.769 -22.532 -18.328  0.00  0.00    -0.470 OA
BRANCH   8   9
ATOM      9  C   UNL     1      33.765 -22.757 -19.319  0.00  0.00    +0.232 C 
BRANCH   9  11
ATOM     10  C   UNL     1      34.958 -19.010 -21.013  0.00  0.00    -0.023 C 
ATOM     11  C   UNL     1      34.181 -21.452 -19.908  0.00  0.00    +0.021 C 
ATOM     12  C   UNL     1      33.604 -19.323 -20.896  0.00  0.00    -0.004 C 
ATOM     13  C   UNL     1      35.924 -19.918 -20.576  0.00  0.00    -0.004 C 
ATOM     14  C   UNL     1      33.215 -20.544 -20.344  0.00  0.00    -0.001 C 
ATOM     15  C   UNL     1      35.535 -21.139 -20.025  0.00  0.00    -0.001 C 
BRANCH  10  16
ATOM     16  C   UNL     1      35.374 -17.705 -21.602  0.00  0.00    +0.022 C 
ATOM     17  C   UNL     1      35.128 -17.641 -23.122  0.00  0.00    +0.005 C 
ATOM     18  C   UNL     1      34.698 -16.506 -20.913  0.00  0.00    +0.005 C 
ENDBRANCH  10  16
ENDBRANCH   9  11
ENDBRANCH   8   9
ENDBRANCH   3   8
BRANCH   2  19
ATOM     19  C   UNL     1      34.053 -24.263 -13.111  0.00  0.00    +0.111 C 
BRANCH  19  22
ATOM     20  O   UNL     1      36.149 -23.252 -12.442  0.00  0.00    -0.275 OA
ATOM     21  N   UNL     1      36.127 -25.496 -13.033  0.00  0.00    -0.306 N 
ATOM     22  C   UNL     1      35.547 -24.254 -12.819  0.00  0.00    +0.227 C 
ATOM     23  H   UNL     1      35.555 -26.238 -13.337  0.00  0.00    +0.149 HD
BRANCH  21  24
ATOM     24  C   UNL     1      37.535 -25.743 -12.830  0.00  0.00    +0.066 C 
BRANCH  24  25
ATOM     25  C   UNL     1      38.333 -25.453 -14.094  0.00  0.00    -0.065 C 
BRANCH  25  26
ATOM     26  N   UNL     1      37.644 -25.989 -15.261  0.00  0.00    +0.382 N 
ATOM     27  H   UNL     1      37.647 -25.292 -16.006  0.00  0.00    -0.089 HD
ATOM     28  H   UNL     1      36.681 -26.216 -15.013  0.00  0.00    -0.089 HD
ATOM     29  H   UNL     1      38.121 -26.831 -15.580  0.00  0.00    -0.089 HD
ENDBRANCH  25  26
ENDBRANCH  24  25
ENDBRANCH  21  24
ENDBRANCH  19  22
ENDBRANCH   2  19
TORSDOF 9
ENDMDL
MODEL 2
REMARK VINA RESULT:      -9.9      1.649      2.160
REMARK  Name = 6102763
REMARK  9 active torsions:
REMARK  status: ('A' for Active; 'I' for Inactive)
REMARK    1  A    between atoms: C_2  and  C_19
REMARK    2  A    between atoms: C_3  and  O_8
REMARK    3  A    between atoms: O_8  and  C_9
REMARK    4  A    between atoms: C_9  and  C_11
REMARK    5  A    between atoms: C_10  and  C_16
REMARK    6  A    between atoms: C_19  and  C_22
REMARK    7  A    between atoms: N_21  and  C_24
REMARK    8  A    between atoms: C_24  and  C_25
REMARK    9  A    between atoms: C_25  and  N_26
REMARK                            x       y       z     vdW  Elec       q    Type
REMARK                         _______ _______ _______ _____ _____    ______ ____
ROOT
ATOM      1 CL   UNL     1      37.186 -22.135 -16.739  0.00  0.00    -0.079 Cl
ATOM      2  C   UNL     1      34.559 -23.637 -14.130  0.00  0.00    -0.012 C 
ATOM      3  C   UNL     1      34.644 -23.096 -16.859  0.00  0.00    +0.149 C 
ATOM      4  C   UNL     1      35.709 -23.086 -14.697  0.00  0.00    +0.011 C 
ATOM      5  C   UNL     1      33.453 -23.916 -14.932  0.00  0.00    -0.001 C 
ATOM      6  C   UNL     1      35.752 -22.815 -16.064  0.00  0.00    +0.091 C 
ATOM      7  C   UNL     1      33.495 -23.646 -16.300  0.00  0.00    +0.037 C 
ENDROOT
BRANCH   3   8
ATOM      8  O   UNL     1      34.659 -22.839 -18.205  0.00  0.00    -0.470 OA
BRANCH   8   9
ATOM      9  C   UNL     1      33.534 -22.149 -18.737  0.00  0.00    +0.232 C 
BRANCH   9  11
ATOM     10  C   UNL     1      34.876 -19.167 -21.501  0.00  0.00    -0.023 C 
ATOM     11  C   UNL     1      34.001 -21.110 -19.700  0.00  0.00    +0.021 C 
ATOM     12  C   UNL     1      35.804 -19.947 -20.811  0.00  0.00    -0.004 C 
ATOM     13  C   UNL     1      33.510 -19.360 -21.291  0.00  0.00    -0.004 C 
ATOM     14  C   UNL     1      35.367 -20.919 -19.911  0.00  0.00    -0.001 C 
ATOM     15  C   UNL     1      33.073 -20.331 -20.390  0.00  0.00    -0.001 C 
BRANCH  10  16
ATOM     16  C   UNL     1      35.343 -18.129 -22.464  0.00  0.00    +0.022 C 
ATOM     17  C   UNL     1      34.908 -18.431 -23.911  0.00  0.00    +0.005 C 
ATOM     18  C   UNL     1      34.889 -16.712 -22.067  0.00  0.00    +0.005 C 
ENDBRANCH  10  16
ENDBRANCH   9  11
ENDBRANCH   8   9
ENDBRANCH   3   8
BRANCH   2  19
ATOM     19  C   UNL     1      34.512 -23.926 -12.668  0.00  0.00    +0.111 C 
BRANCH  19  22
ATOM     20  O   UNL     1      36.218 -24.436 -11.027  0.00  0.00    -0.275 OA
ATOM     21  N   UNL     1      36.268 -25.533 -13.072  0.00  0.00    -0.306 N 
ATOM     22  C   UNL     1      35.749 -24.642 -12.143  0.00  0.00    +0.227 C 
ATOM     23  H   UNL     1      35.816 -25.625 -13.942  0.00  0.00    +0.149 HD
BRANCH  21  24
ATOM     24  C   UNL     1      37.444 -26.330 -12.813  0.00  0.00    +0.066 C 
BRANCH  24  25
ATOM     25  C   UNL     1      38.633 -25.837 -13.625  0.00  0.00    -0.065 C 
BRANCH  25  26
ATOM     26  N   UNL     1      38.279 -25.744 -15.035  0.00  0.00    +0.382 N 
ATOM     27  H   UNL     1      39.118 -25.860 -15.604  0.00  0.00    -0.089 HD
ATOM     28  H   UNL     1      37.864 -24.831 -15.223  0.00  0.00    -0.089 HD
ATOM     29  H   UNL     1      37.607 -26.476 -15.266  0.00  0.00    -0.089 HD
ENDBRANCH  25  26
ENDBRANCH  24  25
ENDBRANCH  21  24
ENDBRANCH  19  22
ENDBRANCH   2  19
TORSDOF 9
ENDMDL
MODEL 3
REMARK VINA RESULT:      -9.9      6.390     10.295
REMARK  Name = 6102763
REMARK  9 active torsions:
REMARK  status: ('A' for Active; 'I' for Inactive)
REMARK    1  A    between atoms: C_2  and  C_19
REMARK    2  A    between atoms: C_3  and  O_8
REMARK    3  A    between atoms: O_8  and  C_9
REMARK    4  A    between atoms: C_9  and  C_11
REMARK    5  A    between atoms: C_10  and  C_16
REMARK    6  A    between atoms: C_19  and  C_22
REMARK    7  A    between atoms: N_21  and  C_24
REMARK    8  A    between atoms: C_24  and  C_25
REMARK    9  A    between atoms: C_25  and  N_26
REMARK                            x       y       z     vdW  Elec       q    Type
REMARK                         _______ _______ _______ _____ _____    ______ ____
ROOT
ATOM      1 CL   UNL     1      33.419 -14.126 -21.445  0.00  0.00    -0.079 Cl
ATOM      2  C   UNL     1      34.851 -17.424 -23.190  0.00  0.00    -0.012 C 
ATOM      3  C   UNL     1      33.586 -15.077 -23.989  0.00  0.00    +0.149 C 
ATOM      4  C   UNL     1      34.489 -16.468 -22.240  0.00  0.00    +0.011 C 
ATOM      5  C   UNL     1      34.578 -17.203 -24.539  0.00  0.00    -0.001 C 
ATOM      6  C   UNL     1      33.855 -15.292 -22.640  0.00  0.00    +0.091 C 
ATOM      7  C   UNL     1      33.945 -16.026 -24.941  0.00  0.00    +0.037 C 
ENDROOT
BRANCH   3   8
ATOM      8  O   UNL     1      32.963 -13.931 -24.410  0.00  0.00    -0.470 OA
BRANCH   8   9
ATOM      9  C   UNL     1      33.624 -13.178 -25.420  0.00  0.00    +0.232 C 
BRANCH   9  11
ATOM     10  C   UNL     1      34.353  -9.210 -23.985  0.00  0.00    -0.023 C 
ATOM     11  C   UNL     1      33.879 -11.796 -24.920  0.00  0.00    +0.021 C 
ATOM     12  C   UNL     1      33.385 -10.006 -23.373  0.00  0.00    -0.004 C 
ATOM     13  C   UNL     1      35.084  -9.707 -25.064  0.00  0.00    -0.004 C 
ATOM     14  C   UNL     1      33.148 -11.300 -23.841  0.00  0.00    -0.001 C 
ATOM     15  C   UNL     1      34.847 -11.000 -25.532  0.00  0.00    -0.001 C 
BRANCH  10  16
ATOM     16  C   UNL     1      34.607  -7.829 -23.486  0.00  0.00    +0.022 C 
ATOM     17  C   UNL     1      34.537  -6.775 -24.608  0.00  0.00    +0.005 C 
ATOM     18  C   UNL     1      33.660  -7.434 -22.338  0.00  0.00    +0.005 C 
ENDBRANCH  10  16
ENDBRANCH   9  11
ENDBRANCH   8   9
ENDBRANCH   3   8
BRANCH   2  19
ATOM     19  C   UNL     1      35.527 -18.682 -22.762  0.00  0.00    +0.111 C 
BRANCH  19  22
ATOM     20  O   UNL     1      35.867 -18.997 -20.385  0.00  0.00    -0.275 OA
ATOM     21  N   UNL     1      33.889 -19.743 -21.342  0.00  0.00    -0.306 N 
ATOM     22  C   UNL     1      35.140 -19.144 -21.364  0.00  0.00    +0.227 C 
ATOM     23  H   UNL     1      33.384 -19.813 -22.184  0.00  0.00    +0.149 HD
BRANCH  21  24
ATOM     24  C   UNL     1      33.299 -20.269 -20.134  0.00  0.00    +0.066 C 
BRANCH  24  25
ATOM     25  C   UNL     1      33.881 -21.632 -19.785  0.00  0.00    -0.065 C 
BRANCH  25  26
ATOM     26  N   UNL     1      32.950 -22.380 -18.951  0.00  0.00    +0.382 N 
ATOM     27  H   UNL     1      32.508 -21.748 -18.284  0.00  0.00    -0.089 HD
ATOM     28  H   UNL     1      33.456 -23.108 -18.445  0.00  0.00    -0.089 HD
ATOM     29  H   UNL     1      32.236 -22.809 -19.538  0.00  0.00    -0.089 HD
ENDBRANCH  25  26
ENDBRANCH  24  25
ENDBRANCH  21  24
ENDBRANCH  19  22
ENDBRANCH   2  19
TORSDOF 9
ENDMDL
MODEL 4
REMARK VINA RESULT:      -9.7      6.319     10.088
REMARK  Name = 6102763
REMARK  9 active torsions:
REMARK  status: ('A' for Active; 'I' for Inactive)
REMARK    1  A    between atoms: C_2  and  C_19
REMARK    2  A    between atoms: C_3  and  O_8
REMARK    3  A    between atoms: O_8  and  C_9
REMARK    4  A    between atoms: C_9  and  C_11
REMARK    5  A    between atoms: C_10  and  C_16
REMARK    6  A    between atoms: C_19  and  C_22
REMARK    7  A    between atoms: N_21  and  C_24
REMARK    8  A    between atoms: C_24  and  C_25
REMARK    9  A    between atoms: C_25  and  N_26
REMARK                            x       y       z     vdW  Elec       q    Type
REMARK                         _______ _______ _______ _____ _____    ______ ____
ROOT
ATOM      1 CL   UNL     1      32.555 -13.643 -20.782  0.00  0.00    -0.079 Cl
ATOM      2  C   UNL     1      34.879 -16.758 -21.707  0.00  0.00    -0.012 C 
ATOM      3  C   UNL     1      33.478 -14.779 -23.075  0.00  0.00    +0.149 C 
ATOM      4  C   UNL     1      34.150 -15.803 -20.998  0.00  0.00    +0.011 C 
ATOM      5  C   UNL     1      34.906 -16.721 -23.101  0.00  0.00    -0.001 C 
ATOM      6  C   UNL     1      33.448 -14.812 -21.683  0.00  0.00    +0.091 C 
ATOM      7  C   UNL     1      34.205 -15.729 -23.787  0.00  0.00    +0.037 C 
ENDROOT
BRANCH   3   8
ATOM      8  O   UNL     1      32.797 -13.817 -23.773  0.00  0.00    -0.470 OA
BRANCH   8   9
ATOM      9  C   UNL     1      33.504 -13.169 -24.823  0.00  0.00    +0.232 C 
BRANCH   9  11
ATOM     10  C   UNL     1      34.129  -9.060 -23.793  0.00  0.00    -0.023 C 
ATOM     11  C   UNL     1      33.721 -11.738 -24.465  0.00  0.00    +0.021 C 
ATOM     12  C   UNL     1      34.950  -9.675 -24.738  0.00  0.00    -0.004 C 
ATOM     13  C   UNL     1      33.103  -9.784 -23.184  0.00  0.00    -0.004 C 
ATOM     14  C   UNL     1      34.746 -11.014 -25.074  0.00  0.00    -0.001 C 
ATOM     15  C   UNL     1      32.899 -11.123 -23.520  0.00  0.00    -0.001 C 
BRANCH  10  16
ATOM     16  C   UNL     1      34.345  -7.629 -23.434  0.00  0.00    +0.022 C 
ATOM     17  C   UNL     1      34.548  -6.736 -24.674  0.00  0.00    +0.005 C 
ATOM     18  C   UNL     1      33.210  -7.062 -22.562  0.00  0.00    +0.005 C 
ENDBRANCH  10  16
ENDBRANCH   9  11
ENDBRANCH   8   9
ENDBRANCH   3   8
BRANCH   2  19
ATOM     19  C   UNL     1      35.629 -17.820 -20.975  0.00  0.00    +0.111 C 
BRANCH  19  22
ATOM     20  O   UNL     1      33.920 -19.403 -21.636  0.00  0.00    -0.275 OA
ATOM     21  N   UNL     1      35.674 -20.138 -20.305  0.00  0.00    -0.306 N 
ATOM     22  C   UNL     1      34.964 -19.188 -21.026  0.00  0.00    +0.227 C 
ATOM     23  H   UNL     1      36.502 -19.863 -19.850  0.00  0.00    +0.149 HD
BRANCH  21  24
ATOM     24  C   UNL     1      35.245 -21.512 -20.196  0.00  0.00    +0.066 C 
BRANCH  24  25
ATOM     25  C   UNL     1      34.187 -21.675 -19.114  0.00  0.00    -0.065 C 
BRANCH  25  26
ATOM     26  N   UNL     1      32.862 -21.774 -19.713  0.00  0.00    +0.382 N 
ATOM     27  H   UNL     1      32.880 -22.465 -20.464  0.00  0.00    -0.089 HD
ATOM     28  H   UNL     1      32.592 -20.867 -20.093  0.00  0.00    -0.089 HD
ATOM     29  H   UNL     1      32.188 -22.060 -19.004  0.00  0.00    -0.089 HD
ENDBRANCH  25  26
ENDBRANCH  24  25
ENDBRANCH  21  24
ENDBRANCH  19  22
ENDBRANCH   2  19
TORSDOF 9
ENDMDL
MODEL 5
REMARK VINA RESULT:      -9.7      6.906     10.944
REMARK  Name = 6102763
REMARK  9 active torsions:
REMARK  status: ('A' for Active; 'I' for Inactive)
REMARK    1  A    between atoms: C_2  and  C_19
REMARK    2  A    between atoms: C_3  and  O_8
REMARK    3  A    between atoms: O_8  and  C_9
REMARK    4  A    between atoms: C_9  and  C_11
REMARK    5  A    between atoms: C_10  and  C_16
REMARK    6  A    between atoms: C_19  and  C_22
REMARK    7  A    between atoms: N_21  and  C_24
REMARK    8  A    between atoms: C_24  and  C_25
REMARK    9  A    between atoms: C_25  and  N_26
REMARK                            x       y       z     vdW  Elec       q    Type
REMARK                         _______ _______ _______ _____ _____    ______ ____
ROOT
ATOM      1 CL   UNL     1      32.989 -15.129 -26.531  0.00  0.00    -0.079 Cl
ATOM      2  C   UNL     1      34.816 -16.715 -23.351  0.00  0.00    -0.012 C 
ATOM      3  C   UNL     1      33.669 -14.274 -24.039  0.00  0.00    +0.149 C 
ATOM      4  C   UNL     1      34.254 -16.540 -24.616  0.00  0.00    +0.011 C 
ATOM      5  C   UNL     1      34.803 -15.666 -22.432  0.00  0.00    -0.001 C 
ATOM      6  C   UNL     1      33.678 -15.317 -24.961  0.00  0.00    +0.091 C 
ATOM      7  C   UNL     1      34.228 -14.443 -22.776  0.00  0.00    +0.037 C 
ENDROOT
BRANCH   3   8
ATOM      8  O   UNL     1      33.111 -13.062 -24.352  0.00  0.00    -0.470 OA
BRANCH   8   9
ATOM      9  C   UNL     1      34.001 -12.045 -24.798  0.00  0.00    +0.232 C 
BRANCH   9  11
ATOM     10  C   UNL     1      33.205  -8.425 -22.655  0.00  0.00    -0.023 C 
ATOM     11  C   UNL     1      33.724 -10.784 -24.052  0.00  0.00    +0.021 C 
ATOM     12  C   UNL     1      32.364  -9.526 -22.500  0.00  0.00    -0.004 C 
ATOM     13  C   UNL     1      34.306  -8.503 -23.509  0.00  0.00    -0.004 C 
ATOM     14  C   UNL     1      32.624 -10.706 -23.198  0.00  0.00    -0.001 C 
ATOM     15  C   UNL     1      34.565  -9.682 -24.207  0.00  0.00    -0.001 C 
BRANCH  10  16
ATOM     16  C   UNL     1      32.929  -7.163 -21.909  0.00  0.00    +0.022 C 
ATOM     17  C   UNL     1      31.795  -6.338 -22.548  0.00  0.00    +0.005 C 
ATOM     18  C   UNL     1      32.617  -7.415 -20.423  0.00  0.00    +0.005 C 
ENDBRANCH  10  16
ENDBRANCH   9  11
ENDBRANCH   8   9
ENDBRANCH   3   8
BRANCH   2  19
ATOM     19  C   UNL     1      35.432 -18.022 -22.982  0.00  0.00    +0.111 C 
BRANCH  19  22
ATOM     20  O   UNL     1      35.674 -18.308 -20.590  0.00  0.00    -0.275 OA
ATOM     21  N   UNL     1      33.843 -19.260 -21.653  0.00  0.00    -0.306 N 
ATOM     22  C   UNL     1      35.021 -18.529 -21.607  0.00  0.00    +0.227 C 
ATOM     23  H   UNL     1      33.395 -19.380 -22.521  0.00  0.00    +0.149 HD
BRANCH  21  24
ATOM     24  C   UNL     1      33.248 -19.852 -20.478  0.00  0.00    +0.066 C 
BRANCH  24  25
ATOM     25  C   UNL     1      33.996 -21.109 -20.056  0.00  0.00    -0.065 C 
BRANCH  25  26
ATOM     26  N   UNL     1      33.078 -22.064 -19.450  0.00  0.00    +0.382 N 
ATOM     27  H   UNL     1      33.263 -22.996 -19.822  0.00  0.00    -0.089 HD
ATOM     28  H   UNL     1      32.117 -21.797 -19.666  0.00  0.00    -0.089 HD
ATOM     29  H   UNL     1      33.210 -22.069 -18.439  0.00  0.00    -0.089 HD
ENDBRANCH  25  26
ENDBRANCH  24  25
ENDBRANCH  21  24
ENDBRANCH  19  22
ENDBRANCH   2  19
TORSDOF 9
ENDMDL
MODEL 6
REMARK VINA RESULT:      -9.7      3.421      5.835
REMARK  Name = 6102763
REMARK  9 active torsions:
REMARK  status: ('A' for Active; 'I' for Inactive)
REMARK    1  A    between atoms: C_2  and  C_19
REMARK    2  A    between atoms: C_3  and  O_8
REMARK    3  A    between atoms: O_8  and  C_9
REMARK    4  A    between atoms: C_9  and  C_11
REMARK    5  A    between atoms: C_10  and  C_16
REMARK    6  A    between atoms: C_19  and  C_22
REMARK    7  A    between atoms: N_21  and  C_24
REMARK    8  A    between atoms: C_24  and  C_25
REMARK    9  A    between atoms: C_25  and  N_26
REMARK                            x       y       z     vdW  Elec       q    Type
REMARK                         _______ _______ _______ _____ _____    ______ ____
ROOT
ATOM      1 CL   UNL     1      32.726 -18.719 -20.968  0.00  0.00    -0.079 Cl
ATOM      2  C   UNL     1      34.351 -22.050 -19.476  0.00  0.00    -0.012 C 
ATOM      3  C   UNL     1      35.248 -19.670 -20.608  0.00  0.00    +0.149 C 
ATOM      4  C   UNL     1      33.433 -21.086 -19.894  0.00  0.00    +0.011 C 
ATOM      5  C   UNL     1      35.718 -21.820 -19.626  0.00  0.00    -0.001 C 
ATOM      6  C   UNL     1      33.882 -19.893 -20.461  0.00  0.00    +0.091 C 
ATOM      7  C   UNL     1      36.169 -20.628 -20.193  0.00  0.00    +0.037 C 
ENDROOT
BRANCH   3   8
ATOM      8  O   UNL     1      35.717 -18.509 -21.163  0.00  0.00    -0.470 OA
BRANCH   8   9
ATOM      9  C   UNL     1      35.943 -18.516 -22.567  0.00  0.00    +0.232 C 
BRANCH   9  11
ATOM     10  C   UNL     1      33.820 -15.260 -24.365  0.00  0.00    -0.023 C 
ATOM     11  C   UNL     1      35.203 -17.382 -23.193  0.00  0.00    +0.021 C 
ATOM     12  C   UNL     1      34.106 -16.404 -25.111  0.00  0.00    -0.004 C 
ATOM     13  C   UNL     1      34.226 -15.178 -23.032  0.00  0.00    -0.004 C 
ATOM     14  C   UNL     1      34.797 -17.465 -24.525  0.00  0.00    -0.001 C 
ATOM     15  C   UNL     1      34.918 -16.239 -22.446  0.00  0.00    -0.001 C 
BRANCH  10  16
ATOM     16  C   UNL     1      33.081 -14.127 -24.990  0.00  0.00    +0.022 C 
ATOM     17  C   UNL     1      33.618 -12.754 -24.540  0.00  0.00    +0.005 C 
ATOM     18  C   UNL     1      33.074 -14.205 -26.528  0.00  0.00    +0.005 C 
ENDBRANCH  10  16
ENDBRANCH   9  11
ENDBRANCH   8   9
ENDBRANCH   3   8
BRANCH   2  19
ATOM     19  C   UNL     1      33.871 -23.325 -18.870  0.00  0.00    +0.111 C 
BRANCH  19  22
ATOM     20  O   UNL     1      34.614 -23.285 -16.566  0.00  0.00    -0.275 OA
ATOM     21  N   UNL     1      32.340 -23.161 -17.011  0.00  0.00    -0.306 N 
ATOM     22  C   UNL     1      33.679 -23.255 -17.362  0.00  0.00    +0.227 C 
ATOM     23  H   UNL     1      31.664 -23.144 -17.728  0.00  0.00    +0.149 HD
BRANCH  21  24
ATOM     24  C   UNL     1      31.898 -23.086 -15.639  0.00  0.00    +0.066 C 
BRANCH  24  25
ATOM     25  C   UNL     1      30.379 -23.095 -15.548  0.00  0.00    -0.065 C 
BRANCH  25  26
ATOM     26  N   UNL     1      29.794 -22.677 -16.815  0.00  0.00    +0.382 N 
ATOM     27  H   UNL     1      29.505 -23.501 -17.343  0.00  0.00    -0.089 HD
ATOM     28  H   UNL     1      30.485 -22.154 -17.353  0.00  0.00    -0.089 HD
ATOM     29  H   UNL     1      28.983 -22.085 -16.637  0.00  0.00    -0.089 HD
ENDBRANCH  25  26
ENDBRANCH  24  25
ENDBRANCH  21  24
ENDBRANCH  19  22
ENDBRANCH   2  19
TORSDOF 9
ENDMDL
MODEL 7
REMARK VINA RESULT:      -9.7      2.930      5.324
REMARK  Name = 6102763
REMARK  9 active torsions:
REMARK  status: ('A' for Active; 'I' for Inactive)
REMARK    1  A    between atoms: C_2  and  C_19
REMARK    2  A    between atoms: C_3  and  O_8
REMARK    3  A    between atoms: O_8  and  C_9
REMARK    4  A    between atoms: C_9  and  C_11
REMARK    5  A    between atoms: C_10  and  C_16
REMARK    6  A    between atoms: C_19  and  C_22
REMARK    7  A    between atoms: N_21  and  C_24
REMARK    8  A    between atoms: C_24  and  C_25
REMARK    9  A    between atoms: C_25  and  N_26
REMARK                            x       y       z     vdW  Elec       q    Type
REMARK                         _______ _______ _______ _____ _____    ______ ____
ROOT
ATOM      1 CL   UNL     1      32.728 -18.766 -20.986  0.00  0.00    -0.079 Cl
ATOM      2  C   UNL     1      34.352 -22.061 -19.414  0.00  0.00    -0.012 C 
ATOM      3  C   UNL     1      35.251 -19.713 -20.608  0.00  0.00    +0.149 C 
ATOM      4  C   UNL     1      33.434 -21.106 -19.853  0.00  0.00    +0.011 C 
ATOM      5  C   UNL     1      35.719 -21.838 -19.573  0.00  0.00    -0.001 C 
ATOM      6  C   UNL     1      33.884 -19.929 -20.452  0.00  0.00    +0.091 C 
ATOM      7  C   UNL     1      36.170 -20.661 -20.171  0.00  0.00    +0.037 C 
ENDROOT
BRANCH   3   8
ATOM      8  O   UNL     1      35.720 -18.567 -21.194  0.00  0.00    -0.470 OA
BRANCH   8   9
ATOM      9  C   UNL     1      35.920 -18.603 -22.602  0.00  0.00    +0.232 C 
BRANCH   9  11
ATOM     10  C   UNL     1      33.822 -15.342 -24.418  0.00  0.00    -0.023 C 
ATOM     11  C   UNL     1      35.190 -17.468 -23.235  0.00  0.00    +0.021 C 
ATOM     12  C   UNL     1      34.264 -15.239 -23.099  0.00  0.00    -0.004 C 
ATOM     13  C   UNL     1      34.065 -16.508 -25.146  0.00  0.00    -0.004 C 
ATOM     14  C   UNL     1      34.948 -16.302 -22.508  0.00  0.00    -0.001 C 
ATOM     15  C   UNL     1      34.748 -17.571 -24.554  0.00  0.00    -0.001 C 
BRANCH  10  16
ATOM     16  C   UNL     1      33.092 -14.207 -25.051  0.00  0.00    +0.022 C 
ATOM     17  C   UNL     1      33.575 -12.837 -24.537  0.00  0.00    +0.005 C 
ATOM     18  C   UNL     1      33.167 -14.243 -26.589  0.00  0.00    +0.005 C 
ENDBRANCH  10  16
ENDBRANCH   9  11
ENDBRANCH   8   9
ENDBRANCH   3   8
BRANCH   2  19
ATOM     19  C   UNL     1      33.871 -23.319 -18.774  0.00  0.00    +0.111 C 
BRANCH  19  22
ATOM     20  O   UNL     1      32.409 -23.076 -16.859  0.00  0.00    -0.275 OA
ATOM     21  N   UNL     1      34.703 -23.162 -16.514  0.00  0.00    -0.306 N 
ATOM     22  C   UNL     1      33.554 -23.174 -17.293  0.00  0.00    +0.227 C 
ATOM     23  H   UNL     1      35.577 -23.247 -16.960  0.00  0.00    +0.149 HD
BRANCH  21  24
ATOM     24  C   UNL     1      34.667 -23.030 -15.077  0.00  0.00    +0.066 C 
BRANCH  24  25
ATOM     25  C   UNL     1      34.611 -24.391 -14.399  0.00  0.00    -0.065 C 
BRANCH  25  26
ATOM     26  N   UNL     1      33.235 -24.734 -14.066  0.00  0.00    +0.382 N 
ATOM     27  H   UNL     1      32.719 -24.938 -14.922  0.00  0.00    -0.089 HD
ATOM     28  H   UNL     1      32.796 -23.949 -13.584  0.00  0.00    -0.089 HD
ATOM     29  H   UNL     1      33.225 -25.553 -13.459  0.00  0.00    -0.089 HD
ENDBRANCH  25  26
ENDBRANCH  24  25
ENDBRANCH  21  24
ENDBRANCH  19  22
ENDBRANCH   2  19
TORSDOF 9
ENDMDL
MODEL 8
REMARK VINA RESULT:      -9.6      2.958      4.105
REMARK  Name = 6102763
REMARK  9 active torsions:
REMARK  status: ('A' for Active; 'I' for Inactive)
REMARK    1  A    between atoms: C_2  and  C_19
REMARK    2  A    between atoms: C_3  and  O_8
REMARK    3  A    between atoms: O_8  and  C_9
REMARK    4  A    between atoms: C_9  and  C_11
REMARK    5  A    between atoms: C_10  and  C_16
REMARK    6  A    between atoms: C_19  and  C_22
REMARK    7  A    between atoms: N_21  and  C_24
REMARK    8  A    between atoms: C_24  and  C_25
REMARK    9  A    between atoms: C_25  and  N_26
REMARK                            x       y       z     vdW  Elec       q    Type
REMARK                         _______ _______ _______ _____ _____    ______ ____
ROOT
ATOM      1 CL   UNL     1      37.298 -22.810 -15.876  0.00  0.00    -0.079 Cl
ATOM      2  C   UNL     1      33.588 -23.910 -14.881  0.00  0.00    -0.012 C 
ATOM      3  C   UNL     1      34.867 -22.819 -17.099  0.00  0.00    +0.149 C 
ATOM      4  C   UNL     1      34.959 -23.658 -14.841  0.00  0.00    +0.011 C 
ATOM      5  C   UNL     1      32.859 -23.616 -16.032  0.00  0.00    -0.001 C 
ATOM      6  C   UNL     1      35.601 -23.111 -15.952  0.00  0.00    +0.091 C 
ATOM      7  C   UNL     1      33.499 -23.070 -17.145  0.00  0.00    +0.037 C 
ENDROOT
BRANCH   3   8
ATOM      8  O   UNL     1      35.472 -22.281 -18.205  0.00  0.00    -0.470 OA
BRANCH   8   9
ATOM      9  C   UNL     1      34.708 -22.260 -19.405  0.00  0.00    +0.232 C 
BRANCH   9  11
ATOM     10  C   UNL     1      35.144 -18.446 -21.300  0.00  0.00    -0.023 C 
ATOM     11  C   UNL     1      34.860 -20.931 -20.064  0.00  0.00    +0.021 C 
ATOM     12  C   UNL     1      33.873 -18.983 -21.098  0.00  0.00    -0.004 C 
ATOM     13  C   UNL     1      36.274 -19.151 -20.884  0.00  0.00    -0.004 C 
ATOM     14  C   UNL     1      33.731 -20.225 -20.480  0.00  0.00    -0.001 C 
ATOM     15  C   UNL     1      36.132 -20.394 -20.267  0.00  0.00    -0.001 C 
BRANCH  10  16
ATOM     16  C   UNL     1      35.297 -17.117 -21.960  0.00  0.00    +0.022 C 
ATOM     17  C   UNL     1      34.972 -17.167 -23.466  0.00  0.00    +0.005 C 
ATOM     18  C   UNL     1      34.454 -16.022 -21.281  0.00  0.00    +0.005 C 
ENDBRANCH  10  16
ENDBRANCH   9  11
ENDBRANCH   8   9
ENDBRANCH   3   8
BRANCH   2  19
ATOM     19  C   UNL     1      32.901 -24.493 -13.692  0.00  0.00    +0.111 C 
BRANCH  19  22
ATOM     20  O   UNL     1      30.847 -23.397 -13.028  0.00  0.00    -0.275 OA
ATOM     21  N   UNL     1      30.735 -25.191 -14.497  0.00  0.00    -0.306 N 
ATOM     22  C   UNL     1      31.394 -24.278 -13.686  0.00  0.00    +0.227 C 
ATOM     23  H   UNL     1      31.267 -25.861 -14.984  0.00  0.00    +0.149 HD
BRANCH  21  24
ATOM     24  C   UNL     1      29.300 -25.196 -14.655  0.00  0.00    +0.066 C 
BRANCH  24  25
ATOM     25  C   UNL     1      28.877 -24.394 -15.877  0.00  0.00    -0.065 C 
BRANCH  25  26
ATOM     26  N   UNL     1      28.782 -22.979 -15.545  0.00  0.00    +0.382 N 
ATOM     27  H   UNL     1      28.283 -22.871 -14.662  0.00  0.00    -0.089 HD
ATOM     28  H   UNL     1      28.275 -22.490 -16.283  0.00  0.00    -0.089 HD
ATOM     29  H   UNL     1      29.718 -22.586 -15.458  0.00  0.00    -0.089 HD
ENDBRANCH  25  26
ENDBRANCH  24  25
ENDBRANCH  21  24
ENDBRANCH  19  22
ENDBRANCH   2  19
TORSDOF 9
ENDMDL
MODEL 9
REMARK VINA RESULT:      -9.6      6.257     10.887
REMARK  Name = 6102763
REMARK  9 active torsions:
REMARK  status: ('A' for Active; 'I' for Inactive)
REMARK    1  A    between atoms: C_2  and  C_19
REMARK    2  A    between atoms: C_3  and  O_8
REMARK    3  A    between atoms: O_8  and  C_9
REMARK    4  A    between atoms: C_9  and  C_11
REMARK    5  A    between atoms: C_10  and  C_16
REMARK    6  A    between atoms: C_19  and  C_22
REMARK    7  A    between atoms: N_21  and  C_24
REMARK    8  A    between atoms: C_24  and  C_25
REMARK    9  A    between atoms: C_25  and  N_26
REMARK                            x       y       z     vdW  Elec       q    Type
REMARK                         _______ _______ _______ _____ _____    ______ ____
ROOT
ATOM      1 CL   UNL     1      34.248 -17.988 -25.320  0.00  0.00    -0.079 Cl
ATOM      2  C   UNL     1      34.133 -14.669 -23.098  0.00  0.00    -0.012 C 
ATOM      3  C   UNL     1      34.746 -17.358 -22.721  0.00  0.00    +0.149 C 
ATOM      4  C   UNL     1      34.050 -15.560 -24.169  0.00  0.00    +0.011 C 
ATOM      5  C   UNL     1      34.523 -15.126 -21.840  0.00  0.00    -0.001 C 
ATOM      6  C   UNL     1      34.358 -16.908 -23.980  0.00  0.00    +0.091 C 
ATOM      7  C   UNL     1      34.830 -16.473 -21.650  0.00  0.00    +0.037 C 
ENDROOT
BRANCH   3   8
ATOM      8  O   UNL     1      35.052 -18.676 -22.507  0.00  0.00    -0.470 OA
BRANCH   8   9
ATOM      9  C   UNL     1      35.967 -18.957 -21.454  0.00  0.00    +0.232 C 
BRANCH   9  11
ATOM     10  C   UNL     1      34.299 -21.949 -18.885  0.00  0.00    -0.023 C 
ATOM     11  C   UNL     1      35.387 -20.000 -20.560  0.00  0.00    +0.021 C 
ATOM     12  C   UNL     1      33.459 -21.141 -19.652  0.00  0.00    -0.004 C 
ATOM     13  C   UNL     1      35.683 -21.782 -18.956  0.00  0.00    -0.004 C 
ATOM     14  C   UNL     1      34.003 -20.167 -20.490  0.00  0.00    -0.001 C 
ATOM     15  C   UNL     1      36.226 -20.807 -19.793  0.00  0.00    -0.001 C 
BRANCH  10  16
ATOM     16  C   UNL     1      33.719 -22.991 -17.990  0.00  0.00    +0.022 C 
ATOM     17  C   UNL     1      34.569 -23.221 -16.726  0.00  0.00    +0.005 C 
ATOM     18  C   UNL     1      32.264 -22.682 -17.592  0.00  0.00    +0.005 C 
ENDBRANCH  10  16
ENDBRANCH   9  11
ENDBRANCH   8   9
ENDBRANCH   3   8
BRANCH   2  19
ATOM     19  C   UNL     1      33.804 -13.228 -23.300  0.00  0.00    +0.111 C 
BRANCH  19  22
ATOM     20  O   UNL     1      31.879 -13.524 -21.861  0.00  0.00    -0.275 OA
ATOM     21  N   UNL     1      32.340 -11.407 -22.693  0.00  0.00    -0.306 N 
ATOM     22  C   UNL     1      32.573 -12.766 -22.533  0.00  0.00    +0.227 C 
ATOM     23  H   UNL     1      32.958 -10.885 -23.255  0.00  0.00    +0.149 HD
BRANCH  21  24
ATOM     24  C   UNL     1      31.229 -10.729 -22.069  0.00  0.00    +0.066 C 
BRANCH  24  25
ATOM     25  C   UNL     1      31.599 -10.227 -20.680  0.00  0.00    -0.065 C 
BRANCH  25  26
ATOM     26  N   UNL     1      31.278 -11.233 -19.677  0.00  0.00    +0.382 N 
ATOM     27  H   UNL     1      30.884 -10.778 -18.854  0.00  0.00    -0.089 HD
ATOM     28  H   UNL     1      32.127 -11.734 -19.413  0.00  0.00    -0.089 HD
ATOM     29  H   UNL     1      30.601 -11.892 -20.059  0.00  0.00    -0.089 HD
ENDBRANCH  25  26
ENDBRANCH  24  25
ENDBRANCH  21  24
ENDBRANCH  19  22
ENDBRANCH   2  19
TORSDOF 9
ENDMDL
