MODEL 1
REMARK VINA RESULT:      -9.3      0.000      0.000
REMARK  Name = 135564985
REMARK  5 active torsions:
REMARK  status: ('A' for Active; 'I' for Inactive)
REMARK    1  A    between atoms: N_2  and  C_9
REMARK    2  A    between atoms: C_5  and  C_19
REMARK    3  A    between atoms: C_18  and  C_24
REMARK    4  A    between atoms: C_21  and  O_27
REMARK    5  A    between atoms: C_22  and  O_29
REMARK                            x       y       z     vdW  Elec       q    Type
REMARK                         _______ _______ _______ _____ _____    ______ ____
ROOT
ATOM      1  O   UNL     1      32.392 -12.877 -27.810  0.00  0.00    -0.245 OA
ATOM      2  N   UNL     1      33.225 -13.537 -25.691  0.00  0.00    -0.242 N 
ATOM      3  N   UNL     1      33.239 -15.748 -26.115  0.00  0.00    -0.151 NA
ATOM      4  N   UNL     1      32.775 -15.091 -27.206  0.00  0.00    -0.226 N 
ATOM      5  C   UNL     1      33.474 -14.810 -25.241  0.00  0.00    +0.173 A 
ATOM      6  C   UNL     1      32.739 -13.709 -26.984  0.00  0.00    +0.349 A 
ATOM      7  H   UNL     1      32.500 -15.528 -28.045  0.00  0.00    +0.194 HD
ENDROOT
BRANCH   2   9
ATOM      8  N   UNL     1      33.983  -8.660 -23.175  0.00  0.00    -0.284 N 
ATOM      9  C   UNL     1      33.471 -12.276 -25.084  0.00  0.00    +0.070 C 
ATOM     10  C   UNL     1      33.965  -9.822 -23.912  0.00  0.00    +0.052 C 
ATOM     11  C   UNL     1      32.872 -10.572 -23.469  0.00  0.00    +0.016 C 
ATOM     12  C   UNL     1      32.622 -11.823 -24.066  0.00  0.00    +0.019 C 
ATOM     13  C   UNL     1      34.553 -11.507 -25.505  0.00  0.00    +0.019 C 
ATOM     14  C   UNL     1      34.821 -10.263 -24.928  0.00  0.00    +0.016 C 
ATOM     15  C   UNL     1      32.238  -9.820 -22.441  0.00  0.00    +0.017 C 
ATOM     16  C   UNL     1      32.944  -8.649 -22.283  0.00  0.00    +0.065 C 
ATOM     17  C   UNL     1      34.953  -7.594 -23.308  0.00  0.00    +0.117 C 
ENDBRANCH   2   9
BRANCH   5  19
ATOM     18  C   UNL     1      33.618 -14.838 -21.493  0.00  0.00    +0.011 C 
ATOM     19  C   UNL     1      33.889 -15.143 -23.874  0.00  0.00    +0.070 C 
ATOM     20  C   UNL     1      33.237 -14.536 -22.800  0.00  0.00    +0.005 C 
ATOM     21  C   UNL     1      34.652 -15.746 -21.260  0.00  0.00    +0.133 C 
ATOM     22  C   UNL     1      34.922 -16.051 -23.641  0.00  0.00    +0.140 C 
ATOM     23  C   UNL     1      35.303 -16.352 -22.334  0.00  0.00    +0.073 C 
BRANCH  18  24
ATOM     24  C   UNL     1      32.910 -14.179 -20.355  0.00  0.00    +0.025 C 
ATOM     25  C   UNL     1      32.094 -12.953 -20.803  0.00  0.00    +0.005 C 
ATOM     26  C   UNL     1      32.005 -15.156 -19.583  0.00  0.00    +0.005 C 
ENDBRANCH  18  24
BRANCH  21  27
ATOM     27  O   UNL     1      35.037 -16.051 -19.989  0.00  0.00    -0.506 OA
ATOM     28  H   UNL     1      35.614 -16.772 -19.835  0.00  0.00    +0.292 HD
ENDBRANCH  21  27
BRANCH  22  29
ATOM     29  O   UNL     1      35.570 -16.654 -24.677  0.00  0.00    -0.505 OA
ATOM     30  H   UNL     1      36.305 -16.234 -25.078  0.00  0.00    +0.292 HD
ENDBRANCH  22  29
ENDBRANCH   5  19
TORSDOF 5
ENDMDL
MODEL 2
REMARK VINA RESULT:      -8.6     10.804     14.370
REMARK  Name = 135564985
REMARK  5 active torsions:
REMARK  status: ('A' for Active; 'I' for Inactive)
REMARK    1  A    between atoms: N_2  and  C_9
REMARK    2  A    between atoms: C_5  and  C_19
REMARK    3  A    between atoms: C_18  and  C_24
REMARK    4  A    between atoms: C_21  and  O_27
REMARK    5  A    between atoms: C_22  and  O_29
REMARK                            x       y       z     vdW  Elec       q    Type
REMARK                         _______ _______ _______ _____ _____    ______ ____
ROOT
ATOM      1  O   UNL     1      34.571 -24.959 -11.490  0.00  0.00    -0.245 OA
ATOM      2  N   UNL     1      34.735 -24.036 -13.668  0.00  0.00    -0.242 N 
ATOM      3  N   UNL     1      36.970 -24.241 -13.850  0.00  0.00    -0.151 NA
ATOM      4  N   UNL     1      36.579 -24.706 -12.637  0.00  0.00    -0.226 N 
ATOM      5  C   UNL     1      35.868 -23.839 -14.418  0.00  0.00    +0.173 A 
ATOM      6  C   UNL     1      35.193 -24.589 -12.475  0.00  0.00    +0.349 A 
ATOM      7  H   UNL     1      37.190 -25.078 -11.960  0.00  0.00    +0.194 HD
ENDROOT
BRANCH   2   9
ATOM      8  N   UNL     1      29.369 -23.543 -14.956  0.00  0.00    -0.284 N 
ATOM      9  C   UNL     1      33.365 -23.845 -13.993  0.00  0.00    +0.070 C 
ATOM     10  C   UNL     1      30.701 -23.456 -14.620  0.00  0.00    +0.052 C 
ATOM     11  C   UNL     1      31.203 -24.760 -14.590  0.00  0.00    +0.016 C 
ATOM     12  C   UNL     1      32.560 -24.957 -14.269  0.00  0.00    +0.019 C 
ATOM     13  C   UNL     1      32.838 -22.556 -14.030  0.00  0.00    +0.019 C 
ATOM     14  C   UNL     1      31.494 -22.336 -14.346  0.00  0.00    +0.016 C 
ATOM     15  C   UNL     1      30.125 -25.630 -14.917  0.00  0.00    +0.017 C 
ATOM     16  C   UNL     1      29.011 -24.852 -15.137  0.00  0.00    +0.065 C 
ATOM     17  C   UNL     1      28.463 -22.423 -15.098  0.00  0.00    +0.117 C 
ENDBRANCH   2   9
BRANCH   5  19
ATOM     18  C   UNL     1      34.761 -22.543 -17.759  0.00  0.00    +0.011 C 
ATOM     19  C   UNL     1      35.897 -23.161 -15.718  0.00  0.00    +0.070 C 
ATOM     20  C   UNL     1      34.754 -23.180 -16.519  0.00  0.00    +0.005 C 
ATOM     21  C   UNL     1      35.912 -21.887 -18.200  0.00  0.00    +0.133 C 
ATOM     22  C   UNL     1      37.046 -22.506 -16.158  0.00  0.00    +0.140 C 
ATOM     23  C   UNL     1      37.054 -21.869 -17.399  0.00  0.00    +0.073 C 
BRANCH  18  24
ATOM     24  C   UNL     1      33.530 -22.573 -18.604  0.00  0.00    +0.025 C 
ATOM     25  C   UNL     1      32.255 -22.808 -17.773  0.00  0.00    +0.005 C 
ATOM     26  C   UNL     1      33.373 -21.301 -19.457  0.00  0.00    +0.005 C 
ENDBRANCH  18  24
BRANCH  21  27
ATOM     27  O   UNL     1      35.936 -21.260 -19.410  0.00  0.00    -0.506 OA
ATOM     28  H   UNL     1      35.936 -21.765 -20.199  0.00  0.00    +0.292 HD
ENDBRANCH  21  27
BRANCH  22  29
ATOM     29  O   UNL     1      38.172 -22.476 -15.390  0.00  0.00    -0.505 OA
ATOM     30  H   UNL     1      38.109 -22.301 -14.473  0.00  0.00    +0.292 HD
ENDBRANCH  22  29
ENDBRANCH   5  19
TORSDOF 5
ENDMDL
MODEL 3
REMARK VINA RESULT:      -8.6     10.920     14.241
REMARK  Name = 135564985
REMARK  5 active torsions:
REMARK  status: ('A' for Active; 'I' for Inactive)
REMARK    1  A    between atoms: N_2  and  C_9
REMARK    2  A    between atoms: C_5  and  C_19
REMARK    3  A    between atoms: C_18  and  C_24
REMARK    4  A    between atoms: C_21  and  O_27
REMARK    5  A    between atoms: C_22  and  O_29
REMARK                            x       y       z     vdW  Elec       q    Type
REMARK                         _______ _______ _______ _____ _____    ______ ____
ROOT
ATOM      1  O   UNL     1      30.512 -23.716 -16.047  0.00  0.00    -0.245 OA
ATOM      2  N   UNL     1      32.706 -23.929 -15.174  0.00  0.00    -0.242 N 
ATOM      3  N   UNL     1      32.126 -25.122 -13.354  0.00  0.00    -0.151 NA
ATOM      4  N   UNL     1      31.010 -24.835 -14.070  0.00  0.00    -0.226 N 
ATOM      5  C   UNL     1      33.096 -24.560 -14.018  0.00  0.00    +0.173 A 
ATOM      6  C   UNL     1      31.323 -24.084 -15.210  0.00  0.00    +0.349 A 
ATOM      7  H   UNL     1      30.100 -25.120 -13.822  0.00  0.00    +0.194 HD
ENDROOT
BRANCH   2   9
ATOM      8  N   UNL     1      35.904 -21.558 -19.026  0.00  0.00    -0.284 N 
ATOM      9  C   UNL     1      33.475 -23.323 -16.203  0.00  0.00    +0.070 C 
ATOM     10  C   UNL     1      34.960 -22.147 -18.216  0.00  0.00    +0.052 C 
ATOM     11  C   UNL     1      35.564 -22.370 -16.976  0.00  0.00    +0.016 C 
ATOM     12  C   UNL     1      34.807 -22.971 -15.951  0.00  0.00    +0.019 C 
ATOM     13  C   UNL     1      32.899 -23.089 -17.449  0.00  0.00    +0.019 C 
ATOM     14  C   UNL     1      33.630 -22.495 -18.481  0.00  0.00    +0.016 C 
ATOM     15  C   UNL     1      36.902 -21.896 -17.072  0.00  0.00    +0.017 C 
ATOM     16  C   UNL     1      37.081 -21.402 -18.345  0.00  0.00    +0.065 C 
ATOM     17  C   UNL     1      35.700 -21.157 -20.402  0.00  0.00    +0.117 C 
ENDBRANCH   2   9
BRANCH   5  19
ATOM     18  C   UNL     1      36.760 -25.287 -13.675  0.00  0.00    +0.011 C 
ATOM     19  C   UNL     1      34.465 -24.556 -13.490  0.00  0.00    +0.070 C 
ATOM     20  C   UNL     1      35.453 -25.276 -14.161  0.00  0.00    +0.005 C 
ATOM     21  C   UNL     1      37.078 -24.576 -12.516  0.00  0.00    +0.133 C 
ATOM     22  C   UNL     1      34.783 -23.846 -12.333  0.00  0.00    +0.140 C 
ATOM     23  C   UNL     1      36.090 -23.856 -11.846  0.00  0.00    +0.073 C 
BRANCH  18  24
ATOM     24  C   UNL     1      37.805 -26.063 -14.405  0.00  0.00    +0.025 C 
ATOM     25  C   UNL     1      37.203 -27.015 -15.455  0.00  0.00    +0.005 C 
ATOM     26  C   UNL     1      38.858 -25.154 -15.065  0.00  0.00    +0.005 C 
ENDBRANCH  18  24
BRANCH  21  27
ATOM     27  O   UNL     1      38.350 -24.576 -12.027  0.00  0.00    -0.506 OA
ATOM     28  H   UNL     1      38.497 -24.509 -11.104  0.00  0.00    +0.292 HD
ENDBRANCH  21  27
BRANCH  22  29
ATOM     29  O   UNL     1      33.832 -23.135 -11.664  0.00  0.00    -0.505 OA
ATOM     30  H   UNL     1      32.928 -23.229 -11.894  0.00  0.00    +0.292 HD
ENDBRANCH  22  29
ENDBRANCH   5  19
TORSDOF 5
ENDMDL
MODEL 4
REMARK VINA RESULT:      -8.4      4.193      8.893
REMARK  Name = 135564985
REMARK  5 active torsions:
REMARK  status: ('A' for Active; 'I' for Inactive)
REMARK    1  A    between atoms: N_2  and  C_9
REMARK    2  A    between atoms: C_5  and  C_19
REMARK    3  A    between atoms: C_18  and  C_24
REMARK    4  A    between atoms: C_21  and  O_27
REMARK    5  A    between atoms: C_22  and  O_29
REMARK                            x       y       z     vdW  Elec       q    Type
REMARK                         _______ _______ _______ _____ _____    ______ ____
ROOT
ATOM      1  O   UNL     1      32.680  -9.314 -19.574  0.00  0.00    -0.245 OA
ATOM      2  N   UNL     1      32.506  -7.995 -21.537  0.00  0.00    -0.242 N 
ATOM      3  N   UNL     1      32.092  -6.049 -20.483  0.00  0.00    -0.151 NA
ATOM      4  N   UNL     1      32.232  -7.031 -19.559  0.00  0.00    -0.226 N 
ATOM      5  C   UNL     1      32.239  -6.652 -21.629  0.00  0.00    +0.173 A 
ATOM      6  C   UNL     1      32.483  -8.266 -20.171  0.00  0.00    +0.349 A 
ATOM      7  H   UNL     1      32.168  -6.894 -18.586  0.00  0.00    +0.194 HD
ENDROOT
BRANCH   2   9
ATOM      8  N   UNL     1      34.024 -11.556 -25.500  0.00  0.00    -0.284 N 
ATOM      9  C   UNL     1      32.842  -8.943 -22.540  0.00  0.00    +0.070 C 
ATOM     10  C   UNL     1      33.483 -10.798 -24.486  0.00  0.00    +0.052 C 
ATOM     11  C   UNL     1      34.332  -9.706 -24.292  0.00  0.00    +0.016 C 
ATOM     12  C   UNL     1      34.005  -8.762 -23.299  0.00  0.00    +0.019 C 
ATOM     13  C   UNL     1      32.014 -10.042 -22.756  0.00  0.00    +0.019 C 
ATOM     14  C   UNL     1      32.318 -10.992 -23.735  0.00  0.00    +0.016 C 
ATOM     15  C   UNL     1      35.400  -9.836 -25.223  0.00  0.00    +0.017 C 
ATOM     16  C   UNL     1      35.183 -10.984 -25.951  0.00  0.00    +0.065 C 
ATOM     17  C   UNL     1      33.464 -12.784 -26.024  0.00  0.00    +0.117 C 
ENDBRANCH   2   9
BRANCH   5  19
ATOM     18  C   UNL     1      32.798  -5.415 -25.126  0.00  0.00    +0.011 C 
ATOM     19  C   UNL     1      32.041  -5.928 -22.890  0.00  0.00    +0.070 C 
ATOM     20  C   UNL     1      32.967  -6.095 -23.920  0.00  0.00    +0.005 C 
ATOM     21  C   UNL     1      31.703  -4.568 -25.301  0.00  0.00    +0.133 C 
ATOM     22  C   UNL     1      30.947  -5.082 -23.066  0.00  0.00    +0.140 C 
ATOM     23  C   UNL     1      30.778  -4.402 -24.271  0.00  0.00    +0.073 C 
BRANCH  18  24
ATOM     24  C   UNL     1      33.799  -5.604 -26.218  0.00  0.00    +0.025 C 
ATOM     25  C   UNL     1      34.157  -4.282 -26.921  0.00  0.00    +0.005 C 
ATOM     26  C   UNL     1      35.081  -6.299 -25.725  0.00  0.00    +0.005 C 
ENDBRANCH  18  24
BRANCH  21  27
ATOM     27  O   UNL     1      31.524  -3.895 -26.473  0.00  0.00    -0.506 OA
ATOM     28  H   UNL     1      32.233  -3.414 -26.851  0.00  0.00    +0.292 HD
ENDBRANCH  21  27
BRANCH  22  29
ATOM     29  O   UNL     1      30.031  -4.907 -22.071  0.00  0.00    -0.505 OA
ATOM     30  H   UNL     1      30.185  -4.272 -21.400  0.00  0.00    +0.292 HD
ENDBRANCH  22  29
ENDBRANCH   5  19
TORSDOF 5
ENDMDL
MODEL 5
REMARK VINA RESULT:      -8.3     11.070     14.579
REMARK  Name = 135564985
REMARK  5 active torsions:
REMARK  status: ('A' for Active; 'I' for Inactive)
REMARK    1  A    between atoms: N_2  and  C_9
REMARK    2  A    between atoms: C_5  and  C_19
REMARK    3  A    between atoms: C_18  and  C_24
REMARK    4  A    between atoms: C_21  and  O_27
REMARK    5  A    between atoms: C_22  and  O_29
REMARK                            x       y       z     vdW  Elec       q    Type
REMARK                         _______ _______ _______ _____ _____    ______ ____
ROOT
ATOM      1  O   UNL     1      32.161 -25.318 -12.916  0.00  0.00    -0.245 OA
ATOM      2  N   UNL     1      33.340 -24.221 -14.656  0.00  0.00    -0.242 N 
ATOM      3  N   UNL     1      31.524 -23.363 -15.674  0.00  0.00    -0.151 NA
ATOM      4  N   UNL     1      31.128 -24.084 -14.596  0.00  0.00    -0.226 N 
ATOM      5  C   UNL     1      32.822 -23.482 -15.690  0.00  0.00    +0.173 A 
ATOM      6  C   UNL     1      32.227 -24.647 -13.935  0.00  0.00    +0.349 A 
ATOM      7  H   UNL     1      30.191 -24.196 -14.314  0.00  0.00    +0.194 HD
ENDROOT
BRANCH   2   9
ATOM      8  N   UNL     1      38.568 -24.989 -12.991  0.00  0.00    -0.284 N 
ATOM      9  C   UNL     1      34.687 -24.464 -14.275  0.00  0.00    +0.070 C 
ATOM     10  C   UNL     1      37.308 -24.948 -13.545  0.00  0.00    +0.052 C 
ATOM     11  C   UNL     1      36.585 -23.974 -12.851  0.00  0.00    +0.016 C 
ATOM     12  C   UNL     1      35.249 -23.729 -13.224  0.00  0.00    +0.019 C 
ATOM     13  C   UNL     1      35.432 -25.429 -14.949  0.00  0.00    +0.019 C 
ATOM     14  C   UNL     1      36.759 -25.690 -14.597  0.00  0.00    +0.016 C 
ATOM     15  C   UNL     1      37.454 -23.434 -11.862  0.00  0.00    +0.017 C 
ATOM     16  C   UNL     1      38.665 -24.078 -11.973  0.00  0.00    +0.065 C 
ATOM     17  C   UNL     1      39.643 -25.862 -13.409  0.00  0.00    +0.117 C 
ENDBRANCH   2   9
BRANCH   5  19
ATOM     18  C   UNL     1      35.749 -22.169 -17.635  0.00  0.00    +0.011 C 
ATOM     19  C   UNL     1      33.614 -22.923 -16.791  0.00  0.00    +0.070 C 
ATOM     20  C   UNL     1      34.979 -22.701 -16.601  0.00  0.00    +0.005 C 
ATOM     21  C   UNL     1      35.154 -21.858 -18.859  0.00  0.00    +0.133 C 
ATOM     22  C   UNL     1      33.020 -22.613 -18.015  0.00  0.00    +0.140 C 
ATOM     23  C   UNL     1      33.791 -22.081 -19.048  0.00  0.00    +0.073 C 
BRANCH  18  24
ATOM     24  C   UNL     1      37.207 -21.937 -17.414  0.00  0.00    +0.025 C 
ATOM     25  C   UNL     1      37.560 -20.440 -17.350  0.00  0.00    +0.005 C 
ATOM     26  C   UNL     1      37.731 -22.654 -16.157  0.00  0.00    +0.005 C 
ENDBRANCH  18  24
BRANCH  21  27
ATOM     27  O   UNL     1      35.893 -21.337 -19.879  0.00  0.00    -0.506 OA
ATOM     28  H   UNL     1      35.466 -21.011 -20.647  0.00  0.00    +0.292 HD
ENDBRANCH  21  27
BRANCH  22  29
ATOM     29  O   UNL     1      31.689 -22.823 -18.219  0.00  0.00    -0.505 OA
ATOM     30  H   UNL     1      31.067 -22.173 -17.960  0.00  0.00    +0.292 HD
ENDBRANCH  22  29
ENDBRANCH   5  19
TORSDOF 5
ENDMDL
MODEL 6
REMARK VINA RESULT:      -8.1      2.640      6.653
REMARK  Name = 135564985
REMARK  5 active torsions:
REMARK  status: ('A' for Active; 'I' for Inactive)
REMARK    1  A    between atoms: N_2  and  C_9
REMARK    2  A    between atoms: C_5  and  C_19
REMARK    3  A    between atoms: C_18  and  C_24
REMARK    4  A    between atoms: C_21  and  O_27
REMARK    5  A    between atoms: C_22  and  O_29
REMARK                            x       y       z     vdW  Elec       q    Type
REMARK                         _______ _______ _______ _____ _____    ______ ____
ROOT
ATOM      1  O   UNL     1      31.031 -11.539 -20.172  0.00  0.00    -0.245 OA
ATOM      2  N   UNL     1      32.397 -11.730 -22.100  0.00  0.00    -0.242 N 
ATOM      3  N   UNL     1      32.244  -9.570 -22.718  0.00  0.00    -0.151 NA
ATOM      4  N   UNL     1      31.514  -9.761 -21.592  0.00  0.00    -0.226 N 
ATOM      5  C   UNL     1      32.730 -10.746 -22.998  0.00  0.00    +0.173 A 
ATOM      6  C   UNL     1      31.572 -11.096 -21.175  0.00  0.00    +0.349 A 
ATOM      7  H   UNL     1      31.010  -9.053 -21.127  0.00  0.00    +0.194 HD
ENDROOT
BRANCH   2   9
ATOM      8  N   UNL     1      34.229 -16.955 -21.924  0.00  0.00    -0.284 N 
ATOM      9  C   UNL     1      32.829 -13.079 -22.003  0.00  0.00    +0.070 C 
ATOM     10  C   UNL     1      33.660 -15.708 -21.800  0.00  0.00    +0.052 C 
ATOM     11  C   UNL     1      34.179 -14.915 -22.826  0.00  0.00    +0.016 C 
ATOM     12  C   UNL     1      33.756 -13.575 -22.928  0.00  0.00    +0.019 C 
ATOM     13  C   UNL     1      32.327 -13.894 -20.990  0.00  0.00    +0.019 C 
ATOM     14  C   UNL     1      32.733 -15.225 -20.869  0.00  0.00    +0.016 C 
ATOM     15  C   UNL     1      35.080 -15.729 -23.568  0.00  0.00    +0.017 C 
ATOM     16  C   UNL     1      35.089 -16.978 -22.989  0.00  0.00    +0.065 C 
ATOM     17  C   UNL     1      33.970 -18.088 -21.062  0.00  0.00    +0.117 C 
ENDBRANCH   2   9
BRANCH   5  19
ATOM     18  C   UNL     1      33.807 -12.205 -26.282  0.00  0.00    +0.011 C 
ATOM     19  C   UNL     1      33.496 -10.969 -24.230  0.00  0.00    +0.070 C 
ATOM     20  C   UNL     1      33.091 -11.976 -25.108  0.00  0.00    +0.005 C 
ATOM     21  C   UNL     1      34.928 -11.428 -26.579  0.00  0.00    +0.133 C 
ATOM     22  C   UNL     1      34.616 -10.193 -24.527  0.00  0.00    +0.140 C 
ATOM     23  C   UNL     1      35.332 -10.423 -25.701  0.00  0.00    +0.073 C 
BRANCH  18  24
ATOM     24  C   UNL     1      33.360 -13.286 -27.210  0.00  0.00    +0.025 C 
ATOM     25  C   UNL     1      33.455 -14.684 -26.571  0.00  0.00    +0.005 C 
ATOM     26  C   UNL     1      31.936 -13.049 -27.745  0.00  0.00    +0.005 C 
ENDBRANCH  18  24
BRANCH  21  27
ATOM     27  O   UNL     1      35.639 -11.640 -27.722  0.00  0.00    -0.506 OA
ATOM     28  H   UNL     1      36.564 -11.779 -27.680  0.00  0.00    +0.292 HD
ENDBRANCH  21  27
BRANCH  22  29
ATOM     29  O   UNL     1      35.027  -9.205 -23.682  0.00  0.00    -0.505 OA
ATOM     30  H   UNL     1      35.499  -9.422 -22.902  0.00  0.00    +0.292 HD
ENDBRANCH  22  29
ENDBRANCH   5  19
TORSDOF 5
ENDMDL
MODEL 7
REMARK VINA RESULT:      -7.9     11.760     14.695
REMARK  Name = 135564985
REMARK  5 active torsions:
REMARK  status: ('A' for Active; 'I' for Inactive)
REMARK    1  A    between atoms: N_2  and  C_9
REMARK    2  A    between atoms: C_5  and  C_19
REMARK    3  A    between atoms: C_18  and  C_24
REMARK    4  A    between atoms: C_21  and  O_27
REMARK    5  A    between atoms: C_22  and  O_29
REMARK                            x       y       z     vdW  Elec       q    Type
REMARK                         _______ _______ _______ _____ _____    ______ ____
ROOT
ATOM      1  O   UNL     1      35.543 -21.605 -18.351  0.00  0.00    -0.245 OA
ATOM      2  N   UNL     1      35.761 -22.984 -16.434  0.00  0.00    -0.242 N 
ATOM      3  N   UNL     1      37.995 -22.774 -16.240  0.00  0.00    -0.151 NA
ATOM      4  N   UNL     1      37.575 -22.061 -17.314  0.00  0.00    -0.226 N 
ATOM      5  C   UNL     1      36.911 -23.316 -15.761  0.00  0.00    +0.173 A 
ATOM      6  C   UNL     1      36.189 -22.170 -17.480  0.00  0.00    +0.349 A 
ATOM      7  H   UNL     1      38.167 -21.534 -17.899  0.00  0.00    +0.194 HD
ENDROOT
BRANCH   2   9
ATOM      8  N   UNL     1      30.528 -24.181 -15.065  0.00  0.00    -0.284 N 
ATOM      9  C   UNL     1      34.401 -23.273 -16.143  0.00  0.00    +0.070 C 
ATOM     10  C   UNL     1      31.751 -23.830 -15.592  0.00  0.00    +0.052 C 
ATOM     11  C   UNL     1      32.704 -24.036 -14.591  0.00  0.00    +0.016 C 
ATOM     12  C   UNL     1      34.055 -23.751 -14.873  0.00  0.00    +0.019 C 
ATOM     13  C   UNL     1      33.429 -23.079 -17.122  0.00  0.00    +0.019 C 
ATOM     14  C   UNL     1      32.083 -23.354 -16.865  0.00  0.00    +0.016 C 
ATOM     15  C   UNL     1      32.011 -24.519 -13.447  0.00  0.00    +0.017 C 
ATOM     16  C   UNL     1      30.675 -24.598 -13.769  0.00  0.00    +0.065 C 
ATOM     17  C   UNL     1      29.262 -24.121 -15.763  0.00  0.00    +0.117 C 
ENDBRANCH   2   9
BRANCH   5  19
ATOM     18  C   UNL     1      36.847 -24.682 -12.268  0.00  0.00    +0.011 C 
ATOM     19  C   UNL     1      36.975 -24.265 -14.644  0.00  0.00    +0.070 C 
ATOM     20  C   UNL     1      36.788 -23.796 -13.343  0.00  0.00    +0.005 C 
ATOM     21  C   UNL     1      37.094 -26.037 -12.493  0.00  0.00    +0.133 C 
ATOM     22  C   UNL     1      37.221 -25.619 -14.869  0.00  0.00    +0.140 C 
ATOM     23  C   UNL     1      37.280 -26.505 -13.793  0.00  0.00    +0.073 C 
BRANCH  18  24
ATOM     24  C   UNL     1      36.645 -24.163 -10.882  0.00  0.00    +0.025 C 
ATOM     25  C   UNL     1      36.857 -22.641 -10.789  0.00  0.00    +0.005 C 
ATOM     26  C   UNL     1      35.265 -24.536 -10.311  0.00  0.00    +0.005 C 
ENDBRANCH  18  24
BRANCH  21  27
ATOM     27  O   UNL     1      37.155 -26.916 -11.453  0.00  0.00    -0.506 OA
ATOM     28  H   UNL     1      37.547 -26.656 -10.643  0.00  0.00    +0.292 HD
ENDBRANCH  21  27
BRANCH  22  29
ATOM     29  O   UNL     1      37.405 -26.097 -16.132  0.00  0.00    -0.505 OA
ATOM     30  H   UNL     1      38.096 -26.705 -16.307  0.00  0.00    +0.292 HD
ENDBRANCH  22  29
ENDBRANCH   5  19
TORSDOF 5
ENDMDL
MODEL 8
REMARK VINA RESULT:      -7.8      3.663      6.131
REMARK  Name = 135564985
REMARK  5 active torsions:
REMARK  status: ('A' for Active; 'I' for Inactive)
REMARK    1  A    between atoms: N_2  and  C_9
REMARK    2  A    between atoms: C_5  and  C_19
REMARK    3  A    between atoms: C_18  and  C_24
REMARK    4  A    between atoms: C_21  and  O_27
REMARK    5  A    between atoms: C_22  and  O_29
REMARK                            x       y       z     vdW  Elec       q    Type
REMARK                         _______ _______ _______ _____ _____    ______ ____
ROOT
ATOM      1  O   UNL     1      32.488  -6.612 -19.764  0.00  0.00    -0.245 OA
ATOM      2  N   UNL     1      32.610  -8.376 -21.344  0.00  0.00    -0.242 N 
ATOM      3  N   UNL     1      31.862  -9.989 -19.963  0.00  0.00    -0.151 NA
ATOM      4  N   UNL     1      31.907  -8.813 -19.288  0.00  0.00    -0.226 N 
ATOM      5  C   UNL     1      32.299  -9.700 -21.156  0.00  0.00    +0.173 A 
ATOM      6  C   UNL     1      32.377  -7.780 -20.107  0.00  0.00    +0.349 A 
ATOM      7  H   UNL     1      31.642  -8.701 -18.346  0.00  0.00    +0.194 HD
ENDROOT
BRANCH   2   9
ATOM      8  N   UNL     1      33.855  -5.539 -25.937  0.00  0.00    -0.284 N 
ATOM      9  C   UNL     1      32.990  -7.672 -22.518  0.00  0.00    +0.070 C 
ATOM     10  C   UNL     1      33.746  -6.307 -24.800  0.00  0.00    +0.052 C 
ATOM     11  C   UNL     1      32.429  -6.187 -24.348  0.00  0.00    +0.016 C 
ATOM     12  C   UNL     1      32.045  -6.882 -23.185  0.00  0.00    +0.019 C 
ATOM     13  C   UNL     1      34.296  -7.773 -22.992  0.00  0.00    +0.019 C 
ATOM     14  C   UNL     1      34.700  -7.092 -24.143  0.00  0.00    +0.016 C 
ATOM     15  C   UNL     1      31.754  -5.320 -25.253  0.00  0.00    +0.017 C 
ATOM     16  C   UNL     1      32.658  -4.938 -26.219  0.00  0.00    +0.065 C 
ATOM     17  C   UNL     1      35.055  -5.377 -26.730  0.00  0.00    +0.117 C 
ENDBRANCH   2   9
BRANCH   5  19
ATOM     18  C   UNL     1      33.293 -11.407 -24.345  0.00  0.00    +0.011 C 
ATOM     19  C   UNL     1      32.504 -10.752 -22.157  0.00  0.00    +0.070 C 
ATOM     20  C   UNL     1      33.091 -10.421 -23.379  0.00  0.00    +0.005 C 
ATOM     21  C   UNL     1      32.908 -12.724 -24.088  0.00  0.00    +0.133 C 
ATOM     22  C   UNL     1      32.120 -12.068 -21.901  0.00  0.00    +0.140 C 
ATOM     23  C   UNL     1      32.321 -13.054 -22.867  0.00  0.00    +0.073 C 
BRANCH  18  24
ATOM     24  C   UNL     1      33.922 -11.036 -25.647  0.00  0.00    +0.025 C 
ATOM     25  C   UNL     1      35.342 -10.468 -25.472  0.00  0.00    +0.005 C 
ATOM     26  C   UNL     1      33.946 -12.210 -26.642  0.00  0.00    +0.005 C 
ENDBRANCH  18  24
BRANCH  21  27
ATOM     27  O   UNL     1      33.097 -13.699 -25.021  0.00  0.00    -0.506 OA
ATOM     28  H   UNL     1      32.719 -13.612 -25.874  0.00  0.00    +0.292 HD
ENDBRANCH  21  27
BRANCH  22  29
ATOM     29  O   UNL     1      31.545 -12.410 -20.713  0.00  0.00    -0.505 OA
ATOM     30  H   UNL     1      32.061 -12.809 -20.041  0.00  0.00    +0.292 HD
ENDBRANCH  22  29
ENDBRANCH   5  19
TORSDOF 5
ENDMDL
MODEL 9
REMARK VINA RESULT:      -7.4      3.216      5.668
REMARK  Name = 135564985
REMARK  5 active torsions:
REMARK  status: ('A' for Active; 'I' for Inactive)
REMARK    1  A    between atoms: N_2  and  C_9
REMARK    2  A    between atoms: C_5  and  C_19
REMARK    3  A    between atoms: C_18  and  C_24
REMARK    4  A    between atoms: C_21  and  O_27
REMARK    5  A    between atoms: C_22  and  O_29
REMARK                            x       y       z     vdW  Elec       q    Type
REMARK                         _______ _______ _______ _____ _____    ______ ____
ROOT
ATOM      1  O   UNL     1      31.576  -8.187 -19.159  0.00  0.00    -0.245 OA
ATOM      2  N   UNL     1      32.054  -9.646 -20.966  0.00  0.00    -0.242 N 
ATOM      3  N   UNL     1      31.681 -11.558 -19.837  0.00  0.00    -0.151 NA
ATOM      4  N   UNL     1      31.482 -10.506 -19.004  0.00  0.00    -0.226 N 
ATOM      5  C   UNL     1      32.034 -11.019 -20.969  0.00  0.00    +0.173 A 
ATOM      6  C   UNL     1      31.712  -9.292 -19.663  0.00  0.00    +0.349 A 
ATOM      7  H   UNL     1      31.209 -10.585 -18.061  0.00  0.00    +0.194 HD
ENDROOT
BRANCH   2   9
ATOM      8  N   UNL     1      33.121  -6.087 -25.076  0.00  0.00    -0.284 N 
ATOM      9  C   UNL     1      32.264  -8.720 -22.023  0.00  0.00    +0.070 C 
ATOM     10  C   UNL     1      32.655  -6.918 -24.082  0.00  0.00    +0.052 C 
ATOM     11  C   UNL     1      33.764  -7.574 -23.541  0.00  0.00    +0.016 C 
ATOM     12  C   UNL     1      33.563  -8.493 -22.492  0.00  0.00    +0.019 C 
ATOM     13  C   UNL     1      31.177  -8.052 -22.581  0.00  0.00    +0.019 C 
ATOM     14  C   UNL     1      31.351  -7.136 -23.622  0.00  0.00    +0.016 C 
ATOM     15  C   UNL     1      34.909  -7.109 -24.246  0.00  0.00    +0.017 C 
ATOM     16  C   UNL     1      34.481  -6.196 -25.183  0.00  0.00    +0.065 C 
ATOM     17  C   UNL     1      32.305  -5.221 -25.899  0.00  0.00    +0.117 C 
ENDBRANCH   2   9
BRANCH   5  19
ATOM     18  C   UNL     1      33.269 -12.012 -24.369  0.00  0.00    +0.011 C 
ATOM     19  C   UNL     1      32.448 -11.853 -22.102  0.00  0.00    +0.070 C 
ATOM     20  C   UNL     1      32.873 -11.237 -23.280  0.00  0.00    +0.005 C 
ATOM     21  C   UNL     1      33.239 -13.405 -24.281  0.00  0.00    +0.133 C 
ATOM     22  C   UNL     1      32.419 -13.245 -22.015  0.00  0.00    +0.140 C 
ATOM     23  C   UNL     1      32.814 -14.020 -23.104  0.00  0.00    +0.073 C 
BRANCH  18  24
ATOM     24  C   UNL     1      33.721 -11.336 -25.622  0.00  0.00    +0.025 C 
ATOM     25  C   UNL     1      35.115 -10.700 -25.474  0.00  0.00    +0.005 C 
ATOM     26  C   UNL     1      33.701 -12.280 -26.838  0.00  0.00    +0.005 C 
ENDBRANCH  18  24
BRANCH  21  27
ATOM     27  O   UNL     1      33.622 -14.177 -25.337  0.00  0.00    -0.506 OA
ATOM     28  H   UNL     1      34.477 -14.560 -25.351  0.00  0.00    +0.292 HD
ENDBRANCH  21  27
BRANCH  22  29
ATOM     29  O   UNL     1      32.007 -13.865 -20.873  0.00  0.00    -0.505 OA
ATOM     30  H   UNL     1      31.092 -13.949 -20.689  0.00  0.00    +0.292 HD
ENDBRANCH  22  29
ENDBRANCH   5  19
TORSDOF 5
ENDMDL
