MODEL 1
REMARK VINA RESULT:      -7.0      0.000      0.000
REMARK  Name = 5287850
REMARK  6 active torsions:
REMARK  status: ('A' for Active; 'I' for Inactive)
REMARK    1  A    between atoms: C_1  and  C_3
REMARK    2  A    between atoms: C_1  and  C_6
REMARK    3  A    between atoms: C_1  and  C_13
REMARK    4  A    between atoms: C_3  and  O_4
REMARK    5  A    between atoms: C_6  and  C_7
REMARK    6  A    between atoms: C_13  and  S_14
REMARK                            x       y       z     vdW  Elec       q    Type
REMARK                         _______ _______ _______ _____ _____    ______ ____
ROOT
ATOM      1  C   UNL     1      34.700 -17.435 -22.210  0.00  0.00    +0.114 C 
ENDROOT
BRANCH   1   3
ATOM      2  O   UNL     1      35.012 -16.132 -20.168  0.00  0.00    -0.250 OA
ATOM      3  C   UNL     1      34.801 -16.164 -21.373  0.00  0.00    +0.314 C 
BRANCH   3   4
ATOM      4  O   UNL     1      34.640 -15.044 -22.122  0.00  0.00    -0.480 OA
ATOM      5  H   UNL     1      35.254 -14.840 -22.800  0.00  0.00    +0.295 HD
ENDBRANCH   3   4
ENDBRANCH   1   3
BRANCH   1   6
ATOM      6  C   UNL     1      35.685 -18.506 -21.694  0.00  0.00    +0.038 C 
BRANCH   6   7
ATOM      7  C   UNL     1      35.072 -19.632 -20.895  0.00  0.00    -0.022 C 
ATOM      8  C   UNL     1      33.694 -19.710 -20.780  0.00  0.00    -0.004 C 
ATOM      9  C   UNL     1      35.900 -20.565 -20.293  0.00  0.00    -0.004 C 
ATOM     10  C   UNL     1      33.127 -20.749 -20.043  0.00  0.00    -0.000 C 
ATOM     11  C   UNL     1      35.334 -21.605 -19.556  0.00  0.00    -0.000 C 
ATOM     12  C   UNL     1      33.947 -21.697 -19.430  0.00  0.00    -0.000 C 
ENDBRANCH   6   7
ENDBRANCH   1   6
BRANCH   1  13
ATOM     13  C   UNL     1      34.884 -17.159 -23.712  0.00  0.00    +0.065 C 
BRANCH  13  14
ATOM     14  S   UNL     1      34.463 -18.607 -24.736  0.00  0.00    -0.167 S 
ATOM     15  H   UNL     1      34.779 -18.352 -26.034  0.00  0.00    +0.102 HD
ENDBRANCH  13  14
ENDBRANCH   1  13
TORSDOF 6
ENDMDL
MODEL 2
REMARK VINA RESULT:      -7.0      0.070      1.342
REMARK  Name = 5287850
REMARK  6 active torsions:
REMARK  status: ('A' for Active; 'I' for Inactive)
REMARK    1  A    between atoms: C_1  and  C_3
REMARK    2  A    between atoms: C_1  and  C_6
REMARK    3  A    between atoms: C_1  and  C_13
REMARK    4  A    between atoms: C_3  and  O_4
REMARK    5  A    between atoms: C_6  and  C_7
REMARK    6  A    between atoms: C_13  and  S_14
REMARK                            x       y       z     vdW  Elec       q    Type
REMARK                         _______ _______ _______ _____ _____    ______ ____
ROOT
ATOM      1  C   UNL     1      34.705 -17.399 -22.183  0.00  0.00    +0.114 C 
ENDROOT
BRANCH   1   3
ATOM      2  O   UNL     1      35.041 -16.137 -20.119  0.00  0.00    -0.250 OA
ATOM      3  C   UNL     1      34.795 -16.146 -21.318  0.00  0.00    +0.314 C 
BRANCH   3   4
ATOM      4  O   UNL     1      34.582 -15.013 -22.034  0.00  0.00    -0.480 OA
ATOM      5  H   UNL     1      35.269 -14.654 -22.561  0.00  0.00    +0.295 HD
ENDBRANCH   3   4
ENDBRANCH   1   3
BRANCH   1   6
ATOM      6  C   UNL     1      35.673 -18.486 -21.668  0.00  0.00    +0.038 C 
BRANCH   6   7
ATOM      7  C   UNL     1      35.040 -19.611 -20.884  0.00  0.00    -0.022 C 
ATOM      8  C   UNL     1      35.852 -20.543 -20.258  0.00  0.00    -0.004 C 
ATOM      9  C   UNL     1      33.658 -19.688 -20.805  0.00  0.00    -0.004 C 
ATOM     10  C   UNL     1      35.267 -21.582 -19.535  0.00  0.00    -0.000 C 
ATOM     11  C   UNL     1      33.074 -20.727 -20.080  0.00  0.00    -0.000 C 
ATOM     12  C   UNL     1      33.878 -21.674 -19.445  0.00  0.00    -0.000 C 
ENDBRANCH   6   7
ENDBRANCH   1   6
BRANCH   1  13
ATOM     13  C   UNL     1      34.923 -17.093 -23.675  0.00  0.00    +0.065 C 
BRANCH  13  14
ATOM     14  S   UNL     1      34.497 -18.511 -24.739  0.00  0.00    -0.167 S 
ATOM     15  H   UNL     1      33.282 -18.298 -25.313  0.00  0.00    +0.102 HD
ENDBRANCH  13  14
ENDBRANCH   1  13
TORSDOF 6
ENDMDL
MODEL 3
REMARK VINA RESULT:      -7.0      1.890      2.622
REMARK  Name = 5287850
REMARK  6 active torsions:
REMARK  status: ('A' for Active; 'I' for Inactive)
REMARK    1  A    between atoms: C_1  and  C_3
REMARK    2  A    between atoms: C_1  and  C_6
REMARK    3  A    between atoms: C_1  and  C_13
REMARK    4  A    between atoms: C_3  and  O_4
REMARK    5  A    between atoms: C_6  and  C_7
REMARK    6  A    between atoms: C_13  and  S_14
REMARK                            x       y       z     vdW  Elec       q    Type
REMARK                         _______ _______ _______ _____ _____    ______ ____
ROOT
ATOM      1  C   UNL     1      35.025 -17.662 -21.775  0.00  0.00    +0.114 C 
ENDROOT
BRANCH   1   3
ATOM      2  O   UNL     1      34.925 -18.197 -24.156  0.00  0.00    -0.250 OA
ATOM      3  C   UNL     1      35.209 -17.406 -23.267  0.00  0.00    +0.314 C 
BRANCH   3   4
ATOM      4  O   UNL     1      35.722 -16.173 -23.516  0.00  0.00    -0.480 OA
ATOM      5  H   UNL     1      35.551 -15.466 -22.926  0.00  0.00    +0.295 HD
ENDBRANCH   3   4
ENDBRANCH   1   3
BRANCH   1   6
ATOM      6  C   UNL     1      33.880 -18.670 -21.534  0.00  0.00    +0.038 C 
BRANCH   6   7
ATOM      7  C   UNL     1      34.233 -19.876 -20.695  0.00  0.00    -0.022 C 
ATOM      8  C   UNL     1      35.563 -20.242 -20.560  0.00  0.00    -0.004 C 
ATOM      9  C   UNL     1      33.221 -20.591 -20.077  0.00  0.00    -0.004 C 
ATOM     10  C   UNL     1      35.889 -21.355 -19.786  0.00  0.00    -0.000 C 
ATOM     11  C   UNL     1      33.547 -21.704 -19.303  0.00  0.00    -0.000 C 
ATOM     12  C   UNL     1      34.881 -22.087 -19.157  0.00  0.00    -0.000 C 
ENDBRANCH   6   7
ENDBRANCH   1   6
BRANCH   1  13
ATOM     13  C   UNL     1      34.822 -16.360 -20.981  0.00  0.00    +0.065 C 
BRANCH  13  14
ATOM     14  S   UNL     1      33.099 -15.767 -21.058  0.00  0.00    -0.167 S 
ATOM     15  H   UNL     1      32.914 -14.792 -20.127  0.00  0.00    +0.102 HD
ENDBRANCH  13  14
ENDBRANCH   1  13
TORSDOF 6
ENDMDL
MODEL 4
REMARK VINA RESULT:      -6.5      4.861      6.790
REMARK  Name = 5287850
REMARK  6 active torsions:
REMARK  status: ('A' for Active; 'I' for Inactive)
REMARK    1  A    between atoms: C_1  and  C_3
REMARK    2  A    between atoms: C_1  and  C_6
REMARK    3  A    between atoms: C_1  and  C_13
REMARK    4  A    between atoms: C_3  and  O_4
REMARK    5  A    between atoms: C_6  and  C_7
REMARK    6  A    between atoms: C_13  and  S_14
REMARK                            x       y       z     vdW  Elec       q    Type
REMARK                         _______ _______ _______ _____ _____    ______ ____
ROOT
ATOM      1  C   UNL     1      33.333 -22.952 -16.834  0.00  0.00    +0.114 C 
ENDROOT
BRANCH   1   3
ATOM      2  O   UNL     1      31.512 -24.039 -15.623  0.00  0.00    -0.250 OA
ATOM      3  C   UNL     1      31.879 -23.237 -16.471  0.00  0.00    +0.314 C 
BRANCH   3   4
ATOM      4  O   UNL     1      31.013 -22.481 -17.193  0.00  0.00    -0.480 OA
ATOM      5  H   UNL     1      30.129 -22.373 -16.903  0.00  0.00    +0.295 HD
ENDBRANCH   3   4
ENDBRANCH   1   3
BRANCH   1   6
ATOM      6  C   UNL     1      33.588 -23.251 -18.327  0.00  0.00    +0.038 C 
BRANCH   6   7
ATOM      7  C   UNL     1      34.048 -22.079 -19.162  0.00  0.00    -0.022 C 
ATOM      8  C   UNL     1      33.106 -21.218 -19.701  0.00  0.00    -0.004 C 
ATOM      9  C   UNL     1      35.404 -21.888 -19.372  0.00  0.00    -0.004 C 
ATOM     10  C   UNL     1      33.530 -20.137 -20.472  0.00  0.00    -0.000 C 
ATOM     11  C   UNL     1      35.829 -20.806 -20.143  0.00  0.00    -0.000 C 
ATOM     12  C   UNL     1      34.893 -19.930 -20.693  0.00  0.00    -0.000 C 
ENDBRANCH   6   7
ENDBRANCH   1   6
BRANCH   1  13
ATOM     13  C   UNL     1      34.319 -23.699 -15.920  0.00  0.00    +0.065 C 
BRANCH  13  14
ATOM     14  S   UNL     1      35.888 -22.794 -15.712  0.00  0.00    -0.167 S 
ATOM     15  H   UNL     1      35.905 -22.192 -14.492  0.00  0.00    +0.102 HD
ENDBRANCH  13  14
ENDBRANCH   1  13
TORSDOF 6
ENDMDL
MODEL 5
REMARK VINA RESULT:      -6.4      4.289      6.026
REMARK  Name = 5287850
REMARK  6 active torsions:
REMARK  status: ('A' for Active; 'I' for Inactive)
REMARK    1  A    between atoms: C_1  and  C_3
REMARK    2  A    between atoms: C_1  and  C_6
REMARK    3  A    between atoms: C_1  and  C_13
REMARK    4  A    between atoms: C_3  and  O_4
REMARK    5  A    between atoms: C_6  and  C_7
REMARK    6  A    between atoms: C_13  and  S_14
REMARK                            x       y       z     vdW  Elec       q    Type
REMARK                         _______ _______ _______ _____ _____    ______ ____
ROOT
ATOM      1  C   UNL     1      34.782 -22.103 -18.092  0.00  0.00    +0.114 C 
ENDROOT
BRANCH   1   3
ATOM      2  O   UNL     1      32.443 -22.796 -17.970  0.00  0.00    -0.250 OA
ATOM      3  C   UNL     1      33.569 -22.971 -18.414  0.00  0.00    +0.314 C 
BRANCH   3   4
ATOM      4  O   UNL     1      33.873 -23.976 -19.274  0.00  0.00    -0.480 OA
ATOM      5  H   UNL     1      34.057 -23.785 -20.173  0.00  0.00    +0.295 HD
ENDBRANCH   3   4
ENDBRANCH   1   3
BRANCH   1   6
ATOM      6  C   UNL     1      35.656 -21.903 -19.349  0.00  0.00    +0.038 C 
BRANCH   6   7
ATOM      7  C   UNL     1      35.400 -20.637 -20.132  0.00  0.00    -0.022 C 
ATOM      8  C   UNL     1      36.474 -19.854 -20.524  0.00  0.00    -0.004 C 
ATOM      9  C   UNL     1      34.097 -20.284 -20.443  0.00  0.00    -0.004 C 
ATOM     10  C   UNL     1      36.238 -18.684 -21.246  0.00  0.00    -0.000 C 
ATOM     11  C   UNL     1      33.861 -19.114 -21.165  0.00  0.00    -0.000 C 
ATOM     12  C   UNL     1      34.932 -18.314 -21.567  0.00  0.00    -0.000 C 
ENDBRANCH   6   7
ENDBRANCH   1   6
BRANCH   1  13
ATOM     13  C   UNL     1      35.594 -22.653 -16.907  0.00  0.00    +0.065 C 
BRANCH  13  14
ATOM     14  S   UNL     1      37.173 -21.770 -16.684  0.00  0.00    -0.167 S 
ATOM     15  H   UNL     1      37.029 -20.477 -17.079  0.00  0.00    +0.102 HD
ENDBRANCH  13  14
ENDBRANCH   1  13
TORSDOF 6
ENDMDL
MODEL 6
REMARK VINA RESULT:      -6.3      2.522      3.737
REMARK  Name = 5287850
REMARK  6 active torsions:
REMARK  status: ('A' for Active; 'I' for Inactive)
REMARK    1  A    between atoms: C_1  and  C_3
REMARK    2  A    between atoms: C_1  and  C_6
REMARK    3  A    between atoms: C_1  and  C_13
REMARK    4  A    between atoms: C_3  and  O_4
REMARK    5  A    between atoms: C_6  and  C_7
REMARK    6  A    between atoms: C_13  and  S_14
REMARK                            x       y       z     vdW  Elec       q    Type
REMARK                         _______ _______ _______ _____ _____    ______ ____
ROOT
ATOM      1  C   UNL     1      33.210 -14.620 -23.222  0.00  0.00    +0.114 C 
ENDROOT
BRANCH   1   3
ATOM      2  O   UNL     1      32.645 -14.126 -20.898  0.00  0.00    -0.250 OA
ATOM      3  C   UNL     1      32.508 -13.879 -22.088  0.00  0.00    +0.314 C 
BRANCH   3   4
ATOM      4  O   UNL     1      31.705 -12.885 -22.546  0.00  0.00    -0.480 OA
ATOM      5  H   UNL     1      32.078 -12.073 -22.829  0.00  0.00    +0.295 HD
ENDBRANCH   3   4
ENDBRANCH   1   3
BRANCH   1   6
ATOM      6  C   UNL     1      34.586 -15.145 -22.758  0.00  0.00    +0.038 C 
BRANCH   6   7
ATOM      7  C   UNL     1      34.702 -16.645 -22.616  0.00  0.00    -0.022 C 
ATOM      8  C   UNL     1      34.945 -17.416 -23.742  0.00  0.00    -0.004 C 
ATOM      9  C   UNL     1      34.564 -17.220 -21.363  0.00  0.00    -0.004 C 
ATOM     10  C   UNL     1      35.051 -18.800 -23.611  0.00  0.00    -0.000 C 
ATOM     11  C   UNL     1      34.672 -18.604 -21.233  0.00  0.00    -0.000 C 
ATOM     12  C   UNL     1      34.916 -19.395 -22.356  0.00  0.00    -0.000 C 
ENDBRANCH   6   7
ENDBRANCH   1   6
BRANCH   1  13
ATOM     13  C   UNL     1      33.319 -13.765 -24.496  0.00  0.00    +0.065 C 
BRANCH  13  14
ATOM     14  S   UNL     1      33.045 -14.744 -26.009  0.00  0.00    -0.167 S 
ATOM     15  H   UNL     1      33.918 -15.787 -26.039  0.00  0.00    +0.102 HD
ENDBRANCH  13  14
ENDBRANCH   1  13
TORSDOF 6
ENDMDL
MODEL 7
REMARK VINA RESULT:      -6.2      3.477      5.512
REMARK  Name = 5287850
REMARK  6 active torsions:
REMARK  status: ('A' for Active; 'I' for Inactive)
REMARK    1  A    between atoms: C_1  and  C_3
REMARK    2  A    between atoms: C_1  and  C_6
REMARK    3  A    between atoms: C_1  and  C_13
REMARK    4  A    between atoms: C_3  and  O_4
REMARK    5  A    between atoms: C_6  and  C_7
REMARK    6  A    between atoms: C_13  and  S_14
REMARK                            x       y       z     vdW  Elec       q    Type
REMARK                         _______ _______ _______ _____ _____    ______ ____
ROOT
ATOM      1  C   UNL     1      34.743 -17.402 -23.399  0.00  0.00    +0.114 C 
ENDROOT
BRANCH   1   3
ATOM      2  O   UNL     1      34.727 -17.069 -25.819  0.00  0.00    -0.250 OA
ATOM      3  C   UNL     1      34.637 -17.825 -24.861  0.00  0.00    +0.314 C 
BRANCH   3   4
ATOM      4  O   UNL     1      34.438 -19.162 -24.994  0.00  0.00    -0.480 OA
ATOM      5  H   UNL     1      34.144 -19.668 -24.263  0.00  0.00    +0.295 HD
ENDBRANCH   3   4
ENDBRANCH   1   3
BRANCH   1   6
ATOM      6  C   UNL     1      35.104 -15.905 -23.292  0.00  0.00    +0.038 C 
BRANCH   6   7
ATOM      7  C   UNL     1      34.080 -15.030 -22.607  0.00  0.00    -0.022 C 
ATOM      8  C   UNL     1      33.387 -14.088 -23.350  0.00  0.00    -0.004 C 
ATOM      9  C   UNL     1      33.854 -15.188 -21.249  0.00  0.00    -0.004 C 
ATOM     10  C   UNL     1      32.443 -13.280 -22.718  0.00  0.00    -0.000 C 
ATOM     11  C   UNL     1      32.908 -14.381 -20.617  0.00  0.00    -0.000 C 
ATOM     12  C   UNL     1      32.203 -13.426 -21.351  0.00  0.00    -0.000 C 
ENDBRANCH   6   7
ENDBRANCH   1   6
BRANCH   1  13
ATOM     13  C   UNL     1      35.718 -18.288 -22.606  0.00  0.00    +0.065 C 
BRANCH  13  14
ATOM     14  S   UNL     1      34.880 -19.232 -21.291  0.00  0.00    -0.167 S 
ATOM     15  H   UNL     1      33.913 -18.461 -20.725  0.00  0.00    +0.102 HD
ENDBRANCH  13  14
ENDBRANCH   1  13
TORSDOF 6
ENDMDL
MODEL 8
REMARK VINA RESULT:      -6.2      2.766      5.202
REMARK  Name = 5287850
REMARK  6 active torsions:
REMARK  status: ('A' for Active; 'I' for Inactive)
REMARK    1  A    between atoms: C_1  and  C_3
REMARK    2  A    between atoms: C_1  and  C_6
REMARK    3  A    between atoms: C_1  and  C_13
REMARK    4  A    between atoms: C_3  and  O_4
REMARK    5  A    between atoms: C_6  and  C_7
REMARK    6  A    between atoms: C_13  and  S_14
REMARK                            x       y       z     vdW  Elec       q    Type
REMARK                         _______ _______ _______ _____ _____    ______ ____
ROOT
ATOM      1  C   UNL     1      34.488 -18.413 -21.755  0.00  0.00    +0.114 C 
ENDROOT
BRANCH   1   3
ATOM      2  O   UNL     1      34.687 -19.149 -24.075  0.00  0.00    -0.250 OA
ATOM      3  C   UNL     1      35.196 -18.640 -23.086  0.00  0.00    +0.314 C 
BRANCH   3   4
ATOM      4  O   UNL     1      36.480 -18.198 -23.065  0.00  0.00    -0.480 OA
ATOM      5  H   UNL     1      36.973 -18.150 -23.861  0.00  0.00    +0.295 HD
ENDBRANCH   3   4
ENDBRANCH   1   3
BRANCH   1   6
ATOM      6  C   UNL     1      34.957 -17.092 -21.108  0.00  0.00    +0.038 C 
BRANCH   6   7
ATOM      7  C   UNL     1      34.199 -15.853 -21.523  0.00  0.00    -0.022 C 
ATOM      8  C   UNL     1      33.126 -15.426 -20.756  0.00  0.00    -0.004 C 
ATOM      9  C   UNL     1      34.591 -15.167 -22.661  0.00  0.00    -0.004 C 
ATOM     10  C   UNL     1      32.426 -14.283 -21.139  0.00  0.00    -0.000 C 
ATOM     11  C   UNL     1      33.891 -14.023 -23.043  0.00  0.00    -0.000 C 
ATOM     12  C   UNL     1      32.808 -13.581 -22.282  0.00  0.00    -0.000 C 
ENDBRANCH   6   7
ENDBRANCH   1   6
BRANCH   1  13
ATOM     13  C   UNL     1      34.645 -19.609 -20.800  0.00  0.00    +0.065 C 
BRANCH  13  14
ATOM     14  S   UNL     1      33.042 -20.362 -20.368  0.00  0.00    -0.167 S 
ATOM     15  H   UNL     1      33.251 -21.455 -19.586  0.00  0.00    +0.102 HD
ENDBRANCH  13  14
ENDBRANCH   1  13
TORSDOF 6
ENDMDL
MODEL 9
REMARK VINA RESULT:      -6.0      9.357     10.878
REMARK  Name = 5287850
REMARK  6 active torsions:
REMARK  status: ('A' for Active; 'I' for Inactive)
REMARK    1  A    between atoms: C_1  and  C_3
REMARK    2  A    between atoms: C_1  and  C_6
REMARK    3  A    between atoms: C_1  and  C_13
REMARK    4  A    between atoms: C_3  and  O_4
REMARK    5  A    between atoms: C_6  and  C_7
REMARK    6  A    between atoms: C_13  and  S_14
REMARK                            x       y       z     vdW  Elec       q    Type
REMARK                         _______ _______ _______ _____ _____    ______ ____
ROOT
ATOM      1  C   UNL     1      32.421  -7.558 -21.653  0.00  0.00    +0.114 C 
ENDROOT
BRANCH   1   3
ATOM      2  O   UNL     1      32.421  -9.071 -19.736  0.00  0.00    -0.250 OA
ATOM      3  C   UNL     1      32.656  -7.964 -20.202  0.00  0.00    +0.314 C 
BRANCH   3   4
ATOM      4  O   UNL     1      33.177  -6.950 -19.464  0.00  0.00    -0.480 OA
ATOM      5  H   UNL     1      33.140  -6.983 -18.529  0.00  0.00    +0.295 HD
ENDBRANCH   3   4
ENDBRANCH   1   3
BRANCH   1   6
ATOM      6  C   UNL     1      33.738  -7.622 -22.455  0.00  0.00    +0.038 C 
BRANCH   6   7
ATOM      7  C   UNL     1      33.915  -8.840 -23.331  0.00  0.00    -0.022 C 
ATOM      8  C   UNL     1      33.019  -9.891 -23.220  0.00  0.00    -0.004 C 
ATOM      9  C   UNL     1      34.969  -8.883 -24.229  0.00  0.00    -0.004 C 
ATOM     10  C   UNL     1      33.182 -11.016 -24.027  0.00  0.00    -0.000 C 
ATOM     11  C   UNL     1      35.132 -10.007 -25.037  0.00  0.00    -0.000 C 
ATOM     12  C   UNL     1      34.238 -11.074 -24.937  0.00  0.00    -0.000 C 
ENDBRANCH   6   7
ENDBRANCH   1   6
BRANCH   1  13
ATOM     13  C   UNL     1      31.742  -6.182 -21.770  0.00  0.00    +0.065 C 
BRANCH  13  14
ATOM     14  S   UNL     1      31.196  -5.825 -23.472  0.00  0.00    -0.167 S 
ATOM     15  H   UNL     1      31.105  -6.987 -24.173  0.00  0.00    +0.102 HD
ENDBRANCH  13  14
ENDBRANCH   1  13
TORSDOF 6
ENDMDL
