MODEL 1
REMARK VINA RESULT:      -6.1      0.000      0.000
REMARK  Name = 13611
REMARK  1 active torsions:
REMARK  status: ('A' for Active; 'I' for Inactive)
REMARK    1  A    between atoms: C_5  and  N_11
REMARK                            x       y       z     vdW  Elec       q    Type
REMARK                         _______ _______ _______ _____ _____    ______ ____
ROOT
ATOM      1  O   UNL     1      36.862 -26.434 -11.621  0.00  0.00    -0.268 OA
ATOM      2  O   UNL     1      36.739 -27.275 -16.153  0.00  0.00    -0.252 OA
ATOM      3  N   UNL     1      36.794 -26.864 -13.885  0.00  0.00    -0.235 N 
ATOM      4  N   UNL     1      37.881 -25.435 -15.379  0.00  0.00    -0.266 N 
ATOM      5  C   UNL     1      38.003 -24.915 -13.056  0.00  0.00    +0.111 C 
ATOM      6  C   UNL     1      37.174 -26.128 -12.769  0.00  0.00    +0.267 C 
ATOM      7  C   UNL     1      38.298 -24.654 -14.336  0.00  0.00    +0.084 C 
ATOM      8  C   UNL     1      37.112 -26.575 -15.212  0.00  0.00    +0.311 C 
ATOM      9  H   UNL     1      36.248 -27.667 -13.722  0.00  0.00    +0.159 HD
ATOM     10  H   UNL     1      38.140 -25.174 -16.292  0.00  0.00    +0.156 HD
ENDROOT
BRANCH   5  11
ATOM     11  N   UNL     1      38.393 -24.169 -11.985  0.00  0.00    -0.352 N 
ATOM     12  H   UNL     1      37.893 -23.358 -11.742  0.00  0.00    +0.143 HD
ATOM     13  H   UNL     1      39.177 -24.442 -11.455  0.00  0.00    +0.143 HD
ENDBRANCH   5  11
TORSDOF 1
ENDMDL
MODEL 2
REMARK VINA RESULT:      -5.9      1.532      2.158
REMARK  Name = 13611
REMARK  1 active torsions:
REMARK  status: ('A' for Active; 'I' for Inactive)
REMARK    1  A    between atoms: C_5  and  N_11
REMARK                            x       y       z     vdW  Elec       q    Type
REMARK                         _______ _______ _______ _____ _____    ______ ____
ROOT
ATOM      1  O   UNL     1      37.919 -23.132 -14.393  0.00  0.00    -0.268 OA
ATOM      2  O   UNL     1      36.723 -27.266 -16.050  0.00  0.00    -0.252 OA
ATOM      3  N   UNL     1      37.320 -25.194 -15.232  0.00  0.00    -0.235 N 
ATOM      4  N   UNL     1      37.101 -27.022 -13.794  0.00  0.00    -0.266 N 
ATOM      5  C   UNL     1      37.723 -24.928 -12.842  0.00  0.00    +0.111 C 
ATOM      6  C   UNL     1      37.669 -24.321 -14.209  0.00  0.00    +0.267 C 
ATOM      7  C   UNL     1      37.436 -26.232 -12.730  0.00  0.00    +0.084 C 
ATOM      8  C   UNL     1      37.025 -26.551 -15.094  0.00  0.00    +0.311 C 
ATOM      9  H   UNL     1      37.278 -24.819 -16.141  0.00  0.00    +0.159 HD
ATOM     10  H   UNL     1      36.904 -27.972 -13.628  0.00  0.00    +0.156 HD
ENDROOT
BRANCH   5  11
ATOM     11  N   UNL     1      38.062 -24.100 -11.815  0.00  0.00    -0.352 N 
ATOM     12  H   UNL     1      37.470 -23.354 -11.568  0.00  0.00    +0.143 HD
ATOM     13  H   UNL     1      38.899 -24.249 -11.319  0.00  0.00    +0.143 HD
ENDBRANCH   5  11
TORSDOF 1
ENDMDL
MODEL 3
REMARK VINA RESULT:      -5.8      2.117      2.439
REMARK  Name = 13611
REMARK  1 active torsions:
REMARK  status: ('A' for Active; 'I' for Inactive)
REMARK    1  A    between atoms: C_5  and  N_11
REMARK                            x       y       z     vdW  Elec       q    Type
REMARK                         _______ _______ _______ _____ _____    ______ ____
ROOT
ATOM      1  O   UNL     1      37.179 -26.452 -11.979  0.00  0.00    -0.268 OA
ATOM      2  O   UNL     1      40.846 -25.570 -14.632  0.00  0.00    -0.252 OA
ATOM      3  N   UNL     1      39.018 -26.017 -13.298  0.00  0.00    -0.235 N 
ATOM      4  N   UNL     1      38.786 -24.748 -15.245  0.00  0.00    -0.266 N 
ATOM      5  C   UNL     1      36.832 -25.150 -13.941  0.00  0.00    +0.111 C 
ATOM      6  C   UNL     1      37.669 -25.931 -12.978  0.00  0.00    +0.267 C 
ATOM      7  C   UNL     1      37.447 -24.615 -15.004  0.00  0.00    +0.084 C 
ATOM      8  C   UNL     1      39.640 -25.452 -14.412  0.00  0.00    +0.311 C 
ATOM      9  H   UNL     1      39.590 -26.527 -12.679  0.00  0.00    +0.159 HD
ATOM     10  H   UNL     1      39.162 -24.324 -16.050  0.00  0.00    +0.156 HD
ENDROOT
BRANCH   5  11
ATOM     11  N   UNL     1      35.504 -25.044 -13.658  0.00  0.00    -0.352 N 
ATOM     12  H   UNL     1      34.959 -24.358 -14.104  0.00  0.00    +0.143 HD
ATOM     13  H   UNL     1      35.090 -25.656 -13.007  0.00  0.00    +0.143 HD
ENDBRANCH   5  11
TORSDOF 1
ENDMDL
MODEL 4
REMARK VINA RESULT:      -5.6      2.395      3.205
REMARK  Name = 13611
REMARK  1 active torsions:
REMARK  status: ('A' for Active; 'I' for Inactive)
REMARK    1  A    between atoms: C_5  and  N_11
REMARK                            x       y       z     vdW  Elec       q    Type
REMARK                         _______ _______ _______ _____ _____    ______ ____
ROOT
ATOM      1  O   UNL     1      36.586 -24.032 -15.706  0.00  0.00    -0.268 OA
ATOM      2  O   UNL     1      40.891 -25.469 -14.890  0.00  0.00    -0.252 OA
ATOM      3  N   UNL     1      38.741 -24.745 -15.308  0.00  0.00    -0.235 N 
ATOM      4  N   UNL     1      39.227 -25.982 -13.387  0.00  0.00    -0.266 N 
ATOM      5  C   UNL     1      36.973 -25.285 -13.719  0.00  0.00    +0.111 C 
ATOM      6  C   UNL     1      37.392 -24.628 -14.996  0.00  0.00    +0.267 C 
ATOM      7  C   UNL     1      37.916 -25.914 -13.005  0.00  0.00    +0.084 C 
ATOM      8  C   UNL     1      39.709 -25.406 -14.550  0.00  0.00    +0.311 C 
ATOM      9  H   UNL     1      39.042 -24.321 -16.144  0.00  0.00    +0.159 HD
ATOM     10  H   UNL     1      39.860 -26.463 -12.806  0.00  0.00    +0.156 HD
ENDROOT
BRANCH   5  11
ATOM     11  N   UNL     1      35.656 -25.191 -13.382  0.00  0.00    -0.352 N 
ATOM     12  H   UNL     1      35.321 -24.385 -12.927  0.00  0.00    +0.143 HD
ATOM     13  H   UNL     1      35.040 -25.928 -13.593  0.00  0.00    +0.143 HD
ENDBRANCH   5  11
TORSDOF 1
ENDMDL
MODEL 5
REMARK VINA RESULT:      -5.5      1.992      3.645
REMARK  Name = 13611
REMARK  1 active torsions:
REMARK  status: ('A' for Active; 'I' for Inactive)
REMARK    1  A    between atoms: C_5  and  N_11
REMARK                            x       y       z     vdW  Elec       q    Type
REMARK                         _______ _______ _______ _____ _____    ______ ____
ROOT
ATOM      1  O   UNL     1      38.892 -26.819 -14.670  0.00  0.00    -0.268 OA
ATOM      2  O   UNL     1      38.693 -23.350 -11.638  0.00  0.00    -0.252 OA
ATOM      3  N   UNL     1      38.804 -25.086 -13.153  0.00  0.00    -0.235 N 
ATOM      4  N   UNL     1      36.760 -24.070 -12.657  0.00  0.00    -0.266 N 
ATOM      5  C   UNL     1      36.759 -25.854 -14.236  0.00  0.00    +0.111 C 
ATOM      6  C   UNL     1      38.240 -25.979 -14.055  0.00  0.00    +0.267 C 
ATOM      7  C   UNL     1      36.125 -24.912 -13.527  0.00  0.00    +0.084 C 
ATOM      8  C   UNL     1      38.124 -24.110 -12.423  0.00  0.00    +0.311 C 
ATOM      9  H   UNL     1      39.777 -25.148 -13.016  0.00  0.00    +0.159 HD
ATOM     10  H   UNL     1      36.221 -23.403 -12.173  0.00  0.00    +0.156 HD
ENDROOT
BRANCH   5  11
ATOM     11  N   UNL     1      36.173 -26.715 -15.114  0.00  0.00    -0.352 N 
ATOM     12  H   UNL     1      35.240 -26.995 -14.979  0.00  0.00    +0.143 HD
ATOM     13  H   UNL     1      36.683 -27.056 -15.884  0.00  0.00    +0.143 HD
ENDBRANCH   5  11
TORSDOF 1
ENDMDL
MODEL 6
REMARK VINA RESULT:      -5.4      8.104      9.069
REMARK  Name = 13611
REMARK  1 active torsions:
REMARK  status: ('A' for Active; 'I' for Inactive)
REMARK    1  A    between atoms: C_5  and  N_11
REMARK                            x       y       z     vdW  Elec       q    Type
REMARK                         _______ _______ _______ _____ _____    ______ ____
ROOT
ATOM      1  O   UNL     1      35.574 -22.268 -18.746  0.00  0.00    -0.268 OA
ATOM      2  O   UNL     1      36.091 -18.572 -21.454  0.00  0.00    -0.252 OA
ATOM      3  N   UNL     1      35.844 -20.421 -20.098  0.00  0.00    -0.235 N 
ATOM      4  N   UNL     1      33.976 -19.370 -21.028  0.00  0.00    -0.266 N 
ATOM      5  C   UNL     1      33.605 -21.273 -19.642  0.00  0.00    +0.111 C 
ATOM      6  C   UNL     1      35.085 -21.383 -19.443  0.00  0.00    +0.267 C 
ATOM      7  C   UNL     1      33.156 -20.278 -20.418  0.00  0.00    +0.084 C 
ATOM      8  C   UNL     1      35.356 -19.391 -20.903  0.00  0.00    +0.311 C 
ATOM      9  H   UNL     1      36.820 -20.472 -19.983  0.00  0.00    +0.159 HD
ATOM     10  H   UNL     1      33.567 -18.668 -21.583  0.00  0.00    +0.156 HD
ENDROOT
BRANCH   5  11
ATOM     11  N   UNL     1      32.830 -22.200 -19.014  0.00  0.00    -0.352 N 
ATOM     12  H   UNL     1      32.627 -22.105 -18.056  0.00  0.00    +0.143 HD
ATOM     13  H   UNL     1      32.473 -22.966 -19.519  0.00  0.00    +0.143 HD
ENDBRANCH   5  11
TORSDOF 1
ENDMDL
MODEL 7
REMARK VINA RESULT:      -5.4      1.386      1.425
REMARK  Name = 13611
REMARK  1 active torsions:
REMARK  status: ('A' for Active; 'I' for Inactive)
REMARK    1  A    between atoms: C_5  and  N_11
REMARK                            x       y       z     vdW  Elec       q    Type
REMARK                         _______ _______ _______ _____ _____    ______ ____
ROOT
ATOM      1  O   UNL     1      35.331 -24.261 -12.739  0.00  0.00    -0.268 OA
ATOM      2  O   UNL     1      36.734 -27.228 -15.977  0.00  0.00    -0.252 OA
ATOM      3  N   UNL     1      36.022 -25.744 -14.362  0.00  0.00    -0.235 N 
ATOM      4  N   UNL     1      38.235 -26.488 -14.400  0.00  0.00    -0.266 N 
ATOM      5  C   UNL     1      37.607 -24.955 -12.687  0.00  0.00    +0.111 C 
ATOM      6  C   UNL     1      36.219 -24.941 -13.246  0.00  0.00    +0.267 C 
ATOM      7  C   UNL     1      38.516 -25.725 -13.300  0.00  0.00    +0.084 C 
ATOM      8  C   UNL     1      36.982 -26.540 -14.987  0.00  0.00    +0.311 C 
ATOM      9  H   UNL     1      35.116 -25.752 -14.749  0.00  0.00    +0.159 HD
ATOM     10  H   UNL     1      38.959 -27.027 -14.793  0.00  0.00    +0.156 HD
ENDROOT
BRANCH   5  11
ATOM     11  N   UNL     1      37.837 -24.179 -11.591  0.00  0.00    -0.352 N 
ATOM     12  H   UNL     1      37.336 -24.340 -10.760  0.00  0.00    +0.143 HD
ATOM     13  H   UNL     1      38.505 -23.457 -11.631  0.00  0.00    +0.143 HD
ENDBRANCH   5  11
TORSDOF 1
ENDMDL
MODEL 8
REMARK VINA RESULT:      -5.3      7.699      8.728
REMARK  Name = 13611
REMARK  1 active torsions:
REMARK  status: ('A' for Active; 'I' for Inactive)
REMARK    1  A    between atoms: C_5  and  N_11
REMARK                            x       y       z     vdW  Elec       q    Type
REMARK                         _______ _______ _______ _____ _____    ______ ____
ROOT
ATOM      1  O   UNL     1      32.274 -19.923 -20.737  0.00  0.00    -0.268 OA
ATOM      2  O   UNL     1      33.733 -23.715 -18.555  0.00  0.00    -0.252 OA
ATOM      3  N   UNL     1      32.992 -21.822 -19.645  0.00  0.00    -0.235 N 
ATOM      4  N   UNL     1      35.275 -22.181 -19.305  0.00  0.00    -0.266 N 
ATOM      5  C   UNL     1      34.621 -20.192 -20.442  0.00  0.00    +0.111 C 
ATOM      6  C   UNL     1      33.192 -20.613 -20.299  0.00  0.00    +0.267 C 
ATOM      7  C   UNL     1      35.560 -21.002 -19.937  0.00  0.00    +0.084 C 
ATOM      8  C   UNL     1      33.985 -22.653 -19.125  0.00  0.00    +0.311 C 
ATOM      9  H   UNL     1      32.060 -22.121 -19.539  0.00  0.00    +0.159 HD
ATOM     10  H   UNL     1      36.023 -22.721 -18.960  0.00  0.00    +0.156 HD
ENDROOT
BRANCH   5  11
ATOM     11  N   UNL     1      34.853 -19.011 -21.079  0.00  0.00    -0.352 N 
ATOM     12  H   UNL     1      35.758 -18.625 -21.086  0.00  0.00    +0.143 HD
ATOM     13  H   UNL     1      34.116 -18.542 -21.533  0.00  0.00    +0.143 HD
ENDBRANCH   5  11
TORSDOF 1
ENDMDL
MODEL 9
REMARK VINA RESULT:      -5.3      1.539      3.344
REMARK  Name = 13611
REMARK  1 active torsions:
REMARK  status: ('A' for Active; 'I' for Inactive)
REMARK    1  A    between atoms: C_5  and  N_11
REMARK                            x       y       z     vdW  Elec       q    Type
REMARK                         _______ _______ _______ _____ _____    ______ ____
ROOT
ATOM      1  O   UNL     1      36.036 -25.488 -15.499  0.00  0.00    -0.268 OA
ATOM      2  O   UNL     1      35.404 -25.038 -10.954  0.00  0.00    -0.252 OA
ATOM      3  N   UNL     1      35.709 -25.266 -13.228  0.00  0.00    -0.235 N 
ATOM      4  N   UNL     1      37.488 -24.649 -11.846  0.00  0.00    -0.266 N 
ATOM      5  C   UNL     1      37.915 -24.855 -14.182  0.00  0.00    +0.111 C 
ATOM      6  C   UNL     1      36.480 -25.231 -14.383  0.00  0.00    +0.267 C 
ATOM      7  C   UNL     1      38.317 -24.591 -12.932  0.00  0.00    +0.084 C 
ATOM      8  C   UNL     1      36.147 -24.987 -11.934  0.00  0.00    +0.311 C 
ATOM      9  H   UNL     1      34.761 -25.512 -13.335  0.00  0.00    +0.159 HD
ATOM     10  H   UNL     1      37.861 -24.440 -10.960  0.00  0.00    +0.156 HD
ENDROOT
BRANCH   5  11
ATOM     11  N   UNL     1      38.701 -24.811 -15.293  0.00  0.00    -0.352 N 
ATOM     12  H   UNL     1      39.653 -25.048 -15.232  0.00  0.00    +0.143 HD
ATOM     13  H   UNL     1      38.316 -24.541 -16.158  0.00  0.00    +0.143 HD
ENDBRANCH   5  11
TORSDOF 1
ENDMDL
