MODEL 1
REMARK VINA RESULT:      -7.6      0.000      0.000
REMARK  Name = 54746008
REMARK  4 active torsions:
REMARK  status: ('A' for Active; 'I' for Inactive)
REMARK    1  A    between atoms: C_2  and  N_13
REMARK    2  A    between atoms: C_3  and  N_9
REMARK    3  A    between atoms: C_5  and  C_18
REMARK    4  A    between atoms: C_18  and  O_19
REMARK                            x       y       z     vdW  Elec       q    Type
REMARK                         _______ _______ _______ _____ _____    ______ ____
ROOT
ATOM      1  O   UNL     1      36.843 -23.860 -11.799  0.00  0.00    -0.285 OA
ATOM      2  C   UNL     1      36.831 -26.010 -14.680  0.00  0.00    +0.043 C 
ATOM      3  C   UNL     1      36.355 -25.211 -13.640  0.00  0.00    +0.101 C 
ATOM      4  C   UNL     1      38.203 -26.197 -14.845  0.00  0.00    +0.020 C 
ATOM      5  C   UNL     1      39.100 -25.585 -13.969  0.00  0.00    +0.080 C 
ATOM      6  C   UNL     1      37.252 -24.599 -12.764  0.00  0.00    +0.210 C 
ATOM      7  C   UNL     1      38.624 -24.786 -12.929  0.00  0.00    +0.050 C 
ENDROOT
BRANCH   3   9
ATOM      8  O   UNL     1      34.493 -23.196 -14.879  0.00  0.00    -0.275 OA
ATOM      9  N   UNL     1      34.968 -25.042 -13.496  0.00  0.00    -0.280 N 
ATOM     10  C   UNL     1      34.156 -24.082 -14.101  0.00  0.00    +0.227 C 
ATOM     11  C   UNL     1      32.715 -24.238 -13.686  0.00  0.00    +0.095 C 
ATOM     12  H   UNL     1      34.513 -25.679 -12.897  0.00  0.00    +0.155 HD
ENDBRANCH   3   9
BRANCH   2  13
ATOM     13  N   UNL     1      35.922 -26.660 -15.604  0.00  0.00    -0.414 NA
ATOM     14  H   UNL     1      35.041 -26.262 -15.790  0.00  0.00    +0.121 HD
ATOM     15  H   UNL     1      36.187 -27.499 -16.047  0.00  0.00    +0.121 HD
ATOM     16  H   UNL     1      35.726 -25.696 -15.654  0.00  0.00    +0.121 HD
ENDBRANCH   2  13
BRANCH   5  18
ATOM     17  O   UNL     1      41.153 -26.811 -13.880  0.00  0.00    -0.245 OA
ATOM     18  C   UNL     1      40.531 -25.776 -14.144  0.00  0.00    +0.338 C 
BRANCH  18  19
ATOM     19  O   UNL     1      41.148 -24.670 -14.643  0.00  0.00    -0.477 OA
ATOM     20  H   UNL     1      42.057 -24.522 -14.469  0.00  0.00    +0.295 HD
ENDBRANCH  18  19
ENDBRANCH   5  18
TORSDOF 4
ENDMDL
MODEL 2
REMARK VINA RESULT:      -7.5      1.269      2.158
REMARK  Name = 54746008
REMARK  4 active torsions:
REMARK  status: ('A' for Active; 'I' for Inactive)
REMARK    1  A    between atoms: C_2  and  N_13
REMARK    2  A    between atoms: C_3  and  N_9
REMARK    3  A    between atoms: C_5  and  C_18
REMARK    4  A    between atoms: C_18  and  O_19
REMARK                            x       y       z     vdW  Elec       q    Type
REMARK                         _______ _______ _______ _____ _____    ______ ____
ROOT
ATOM      1  O   UNL     1      36.028 -26.532 -15.711  0.00  0.00    -0.285 OA
ATOM      2  C   UNL     1      37.174 -24.655 -12.866  0.00  0.00    +0.043 C 
ATOM      3  C   UNL     1      36.302 -25.230 -13.791  0.00  0.00    +0.101 C 
ATOM      4  C   UNL     1      38.550 -24.842 -12.994  0.00  0.00    +0.020 C 
ATOM      5  C   UNL     1      39.054 -25.604 -14.048  0.00  0.00    +0.080 C 
ATOM      6  C   UNL     1      36.806 -25.992 -14.845  0.00  0.00    +0.210 C 
ATOM      7  C   UNL     1      38.182 -26.179 -14.973  0.00  0.00    +0.050 C 
ENDROOT
BRANCH   3   9
ATOM      8  O   UNL     1      34.486 -23.164 -15.016  0.00  0.00    -0.275 OA
ATOM      9  N   UNL     1      34.921 -25.024 -13.638  0.00  0.00    -0.280 N 
ATOM     10  C   UNL     1      34.131 -24.041 -14.236  0.00  0.00    +0.227 C 
ATOM     11  C   UNL     1      32.689 -24.160 -13.812  0.00  0.00    +0.095 C 
ATOM     12  H   UNL     1      34.453 -25.649 -13.037  0.00  0.00    +0.155 HD
ENDBRANCH   3   9
BRANCH   2  13
ATOM     13  N   UNL     1      36.678 -23.857 -11.761  0.00  0.00    -0.414 NA
ATOM     14  H   UNL     1      35.864 -23.314 -11.872  0.00  0.00    +0.121 HD
ATOM     15  H   UNL     1      37.156 -23.858 -10.900  0.00  0.00    +0.121 HD
ATOM     16  H   UNL     1      35.891 -24.106 -12.299  0.00  0.00    +0.121 HD
ENDBRANCH   2  13
BRANCH   5  18
ATOM     17  O   UNL     1      41.096 -26.846 -13.917  0.00  0.00    -0.245 OA
ATOM     18  C   UNL     1      40.489 -25.803 -14.180  0.00  0.00    +0.338 C 
BRANCH  18  19
ATOM     19  O   UNL     1      41.128 -24.691 -14.638  0.00  0.00    -0.477 OA
ATOM     20  H   UNL     1      41.584 -24.716 -15.457  0.00  0.00    +0.295 HD
ENDBRANCH  18  19
ENDBRANCH   5  18
TORSDOF 4
ENDMDL
MODEL 3
REMARK VINA RESULT:      -7.5      7.924      9.483
REMARK  Name = 54746008
REMARK  4 active torsions:
REMARK  status: ('A' for Active; 'I' for Inactive)
REMARK    1  A    between atoms: C_2  and  N_13
REMARK    2  A    between atoms: C_3  and  N_9
REMARK    3  A    between atoms: C_5  and  C_18
REMARK    4  A    between atoms: C_18  and  O_19
REMARK                            x       y       z     vdW  Elec       q    Type
REMARK                         _______ _______ _______ _____ _____    ______ ____
ROOT
ATOM      1  O   UNL     1      32.257 -19.292 -20.966  0.00  0.00    -0.285 OA
ATOM      2  C   UNL     1      35.787 -19.875 -20.605  0.00  0.00    +0.043 C 
ATOM      3  C   UNL     1      34.593 -19.277 -21.008  0.00  0.00    +0.101 C 
ATOM      4  C   UNL     1      35.760 -21.016 -19.804  0.00  0.00    +0.020 C 
ATOM      5  C   UNL     1      34.539 -21.559 -19.405  0.00  0.00    +0.080 C 
ATOM      6  C   UNL     1      33.371 -19.820 -20.610  0.00  0.00    +0.210 C 
ATOM      7  C   UNL     1      33.345 -20.961 -19.809  0.00  0.00    +0.050 C 
ENDROOT
BRANCH   3   9
ATOM      8  O   UNL     1      35.057 -16.393 -20.278  0.00  0.00    -0.275 OA
ATOM      9  N   UNL     1      34.650 -18.129 -21.816  0.00  0.00    -0.280 N 
ATOM     10  C   UNL     1      34.869 -16.810 -21.416  0.00  0.00    +0.227 C 
ATOM     11  C   UNL     1      34.856 -15.868 -22.593  0.00  0.00    +0.095 C 
ATOM     12  H   UNL     1      34.520 -18.273 -22.782  0.00  0.00    +0.155 HD
ENDBRANCH   3   9
BRANCH   2  13
ATOM     13  N   UNL     1      37.071 -19.333 -21.005  0.00  0.00    -0.414 NA
ATOM     14  H   UNL     1      37.117 -18.468 -21.472  0.00  0.00    +0.121 HD
ATOM     15  H   UNL     1      37.898 -19.831 -20.808  0.00  0.00    +0.121 HD
ATOM     16  H   UNL     1      36.483 -18.560 -20.841  0.00  0.00    +0.121 HD
ENDBRANCH   2  13
BRANCH   5  18
ATOM     17  O   UNL     1      34.997 -22.837 -17.434  0.00  0.00    -0.245 OA
ATOM     18  C   UNL     1      34.511 -22.747 -18.567  0.00  0.00    +0.338 C 
BRANCH  18  19
ATOM     19  O   UNL     1      33.876 -23.793 -19.165  0.00  0.00    -0.477 OA
ATOM     20  H   UNL     1      33.281 -24.323 -18.673  0.00  0.00    +0.295 HD
ENDBRANCH  18  19
ENDBRANCH   5  18
TORSDOF 4
ENDMDL
MODEL 4
REMARK VINA RESULT:      -7.4     11.155     12.904
REMARK  Name = 54746008
REMARK  4 active torsions:
REMARK  status: ('A' for Active; 'I' for Inactive)
REMARK    1  A    between atoms: C_2  and  N_13
REMARK    2  A    between atoms: C_3  and  N_9
REMARK    3  A    between atoms: C_5  and  C_18
REMARK    4  A    between atoms: C_18  and  O_19
REMARK                            x       y       z     vdW  Elec       q    Type
REMARK                         _______ _______ _______ _____ _____    ______ ____
ROOT
ATOM      1  O   UNL     1      34.946 -15.969 -19.864  0.00  0.00    -0.285 OA
ATOM      2  C   UNL     1      34.993 -17.358 -23.180  0.00  0.00    +0.043 C 
ATOM      3  C   UNL     1      35.145 -17.265 -21.797  0.00  0.00    +0.101 C 
ATOM      4  C   UNL     1      34.509 -16.268 -23.903  0.00  0.00    +0.020 C 
ATOM      5  C   UNL     1      34.179 -15.085 -23.243  0.00  0.00    +0.080 C 
ATOM      6  C   UNL     1      34.815 -16.082 -21.136  0.00  0.00    +0.210 C 
ATOM      7  C   UNL     1      34.332 -14.992 -21.859  0.00  0.00    +0.050 C 
ENDROOT
BRANCH   3   9
ATOM      8  O   UNL     1      33.878 -19.939 -21.239  0.00  0.00    -0.275 OA
ATOM      9  N   UNL     1      35.636 -18.379 -21.094  0.00  0.00    -0.280 N 
ATOM     10  C   UNL     1      34.996 -19.598 -20.867  0.00  0.00    +0.227 C 
ATOM     11  C   UNL     1      35.863 -20.535 -20.065  0.00  0.00    +0.095 C 
ATOM     12  H   UNL     1      36.541 -18.288 -20.716  0.00  0.00    +0.155 HD
ENDBRANCH   3   9
BRANCH   2  13
ATOM     13  N   UNL     1      35.330 -18.575 -23.894  0.00  0.00    -0.414 NA
ATOM     14  H   UNL     1      36.235 -18.696 -24.260  0.00  0.00    +0.121 HD
ATOM     15  H   UNL     1      34.653 -19.281 -24.011  0.00  0.00    +0.121 HD
ATOM     16  H   UNL     1      36.164 -18.256 -23.479  0.00  0.00    +0.121 HD
ENDBRANCH   2  13
BRANCH   5  18
ATOM     17  O   UNL     1      32.820 -14.004 -24.890  0.00  0.00    -0.245 OA
ATOM     18  C   UNL     1      33.672 -13.949 -23.996  0.00  0.00    +0.338 C 
BRANCH  18  19
ATOM     19  O   UNL     1      34.242 -12.773 -23.614  0.00  0.00    -0.477 OA
ATOM     20  H   UNL     1      34.677 -12.712 -22.786  0.00  0.00    +0.295 HD
ENDBRANCH  18  19
ENDBRANCH   5  18
TORSDOF 4
ENDMDL
MODEL 5
REMARK VINA RESULT:      -7.4      2.878      7.008
REMARK  Name = 54746008
REMARK  4 active torsions:
REMARK  status: ('A' for Active; 'I' for Inactive)
REMARK    1  A    between atoms: C_2  and  N_13
REMARK    2  A    between atoms: C_3  and  N_9
REMARK    3  A    between atoms: C_5  and  C_18
REMARK    4  A    between atoms: C_18  and  O_19
REMARK                            x       y       z     vdW  Elec       q    Type
REMARK                         _______ _______ _______ _____ _____    ______ ____
ROOT
ATOM      1  O   UNL     1      34.804 -23.185 -17.387  0.00  0.00    -0.285 OA
ATOM      2  C   UNL     1      33.248 -24.139 -14.290  0.00  0.00    +0.043 C 
ATOM      3  C   UNL     1      34.245 -23.903 -15.236  0.00  0.00    +0.101 C 
ATOM      4  C   UNL     1      31.914 -23.883 -14.604  0.00  0.00    +0.020 C 
ATOM      5  C   UNL     1      31.576 -23.392 -15.865  0.00  0.00    +0.080 C 
ATOM      6  C   UNL     1      33.908 -23.411 -16.497  0.00  0.00    +0.210 C 
ATOM      7  C   UNL     1      32.574 -23.156 -16.811  0.00  0.00    +0.050 C 
ENDROOT
BRANCH   3   9
ATOM      8  O   UNL     1      35.915 -26.373 -15.655  0.00  0.00    -0.275 OA
ATOM      9  N   UNL     1      35.581 -24.170 -14.893  0.00  0.00    -0.280 N 
ATOM     10  C   UNL     1      36.303 -25.344 -15.114  0.00  0.00    +0.227 C 
ATOM     11  C   UNL     1      37.714 -25.229 -14.595  0.00  0.00    +0.095 C 
ATOM     12  H   UNL     1      36.067 -23.441 -14.442  0.00  0.00    +0.155 HD
ENDBRANCH   3   9
BRANCH   2  13
ATOM     13  N   UNL     1      33.569 -24.651 -12.972  0.00  0.00    -0.414 NA
ATOM     14  H   UNL     1      33.892 -24.040 -12.271  0.00  0.00    +0.121 HD
ATOM     15  H   UNL     1      33.462 -25.611 -12.777  0.00  0.00    +0.121 HD
ATOM     16  H   UNL     1      33.278 -23.719 -12.844  0.00  0.00    +0.121 HD
ENDBRANCH   2  13
BRANCH   5  18
ATOM     17  O   UNL     1      29.792 -22.406 -17.119  0.00  0.00    -0.245 OA
ATOM     18  C   UNL     1      30.185 -23.122 -16.192  0.00  0.00    +0.338 C 
BRANCH  18  19
ATOM     19  O   UNL     1      29.321 -23.754 -15.350  0.00  0.00    -0.477 OA
ATOM     20  H   UNL     1      29.351 -24.687 -15.263  0.00  0.00    +0.295 HD
ENDBRANCH  18  19
ENDBRANCH   5  18
TORSDOF 4
ENDMDL
MODEL 6
REMARK VINA RESULT:      -7.4     11.357     13.205
REMARK  Name = 54746008
REMARK  4 active torsions:
REMARK  status: ('A' for Active; 'I' for Inactive)
REMARK    1  A    between atoms: C_2  and  N_13
REMARK    2  A    between atoms: C_3  and  N_9
REMARK    3  A    between atoms: C_5  and  C_18
REMARK    4  A    between atoms: C_18  and  O_19
REMARK                            x       y       z     vdW  Elec       q    Type
REMARK                         _______ _______ _______ _____ _____    ______ ____
ROOT
ATOM      1  O   UNL     1      35.063 -19.474 -24.416  0.00  0.00    -0.285 OA
ATOM      2  C   UNL     1      34.793 -16.674 -22.176  0.00  0.00    +0.043 C 
ATOM      3  C   UNL     1      35.067 -17.963 -22.635  0.00  0.00    +0.101 C 
ATOM      4  C   UNL     1      34.272 -15.719 -23.049  0.00  0.00    +0.020 C 
ATOM      5  C   UNL     1      34.026 -16.053 -24.381  0.00  0.00    +0.080 C 
ATOM      6  C   UNL     1      34.821 -18.297 -23.967  0.00  0.00    +0.210 C 
ATOM      7  C   UNL     1      34.301 -17.341 -24.839  0.00  0.00    +0.050 C 
ENDROOT
BRANCH   3   9
ATOM      8  O   UNL     1      33.678 -20.045 -20.960  0.00  0.00    -0.275 OA
ATOM      9  N   UNL     1      35.589 -18.905 -21.733  0.00  0.00    -0.280 N 
ATOM     10  C   UNL     1      34.889 -19.850 -20.981  0.00  0.00    +0.227 C 
ATOM     11  C   UNL     1      35.820 -20.677 -20.131  0.00  0.00    +0.095 C 
ATOM     12  H   UNL     1      36.568 -18.899 -21.618  0.00  0.00    +0.155 HD
ENDBRANCH   3   9
BRANCH   2  13
ATOM     13  N   UNL     1      35.036 -16.300 -20.797  0.00  0.00    -0.414 NA
ATOM     14  H   UNL     1      34.663 -16.843 -20.065  0.00  0.00    +0.121 HD
ATOM     15  H   UNL     1      35.576 -15.502 -20.591  0.00  0.00    +0.121 HD
ATOM     16  H   UNL     1      34.933 -17.279 -20.804  0.00  0.00    +0.121 HD
ENDBRANCH   2  13
BRANCH   5  18
ATOM     17  O   UNL     1      33.028 -13.957 -24.962  0.00  0.00    -0.245 OA
ATOM     18  C   UNL     1      33.487 -15.056 -25.292  0.00  0.00    +0.338 C 
BRANCH  18  19
ATOM     19  O   UNL     1      33.537 -15.457 -26.592  0.00  0.00    -0.477 OA
ATOM     20  H   UNL     1      32.746 -15.544 -27.087  0.00  0.00    +0.295 HD
ENDBRANCH  18  19
ENDBRANCH   5  18
TORSDOF 4
ENDMDL
MODEL 7
REMARK VINA RESULT:      -7.2      3.126      6.991
REMARK  Name = 54746008
REMARK  4 active torsions:
REMARK  status: ('A' for Active; 'I' for Inactive)
REMARK    1  A    between atoms: C_2  and  N_13
REMARK    2  A    between atoms: C_3  and  N_9
REMARK    3  A    between atoms: C_5  and  C_18
REMARK    4  A    between atoms: C_18  and  O_19
REMARK                            x       y       z     vdW  Elec       q    Type
REMARK                         _______ _______ _______ _____ _____    ______ ____
ROOT
ATOM      1  O   UNL     1      33.340 -24.317 -13.072  0.00  0.00    -0.285 OA
ATOM      2  C   UNL     1      33.658 -23.326 -16.513  0.00  0.00    +0.043 C 
ATOM      3  C   UNL     1      34.019 -23.732 -15.229  0.00  0.00    +0.101 C 
ATOM      4  C   UNL     1      32.314 -23.129 -16.831  0.00  0.00    +0.020 C 
ATOM      5  C   UNL     1      31.332 -23.340 -15.864  0.00  0.00    +0.080 C 
ATOM      6  C   UNL     1      33.036 -23.943 -14.261  0.00  0.00    +0.210 C 
ATOM      7  C   UNL     1      31.693 -23.746 -14.579  0.00  0.00    +0.050 C 
ENDROOT
BRANCH   3   9
ATOM      8  O   UNL     1      35.771 -26.160 -15.553  0.00  0.00    -0.275 OA
ATOM      9  N   UNL     1      35.380 -23.921 -14.936  0.00  0.00    -0.280 N 
ATOM     10  C   UNL     1      36.141 -25.079 -15.109  0.00  0.00    +0.227 C 
ATOM     11  C   UNL     1      37.568 -24.871 -14.672  0.00  0.00    +0.095 C 
ATOM     12  H   UNL     1      35.856 -23.142 -14.565  0.00  0.00    +0.155 HD
ENDBRANCH   3   9
BRANCH   2  13
ATOM     13  N   UNL     1      34.658 -23.098 -17.539  0.00  0.00    -0.414 NA
ATOM     14  H   UNL     1      35.608 -23.275 -17.348  0.00  0.00    +0.121 HD
ATOM     15  H   UNL     1      34.387 -22.767 -18.426  0.00  0.00    +0.121 HD
ATOM     16  H   UNL     1      35.004 -23.824 -16.970  0.00  0.00    +0.121 HD
ENDBRANCH   2  13
BRANCH   5  18
ATOM     17  O   UNL     1      29.501 -22.357 -17.052  0.00  0.00    -0.245 OA
ATOM     18  C   UNL     1      29.930 -23.138 -16.196  0.00  0.00    +0.338 C 
BRANCH  18  19
ATOM     19  O   UNL     1      29.100 -23.919 -15.450  0.00  0.00    -0.477 OA
ATOM     20  H   UNL     1      28.171 -23.833 -15.538  0.00  0.00    +0.295 HD
ENDBRANCH  18  19
ENDBRANCH   5  18
TORSDOF 4
ENDMDL
MODEL 8
REMARK VINA RESULT:      -7.1      2.072      5.505
REMARK  Name = 54746008
REMARK  4 active torsions:
REMARK  status: ('A' for Active; 'I' for Inactive)
REMARK    1  A    between atoms: C_2  and  N_13
REMARK    2  A    between atoms: C_3  and  N_9
REMARK    3  A    between atoms: C_5  and  C_18
REMARK    4  A    between atoms: C_18  and  O_19
REMARK                            x       y       z     vdW  Elec       q    Type
REMARK                         _______ _______ _______ _____ _____    ______ ____
ROOT
ATOM      1  O   UNL     1      36.586 -25.466 -11.745  0.00  0.00    -0.285 OA
ATOM      2  C   UNL     1      36.257 -23.847 -14.938  0.00  0.00    +0.043 C 
ATOM      3  C   UNL     1      36.848 -24.492 -13.852  0.00  0.00    +0.101 C 
ATOM      4  C   UNL     1      34.888 -23.581 -14.932  0.00  0.00    +0.020 C 
ATOM      5  C   UNL     1      34.110 -23.960 -13.838  0.00  0.00    +0.080 C 
ATOM      6  C   UNL     1      36.070 -24.871 -12.758  0.00  0.00    +0.210 C 
ATOM      7  C   UNL     1      34.701 -24.605 -12.752  0.00  0.00    +0.050 C 
ENDROOT
BRANCH   3   9
ATOM      8  O   UNL     1      38.367 -26.937 -14.736  0.00  0.00    -0.275 OA
ATOM      9  N   UNL     1      38.230 -24.746 -13.885  0.00  0.00    -0.280 N 
ATOM     10  C   UNL     1      38.877 -25.907 -14.307  0.00  0.00    +0.227 C 
ATOM     11  C   UNL     1      40.374 -25.780 -14.185  0.00  0.00    +0.095 C 
ATOM     12  H   UNL     1      38.812 -24.015 -13.572  0.00  0.00    +0.155 HD
ENDBRANCH   3   9
BRANCH   2  13
ATOM     13  N   UNL     1      37.042 -23.439 -16.088  0.00  0.00    -0.414 NA
ATOM     14  H   UNL     1      38.007 -23.630 -16.118  0.00  0.00    +0.121 HD
ATOM     15  H   UNL     1      36.609 -22.972 -16.839  0.00  0.00    +0.121 HD
ATOM     16  H   UNL     1      37.480 -24.243 -15.724  0.00  0.00    +0.121 HD
ENDBRANCH   2  13
BRANCH   5  18
ATOM     17  O   UNL     1      31.871 -24.092 -14.673  0.00  0.00    -0.245 OA
ATOM     18  C   UNL     1      32.681 -23.686 -13.833  0.00  0.00    +0.338 C 
BRANCH  18  19
ATOM     19  O   UNL     1      32.303 -22.913 -12.778  0.00  0.00    -0.477 OA
ATOM     20  H   UNL     1      32.864 -22.833 -12.031  0.00  0.00    +0.295 HD
ENDBRANCH  18  19
ENDBRANCH   5  18
TORSDOF 4
ENDMDL
MODEL 9
REMARK VINA RESULT:      -7.0     11.582     12.815
REMARK  Name = 54746008
REMARK  4 active torsions:
REMARK  status: ('A' for Active; 'I' for Inactive)
REMARK    1  A    between atoms: C_2  and  N_13
REMARK    2  A    between atoms: C_3  and  N_9
REMARK    3  A    between atoms: C_5  and  C_18
REMARK    4  A    between atoms: C_18  and  O_19
REMARK                            x       y       z     vdW  Elec       q    Type
REMARK                         _______ _______ _______ _____ _____    ______ ____
ROOT
ATOM      1  O   UNL     1      34.502 -14.612 -20.671  0.00  0.00    -0.285 OA
ATOM      2  C   UNL     1      34.935 -16.680 -23.581  0.00  0.00    +0.043 C 
ATOM      3  C   UNL     1      34.741 -15.539 -22.802  0.00  0.00    +0.101 C 
ATOM      4  C   UNL     1      35.069 -17.927 -22.970  0.00  0.00    +0.020 C 
ATOM      5  C   UNL     1      35.009 -18.032 -21.581  0.00  0.00    +0.080 C 
ATOM      6  C   UNL     1      34.680 -15.645 -21.412  0.00  0.00    +0.210 C 
ATOM      7  C   UNL     1      34.815 -16.891 -20.802  0.00  0.00    +0.050 C 
ENDROOT
BRANCH   3   9
ATOM      8  O   UNL     1      32.314 -13.806 -23.223  0.00  0.00    -0.275 OA
ATOM      9  N   UNL     1      34.607 -14.296 -23.444  0.00  0.00    -0.280 N 
ATOM     10  C   UNL     1      33.447 -13.538 -23.609  0.00  0.00    +0.227 C 
ATOM     11  C   UNL     1      33.726 -12.259 -24.357  0.00  0.00    +0.095 C 
ATOM     12  H   UNL     1      35.432 -13.913 -23.823  0.00  0.00    +0.155 HD
ENDBRANCH   3   9
BRANCH   2  13
ATOM     13  N   UNL     1      35.000 -16.601 -25.027  0.00  0.00    -0.414 NA
ATOM     14  H   UNL     1      35.810 -16.252 -25.465  0.00  0.00    +0.121 HD
ATOM     15  H   UNL     1      34.234 -16.897 -25.572  0.00  0.00    +0.121 HD
ATOM     16  H   UNL     1      35.924 -16.734 -24.714  0.00  0.00    +0.121 HD
ENDBRANCH   2  13
BRANCH   5  18
ATOM     17  O   UNL     1      34.297 -20.223 -20.933  0.00  0.00    -0.245 OA
ATOM     18  C   UNL     1      35.152 -19.332 -20.944  0.00  0.00    +0.338 C 
BRANCH  18  19
ATOM     19  O   UNL     1      36.362 -19.484 -20.337  0.00  0.00    -0.477 OA
ATOM     20  H   UNL     1      37.150 -19.404 -20.838  0.00  0.00    +0.295 HD
ENDBRANCH  18  19
ENDBRANCH   5  18
TORSDOF 4
ENDMDL
