MODEL 1
REMARK VINA RESULT:      -6.3      0.000      0.000
REMARK  Name = 44093
REMARK  5 active torsions:
REMARK  status: ('A' for Active; 'I' for Inactive)
REMARK    1  A    between atoms: C_3  and  C_9
REMARK    2  A    between atoms: C_7  and  C_12
REMARK    3  A    between atoms: C_9  and  O_10
REMARK    4  A    between atoms: C_12  and  C_14
REMARK    5  A    between atoms: C_14  and  S_15
REMARK                            x       y       z     vdW  Elec       q    Type
REMARK                         _______ _______ _______ _____ _____    ______ ____
ROOT
ATOM      1  O   UNL     1      35.432 -17.624 -20.551  0.00  0.00    -0.275 OA
ATOM      2  N   UNL     1      34.839 -17.846 -22.777  0.00  0.00    -0.271 N 
ATOM      3  C   UNL     1      35.231 -16.504 -23.188  0.00  0.00    +0.174 C 
ATOM      4  C   UNL     1      35.266 -16.559 -24.710  0.00  0.00    +0.033 C 
ATOM      5  C   UNL     1      34.230 -17.628 -25.051  0.00  0.00    +0.024 C 
ATOM      6  C   UNL     1      34.379 -18.633 -23.918  0.00  0.00    +0.094 C 
ATOM      7  C   UNL     1      35.043 -18.320 -21.490  0.00  0.00    +0.226 C 
ENDROOT
BRANCH   3   9
ATOM      8  O   UNL     1      33.150 -15.276 -23.292  0.00  0.00    -0.248 OA
ATOM      9  C   UNL     1      34.174 -15.563 -22.690  0.00  0.00    +0.332 C 
BRANCH   9  10
ATOM     10  O   UNL     1      34.509 -15.068 -21.473  0.00  0.00    -0.479 OA
ATOM     11  H   UNL     1      33.946 -15.209 -20.739  0.00  0.00    +0.295 HD
ENDBRANCH   9  10
ENDBRANCH   3   9
BRANCH   7  12
ATOM     12  C   UNL     1      34.743 -19.783 -21.282  0.00  0.00    +0.087 C 
ATOM     13  C   UNL     1      33.368 -19.883 -20.632  0.00  0.00    +0.010 C 
BRANCH  12  14
ATOM     14  C   UNL     1      35.810 -20.437 -20.407  0.00  0.00    +0.062 C 
BRANCH  14  15
ATOM     15  S   UNL     1      35.122 -21.781 -19.388  0.00  0.00    -0.167 S 
ATOM     16  H   UNL     1      35.655 -22.967 -19.783  0.00  0.00    +0.102 HD
ENDBRANCH  14  15
ENDBRANCH  12  14
ENDBRANCH   7  12
TORSDOF 5
ENDMDL
MODEL 2
REMARK VINA RESULT:      -6.2      1.668      2.083
REMARK  Name = 44093
REMARK  5 active torsions:
REMARK  status: ('A' for Active; 'I' for Inactive)
REMARK    1  A    between atoms: C_3  and  C_9
REMARK    2  A    between atoms: C_7  and  C_12
REMARK    3  A    between atoms: C_9  and  O_10
REMARK    4  A    between atoms: C_12  and  C_14
REMARK    5  A    between atoms: C_14  and  S_15
REMARK                            x       y       z     vdW  Elec       q    Type
REMARK                         _______ _______ _______ _____ _____    ______ ____
ROOT
ATOM      1  O   UNL     1      35.070 -16.635 -20.298  0.00  0.00    -0.275 OA
ATOM      2  N   UNL     1      34.453 -16.093 -22.461  0.00  0.00    -0.271 N 
ATOM      3  C   UNL     1      34.180 -14.684 -22.208  0.00  0.00    +0.174 C 
ATOM      4  C   UNL     1      34.110 -14.049 -23.591  0.00  0.00    +0.033 C 
ATOM      5  C   UNL     1      33.624 -15.189 -24.482  0.00  0.00    +0.024 C 
ATOM      6  C   UNL     1      34.292 -16.415 -23.877  0.00  0.00    +0.094 C 
ATOM      7  C   UNL     1      34.950 -16.942 -21.484  0.00  0.00    +0.226 C 
ENDROOT
BRANCH   3   9
ATOM      8  O   UNL     1      32.103 -15.551 -21.325  0.00  0.00    -0.248 OA
ATOM      9  C   UNL     1      32.863 -14.610 -21.495  0.00  0.00    +0.332 C 
BRANCH   9  10
ATOM     10  O   UNL     1      32.626 -13.348 -21.060  0.00  0.00    -0.479 OA
ATOM     11  H   UNL     1      32.351 -13.200 -20.177  0.00  0.00    +0.295 HD
ENDBRANCH   9  10
ENDBRANCH   3   9
BRANCH   7  12
ATOM     12  C   UNL     1      35.341 -18.319 -21.959  0.00  0.00    +0.087 C 
ATOM     13  C   UNL     1      34.131 -19.229 -21.780  0.00  0.00    +0.010 C 
BRANCH  12  14
ATOM     14  C   UNL     1      36.540 -18.845 -21.173  0.00  0.00    +0.062 C 
BRANCH  14  15
ATOM     15  S   UNL     1      36.146 -20.384 -20.283  0.00  0.00    -0.167 S 
ATOM     16  H   UNL     1      36.721 -20.355 -19.052  0.00  0.00    +0.102 HD
ENDBRANCH  14  15
ENDBRANCH  12  14
ENDBRANCH   7  12
TORSDOF 5
ENDMDL
MODEL 3
REMARK VINA RESULT:      -6.1      9.502     10.448
REMARK  Name = 44093
REMARK  5 active torsions:
REMARK  status: ('A' for Active; 'I' for Inactive)
REMARK    1  A    between atoms: C_3  and  C_9
REMARK    2  A    between atoms: C_7  and  C_12
REMARK    3  A    between atoms: C_9  and  O_10
REMARK    4  A    between atoms: C_12  and  C_14
REMARK    5  A    between atoms: C_14  and  S_15
REMARK                            x       y       z     vdW  Elec       q    Type
REMARK                         _______ _______ _______ _____ _____    ______ ____
ROOT
ATOM      1  O   UNL     1      33.861 -24.313 -13.058  0.00  0.00    -0.275 OA
ATOM      2  N   UNL     1      32.548 -23.648 -14.844  0.00  0.00    -0.271 N 
ATOM      3  C   UNL     1      31.323 -23.443 -14.083  0.00  0.00    +0.174 C 
ATOM      4  C   UNL     1      30.418 -22.644 -15.014  0.00  0.00    +0.033 C 
ATOM      5  C   UNL     1      30.867 -23.080 -16.406  0.00  0.00    +0.024 C 
ATOM      6  C   UNL     1      32.368 -23.275 -16.245  0.00  0.00    +0.094 C 
ATOM      7  C   UNL     1      33.747 -24.002 -14.244  0.00  0.00    +0.226 C 
ENDROOT
BRANCH   3   9
ATOM      8  O   UNL     1      30.657 -25.711 -14.590  0.00  0.00    -0.248 OA
ATOM      9  C   UNL     1      30.755 -24.798 -13.784  0.00  0.00    +0.332 C 
BRANCH   9  10
ATOM     10  O   UNL     1      30.362 -24.876 -12.489  0.00  0.00    -0.479 OA
ATOM     11  H   UNL     1      29.689 -24.309 -12.169  0.00  0.00    +0.295 HD
ENDBRANCH   9  10
ENDBRANCH   3   9
BRANCH   7  12
ATOM     12  C   UNL     1      34.952 -24.002 -15.151  0.00  0.00    +0.087 C 
ATOM     13  C   UNL     1      35.646 -25.350 -14.997  0.00  0.00    +0.010 C 
BRANCH  12  14
ATOM     14  C   UNL     1      35.899 -22.858 -14.796  0.00  0.00    +0.062 C 
BRANCH  14  15
ATOM     15  S   UNL     1      37.059 -22.491 -16.151  0.00  0.00    -0.167 S 
ATOM     16  H   UNL     1      36.429 -21.747 -17.098  0.00  0.00    +0.102 HD
ENDBRANCH  14  15
ENDBRANCH  12  14
ENDBRANCH   7  12
TORSDOF 5
ENDMDL
MODEL 4
REMARK VINA RESULT:      -6.1      8.832     11.620
REMARK  Name = 44093
REMARK  5 active torsions:
REMARK  status: ('A' for Active; 'I' for Inactive)
REMARK    1  A    between atoms: C_3  and  C_9
REMARK    2  A    between atoms: C_7  and  C_12
REMARK    3  A    between atoms: C_9  and  O_10
REMARK    4  A    between atoms: C_12  and  C_14
REMARK    5  A    between atoms: C_14  and  S_15
REMARK                            x       y       z     vdW  Elec       q    Type
REMARK                         _______ _______ _______ _____ _____    ______ ____
ROOT
ATOM      1  O   UNL     1      36.010 -25.320 -15.693  0.00  0.00    -0.275 OA
ATOM      2  N   UNL     1      36.658 -24.193 -13.779  0.00  0.00    -0.271 N 
ATOM      3  C   UNL     1      37.785 -25.056 -13.452  0.00  0.00    +0.174 C 
ATOM      4  C   UNL     1      38.585 -24.273 -12.418  0.00  0.00    +0.033 C 
ATOM      5  C   UNL     1      37.527 -23.421 -11.721  0.00  0.00    +0.024 C 
ATOM      6  C   UNL     1      36.561 -23.075 -12.844  0.00  0.00    +0.094 C 
ATOM      7  C   UNL     1      35.900 -24.362 -14.928  0.00  0.00    +0.226 C 
ENDROOT
BRANCH   3   9
ATOM      8  O   UNL     1      36.898 -26.478 -11.709  0.00  0.00    -0.248 OA
ATOM      9  C   UNL     1      37.222 -26.321 -12.877  0.00  0.00    +0.332 C 
BRANCH   9  10
ATOM     10  O   UNL     1      37.120 -27.277 -13.833  0.00  0.00    -0.479 OA
ATOM     11  H   UNL     1      37.517 -27.146 -14.671  0.00  0.00    +0.295 HD
ENDBRANCH   9  10
ENDBRANCH   3   9
BRANCH   7  12
ATOM     12  C   UNL     1      34.887 -23.279 -15.201  0.00  0.00    +0.087 C 
ATOM     13  C   UNL     1      33.513 -23.831 -14.838  0.00  0.00    +0.010 C 
BRANCH  12  14
ATOM     14  C   UNL     1      34.932 -22.851 -16.667  0.00  0.00    +0.062 C 
BRANCH  14  15
ATOM     15  S   UNL     1      33.373 -23.223 -17.531  0.00  0.00    -0.167 S 
ATOM     16  H   UNL     1      33.322 -22.523 -18.695  0.00  0.00    +0.102 HD
ENDBRANCH  14  15
ENDBRANCH  12  14
ENDBRANCH   7  12
TORSDOF 5
ENDMDL
MODEL 5
REMARK VINA RESULT:      -6.1      9.994     11.692
REMARK  Name = 44093
REMARK  5 active torsions:
REMARK  status: ('A' for Active; 'I' for Inactive)
REMARK    1  A    between atoms: C_3  and  C_9
REMARK    2  A    between atoms: C_7  and  C_12
REMARK    3  A    between atoms: C_9  and  O_10
REMARK    4  A    between atoms: C_12  and  C_14
REMARK    5  A    between atoms: C_14  and  S_15
REMARK                            x       y       z     vdW  Elec       q    Type
REMARK                         _______ _______ _______ _____ _____    ______ ____
ROOT
ATOM      1  O   UNL     1      34.380 -23.955 -12.074  0.00  0.00    -0.275 OA
ATOM      2  N   UNL     1      36.286 -24.542 -13.247  0.00  0.00    -0.271 N 
ATOM      3  C   UNL     1      37.152 -24.704 -12.087  0.00  0.00    +0.174 C 
ATOM      4  C   UNL     1      38.371 -25.453 -12.615  0.00  0.00    +0.033 C 
ATOM      5  C   UNL     1      38.448 -25.019 -14.077  0.00  0.00    +0.024 C 
ATOM      6  C   UNL     1      36.987 -24.890 -14.481  0.00  0.00    +0.094 C 
ATOM      7  C   UNL     1      34.937 -24.246 -13.133  0.00  0.00    +0.226 C 
ENDROOT
BRANCH   3   9
ATOM      8  O   UNL     1      38.235 -22.545 -12.199  0.00  0.00    -0.248 OA
ATOM      9  C   UNL     1      37.510 -23.330 -11.606  0.00  0.00    +0.332 C 
BRANCH   9  10
ATOM     10  O   UNL     1      36.918 -23.072 -10.414  0.00  0.00    -0.479 OA
ATOM     11  H   UNL     1      37.339 -23.325  -9.616  0.00  0.00    +0.295 HD
ENDBRANCH   9  10
ENDBRANCH   3   9
BRANCH   7  12
ATOM     12  C   UNL     1      34.152 -24.286 -14.420  0.00  0.00    +0.087 C 
ATOM     13  C   UNL     1      34.361 -22.953 -15.129  0.00  0.00    +0.010 C 
BRANCH  12  14
ATOM     14  C   UNL     1      32.670 -24.532 -14.146  0.00  0.00    +0.062 C 
BRANCH  14  15
ATOM     15  S   UNL     1      31.674 -23.030 -14.403  0.00  0.00    -0.167 S 
ATOM     16  H   UNL     1      30.656 -23.302 -15.262  0.00  0.00    +0.102 HD
ENDBRANCH  14  15
ENDBRANCH  12  14
ENDBRANCH   7  12
TORSDOF 5
ENDMDL
MODEL 6
REMARK VINA RESULT:      -5.9      9.282     11.476
REMARK  Name = 44093
REMARK  5 active torsions:
REMARK  status: ('A' for Active; 'I' for Inactive)
REMARK    1  A    between atoms: C_3  and  C_9
REMARK    2  A    between atoms: C_7  and  C_12
REMARK    3  A    between atoms: C_9  and  O_10
REMARK    4  A    between atoms: C_12  and  C_14
REMARK    5  A    between atoms: C_14  and  S_15
REMARK                            x       y       z     vdW  Elec       q    Type
REMARK                         _______ _______ _______ _____ _____    ______ ____
ROOT
ATOM      1  O   UNL     1      34.706 -23.850 -13.150  0.00  0.00    -0.275 OA
ATOM      2  N   UNL     1      36.834 -24.530 -13.754  0.00  0.00    -0.271 N 
ATOM      3  C   UNL     1      37.214 -25.062 -12.451  0.00  0.00    +0.174 C 
ATOM      4  C   UNL     1      38.458 -25.900 -12.723  0.00  0.00    +0.033 C 
ATOM      5  C   UNL     1      39.089 -25.216 -13.934  0.00  0.00    +0.024 C 
ATOM      6  C   UNL     1      37.886 -24.756 -14.742  0.00  0.00    +0.094 C 
ATOM      7  C   UNL     1      35.568 -24.028 -14.011  0.00  0.00    +0.226 C 
ENDROOT
BRANCH   3   9
ATOM      8  O   UNL     1      38.445 -23.111 -11.725  0.00  0.00    -0.248 OA
ATOM      9  C   UNL     1      37.517 -23.890 -11.566  0.00  0.00    +0.332 C 
BRANCH   9  10
ATOM     10  O   UNL     1      36.615 -23.808 -10.556  0.00  0.00    -0.479 OA
ATOM     11  H   UNL     1      36.504 -23.003 -10.092  0.00  0.00    +0.295 HD
ENDBRANCH   9  10
ENDBRANCH   3   9
BRANCH   7  12
ATOM     12  C   UNL     1      35.288 -23.683 -15.452  0.00  0.00    +0.087 C 
ATOM     13  C   UNL     1      35.975 -22.355 -15.751  0.00  0.00    +0.010 C 
BRANCH  12  14
ATOM     14  C   UNL     1      33.785 -23.587 -15.706  0.00  0.00    +0.062 C 
BRANCH  14  15
ATOM     15  S   UNL     1      33.412 -23.224 -17.451  0.00  0.00    -0.167 S 
ATOM     16  H   UNL     1      34.112 -24.072 -18.250  0.00  0.00    +0.102 HD
ENDBRANCH  14  15
ENDBRANCH  12  14
ENDBRANCH   7  12
TORSDOF 5
ENDMDL
MODEL 7
REMARK VINA RESULT:      -5.8      9.634     10.806
REMARK  Name = 44093
REMARK  5 active torsions:
REMARK  status: ('A' for Active; 'I' for Inactive)
REMARK    1  A    between atoms: C_3  and  C_9
REMARK    2  A    between atoms: C_7  and  C_12
REMARK    3  A    between atoms: C_9  and  O_10
REMARK    4  A    between atoms: C_12  and  C_14
REMARK    5  A    between atoms: C_14  and  S_15
REMARK                            x       y       z     vdW  Elec       q    Type
REMARK                         _______ _______ _______ _____ _____    ______ ____
ROOT
ATOM      1  O   UNL     1      32.313 -25.088 -13.359  0.00  0.00    -0.275 OA
ATOM      2  N   UNL     1      33.964 -24.127 -14.665  0.00  0.00    -0.271 N 
ATOM      3  C   UNL     1      35.084 -24.848 -14.073  0.00  0.00    +0.174 C 
ATOM      4  C   UNL     1      36.239 -24.634 -15.045  0.00  0.00    +0.033 C 
ATOM      5  C   UNL     1      35.925 -23.280 -15.677  0.00  0.00    +0.024 C 
ATOM      6  C   UNL     1      34.406 -23.280 -15.770  0.00  0.00    +0.094 C 
ATOM      7  C   UNL     1      32.648 -24.367 -14.299  0.00  0.00    +0.226 C 
ENDROOT
BRANCH   3   9
ATOM      8  O   UNL     1      36.002 -23.198 -12.563  0.00  0.00    -0.248 OA
ATOM      9  C   UNL     1      35.358 -24.221 -12.739  0.00  0.00    +0.332 C 
BRANCH   9  10
ATOM     10  O   UNL     1      34.790 -24.947 -11.744  0.00  0.00    -0.479 OA
ATOM     11  H   UNL     1      34.618 -25.859 -11.870  0.00  0.00    +0.295 HD
ENDBRANCH   9  10
ENDBRANCH   3   9
BRANCH   7  12
ATOM     12  C   UNL     1      31.605 -23.665 -15.131  0.00  0.00    +0.087 C 
ATOM     13  C   UNL     1      31.072 -22.495 -14.312  0.00  0.00    +0.010 C 
BRANCH  12  14
ATOM     14  C   UNL     1      30.478 -24.623 -15.511  0.00  0.00    +0.062 C 
BRANCH  14  15
ATOM     15  S   UNL     1      28.891 -23.755 -15.722  0.00  0.00    -0.167 S 
ATOM     16  H   UNL     1      29.094 -22.413 -15.637  0.00  0.00    +0.102 HD
ENDBRANCH  14  15
ENDBRANCH  12  14
ENDBRANCH   7  12
TORSDOF 5
ENDMDL
MODEL 8
REMARK VINA RESULT:      -5.8      1.861      2.834
REMARK  Name = 44093
REMARK  5 active torsions:
REMARK  status: ('A' for Active; 'I' for Inactive)
REMARK    1  A    between atoms: C_3  and  C_9
REMARK    2  A    between atoms: C_7  and  C_12
REMARK    3  A    between atoms: C_9  and  O_10
REMARK    4  A    between atoms: C_12  and  C_14
REMARK    5  A    between atoms: C_14  and  S_15
REMARK                            x       y       z     vdW  Elec       q    Type
REMARK                         _______ _______ _______ _____ _____    ______ ____
ROOT
ATOM      1  O   UNL     1      34.503 -18.660 -23.154  0.00  0.00    -0.275 OA
ATOM      2  N   UNL     1      34.386 -16.813 -21.765  0.00  0.00    -0.271 N 
ATOM      3  C   UNL     1      33.518 -16.015 -22.622  0.00  0.00    +0.174 C 
ATOM      4  C   UNL     1      33.013 -14.892 -21.724  0.00  0.00    +0.033 C 
ATOM      5  C   UNL     1      34.143 -14.709 -20.714  0.00  0.00    +0.024 C 
ATOM      6  C   UNL     1      34.658 -16.125 -20.505  0.00  0.00    +0.094 C 
ATOM      7  C   UNL     1      34.750 -18.113 -22.078  0.00  0.00    +0.226 C 
ENDROOT
BRANCH   3   9
ATOM      8  O   UNL     1      33.981 -14.727 -24.616  0.00  0.00    -0.248 OA
ATOM      9  C   UNL     1      34.365 -15.491 -23.743  0.00  0.00    +0.332 C 
BRANCH   9  10
ATOM     10  O   UNL     1      35.626 -15.982 -23.659  0.00  0.00    -0.479 OA
ATOM     11  H   UNL     1      35.766 -16.874 -23.409  0.00  0.00    +0.295 HD
ENDBRANCH   9  10
ENDBRANCH   3   9
BRANCH   7  12
ATOM     12  C   UNL     1      35.504 -18.853 -21.002  0.00  0.00    +0.087 C 
ATOM     13  C   UNL     1      36.961 -18.943 -21.439  0.00  0.00    +0.010 C 
BRANCH  12  14
ATOM     14  C   UNL     1      34.913 -20.245 -20.784  0.00  0.00    +0.062 C 
BRANCH  14  15
ATOM     15  S   UNL     1      33.126 -20.178 -20.442  0.00  0.00    -0.167 S 
ATOM     16  H   UNL     1      32.880 -19.226 -19.504  0.00  0.00    +0.102 HD
ENDBRANCH  14  15
ENDBRANCH  12  14
ENDBRANCH   7  12
TORSDOF 5
ENDMDL
MODEL 9
REMARK VINA RESULT:      -5.7      8.404     11.309
REMARK  Name = 44093
REMARK  5 active torsions:
REMARK  status: ('A' for Active; 'I' for Inactive)
REMARK    1  A    between atoms: C_3  and  C_9
REMARK    2  A    between atoms: C_7  and  C_12
REMARK    3  A    between atoms: C_9  and  O_10
REMARK    4  A    between atoms: C_12  and  C_14
REMARK    5  A    between atoms: C_14  and  S_15
REMARK                            x       y       z     vdW  Elec       q    Type
REMARK                         _______ _______ _______ _____ _____    ______ ____
ROOT
ATOM      1  O   UNL     1      38.644 -23.614 -15.816  0.00  0.00    -0.275 OA
ATOM      2  N   UNL     1      37.305 -23.956 -13.959  0.00  0.00    -0.271 N 
ATOM      3  C   UNL     1      38.235 -24.816 -13.240  0.00  0.00    +0.174 C 
ATOM      4  C   UNL     1      37.698 -24.860 -11.814  0.00  0.00    +0.033 C 
ATOM      5  C   UNL     1      36.195 -24.660 -11.994  0.00  0.00    +0.024 C 
ATOM      6  C   UNL     1      36.110 -23.690 -13.163  0.00  0.00    +0.094 C 
ATOM      7  C   UNL     1      37.625 -23.363 -15.171  0.00  0.00    +0.226 C 
ENDROOT
BRANCH   3   9
ATOM      8  O   UNL     1      37.297 -26.987 -13.741  0.00  0.00    -0.248 OA
ATOM      9  C   UNL     1      38.187 -26.164 -13.894  0.00  0.00    +0.332 C 
BRANCH   9  10
ATOM     10  O   UNL     1      39.273 -26.351 -14.684  0.00  0.00    -0.479 OA
ATOM     11  H   UNL     1      39.615 -25.639 -15.187  0.00  0.00    +0.295 HD
ENDBRANCH   9  10
ENDBRANCH   3   9
BRANCH   7  12
ATOM     12  C   UNL     1      36.620 -22.366 -15.691  0.00  0.00    +0.087 C 
ATOM     13  C   UNL     1      35.458 -23.152 -16.289  0.00  0.00    +0.010 C 
BRANCH  12  14
ATOM     14  C   UNL     1      37.254 -21.450 -16.736  0.00  0.00    +0.062 C 
BRANCH  14  15
ATOM     15  S   UNL     1      36.470 -21.637 -18.369  0.00  0.00    -0.167 S 
ATOM     16  H   UNL     1      37.159 -20.910 -19.288  0.00  0.00    +0.102 HD
ENDBRANCH  14  15
ENDBRANCH  12  14
ENDBRANCH   7  12
TORSDOF 5
ENDMDL
