MODEL 1
REMARK VINA RESULT:      -5.7      0.000      0.000
REMARK  Name = 49791955
REMARK  10 active torsions:
REMARK  status: ('A' for Active; 'I' for Inactive)
REMARK    1  A    between atoms: P_1  and  O_4
REMARK    2  A    between atoms: P_1  and  O_12
REMARK    3  A    between atoms: O_4  and  C_5
REMARK    4  A    between atoms: C_5  and  C_6
REMARK    5  A    between atoms: C_6  and  O_7
REMARK    6  A    between atoms: C_6  and  C_9
REMARK    7  A    between atoms: C_9  and  O_10
REMARK    8  A    between atoms: O_12  and  C_13
REMARK    9  A    between atoms: C_13  and  C_14
REMARK   10  A    between atoms: C_14  and  N_15
REMARK                            x       y       z     vdW  Elec       q    Type
REMARK                         _______ _______ _______ _____ _____    ______ ____
ROOT
ATOM      1  P   UNL     1      36.504 -24.241 -11.570  0.00  0.00    +0.506 P 
ATOM      2  O   UNL     1      37.284 -23.151 -10.866  0.00  0.00    -0.225 OA
ATOM      3  O   UNL     1      35.394 -24.974 -10.846  0.00  0.00    -0.116 OA
ENDROOT
BRANCH   1   4
ATOM      4  O   UNL     1      37.572 -25.329 -12.159  0.00  0.00    -0.269 OA
BRANCH   4   5
ATOM      5  C   UNL     1      38.759 -24.859 -12.792  0.00  0.00    +0.185 C 
BRANCH   5   6
ATOM      6  C   UNL     1      38.868 -25.452 -14.192  0.00  0.00    +0.170 C 
BRANCH   6   7
ATOM      7  O   UNL     1      38.145 -24.618 -15.101  0.00  0.00    -0.379 OA
ATOM      8  H   UNL     1      38.747 -23.964 -15.487  0.00  0.00    +0.211 HD
ENDBRANCH   6   7
BRANCH   6   9
ATOM      9  C   UNL     1      40.316 -25.515 -14.659  0.00  0.00    +0.169 C 
BRANCH   9  10
ATOM     10  O   UNL     1      40.345 -25.932 -16.019  0.00  0.00    -0.379 OA
ATOM     11  H   UNL     1      41.250 -25.862 -16.360  0.00  0.00    +0.211 HD
ENDBRANCH   9  10
ENDBRANCH   6   9
ENDBRANCH   5   6
ENDBRANCH   4   5
ENDBRANCH   1   4
BRANCH   1  12
ATOM     12  O   UNL     1      35.898 -23.647 -12.969  0.00  0.00    -0.274 OA
BRANCH  12  13
ATOM     13  C   UNL     1      34.588 -24.018 -13.369  0.00  0.00    +0.130 C 
BRANCH  13  14
ATOM     14  C   UNL     1      34.632 -24.610 -14.764  0.00  0.00    -0.053 C 
BRANCH  14  15
ATOM     15  N   UNL     1      35.483 -25.827 -14.754  0.00  0.00    +0.382 N 
ATOM     16  H   UNL     1      36.465 -25.555 -14.709  0.00  0.00    -0.089 HD
ATOM     17  H   UNL     1      35.318 -26.364 -15.605  0.00  0.00    -0.089 HD
ATOM     18  H   UNL     1      35.250 -26.397 -13.942  0.00  0.00    -0.089 HD
ENDBRANCH  14  15
ENDBRANCH  13  14
ENDBRANCH  12  13
ENDBRANCH   1  12
TORSDOF 10
ENDMDL
MODEL 2
REMARK VINA RESULT:      -5.6      1.881      2.194
REMARK  Name = 49791955
REMARK  10 active torsions:
REMARK  status: ('A' for Active; 'I' for Inactive)
REMARK    1  A    between atoms: P_1  and  O_4
REMARK    2  A    between atoms: P_1  and  O_12
REMARK    3  A    between atoms: O_4  and  C_5
REMARK    4  A    between atoms: C_5  and  C_6
REMARK    5  A    between atoms: C_6  and  O_7
REMARK    6  A    between atoms: C_6  and  C_9
REMARK    7  A    between atoms: C_9  and  O_10
REMARK    8  A    between atoms: O_12  and  C_13
REMARK    9  A    between atoms: C_13  and  C_14
REMARK   10  A    between atoms: C_14  and  N_15
REMARK                            x       y       z     vdW  Elec       q    Type
REMARK                         _______ _______ _______ _____ _____    ______ ____
ROOT
ATOM      1  P   UNL     1      37.269 -23.589 -11.756  0.00  0.00    +0.506 P 
ATOM      2  O   UNL     1      38.184 -22.389 -11.887  0.00  0.00    -0.225 OA
ATOM      3  O   UNL     1      36.644 -23.930 -10.420  0.00  0.00    -0.116 OA
ENDROOT
BRANCH   1   4
ATOM      4  O   UNL     1      38.064 -24.898 -12.328  0.00  0.00    -0.269 OA
BRANCH   4   5
ATOM      5  C   UNL     1      38.148 -25.095 -13.736  0.00  0.00    +0.185 C 
BRANCH   5   6
ATOM      6  C   UNL     1      37.535 -26.440 -14.107  0.00  0.00    +0.170 C 
BRANCH   6   7
ATOM      7  O   UNL     1      36.837 -26.955 -12.971  0.00  0.00    -0.379 OA
ATOM      8  H   UNL     1      37.472 -27.349 -12.353  0.00  0.00    +0.211 HD
ENDBRANCH   6   7
BRANCH   6   9
ATOM      9  C   UNL     1      36.539 -26.302 -15.250  0.00  0.00    +0.169 C 
BRANCH   9  10
ATOM     10  O   UNL     1      36.849 -27.265 -16.252  0.00  0.00    -0.379 OA
ATOM     11  H   UNL     1      36.722 -26.871 -17.129  0.00  0.00    +0.211 HD
ENDBRANCH   9  10
ENDBRANCH   6   9
ENDBRANCH   5   6
ENDBRANCH   4   5
ENDBRANCH   1   4
BRANCH   1  12
ATOM     12  O   UNL     1      36.072 -23.473 -12.867  0.00  0.00    -0.274 OA
BRANCH  12  13
ATOM     13  C   UNL     1      34.810 -24.058 -12.588  0.00  0.00    +0.130 C 
BRANCH  13  14
ATOM     14  C   UNL     1      33.967 -24.068 -13.847  0.00  0.00    -0.053 C 
BRANCH  14  15
ATOM     15  N   UNL     1      32.881 -25.071 -13.703  0.00  0.00    +0.382 N 
ATOM     16  H   UNL     1      32.131 -24.680 -13.132  0.00  0.00    -0.089 HD
ATOM     17  H   UNL     1      33.249 -25.908 -13.252  0.00  0.00    -0.089 HD
ATOM     18  H   UNL     1      32.517 -25.312 -14.624  0.00  0.00    -0.089 HD
ENDBRANCH  14  15
ENDBRANCH  13  14
ENDBRANCH  12  13
ENDBRANCH   1  12
TORSDOF 10
ENDMDL
MODEL 3
REMARK VINA RESULT:      -5.4      1.665      4.057
REMARK  Name = 49791955
REMARK  10 active torsions:
REMARK  status: ('A' for Active; 'I' for Inactive)
REMARK    1  A    between atoms: P_1  and  O_4
REMARK    2  A    between atoms: P_1  and  O_12
REMARK    3  A    between atoms: O_4  and  C_5
REMARK    4  A    between atoms: C_5  and  C_6
REMARK    5  A    between atoms: C_6  and  O_7
REMARK    6  A    between atoms: C_6  and  C_9
REMARK    7  A    between atoms: C_9  and  O_10
REMARK    8  A    between atoms: O_12  and  C_13
REMARK    9  A    between atoms: C_13  and  C_14
REMARK   10  A    between atoms: C_14  and  N_15
REMARK                            x       y       z     vdW  Elec       q    Type
REMARK                         _______ _______ _______ _____ _____    ______ ____
ROOT
ATOM      1  P   UNL     1      37.740 -23.724 -12.221  0.00  0.00    +0.506 P 
ATOM      2  O   UNL     1      37.553 -24.825 -11.198  0.00  0.00    -0.225 OA
ATOM      3  O   UNL     1      38.217 -22.354 -11.788  0.00  0.00    -0.116 OA
ENDROOT
BRANCH   1   4
ATOM      4  O   UNL     1      36.345 -23.569 -13.058  0.00  0.00    -0.269 OA
BRANCH   4   5
ATOM      5  C   UNL     1      35.122 -23.957 -12.442  0.00  0.00    +0.185 C 
BRANCH   5   6
ATOM      6  C   UNL     1      34.048 -24.159 -13.505  0.00  0.00    +0.170 C 
BRANCH   6   7
ATOM      7  O   UNL     1      32.881 -23.427 -13.123  0.00  0.00    -0.379 OA
ATOM      8  H   UNL     1      33.064 -22.476 -13.177  0.00  0.00    +0.211 HD
ENDBRANCH   6   7
BRANCH   6   9
ATOM      9  C   UNL     1      34.505 -23.644 -14.863  0.00  0.00    +0.169 C 
BRANCH   9  10
ATOM     10  O   UNL     1      35.198 -24.685 -15.542  0.00  0.00    -0.379 OA
ATOM     11  H   UNL     1      35.851 -24.299 -16.146  0.00  0.00    +0.211 HD
ENDBRANCH   9  10
ENDBRANCH   6   9
ENDBRANCH   5   6
ENDBRANCH   4   5
ENDBRANCH   1   4
BRANCH   1  12
ATOM     12  O   UNL     1      38.729 -24.260 -13.409  0.00  0.00    -0.274 OA
BRANCH  12  13
ATOM     13  C   UNL     1      39.024 -25.645 -13.494  0.00  0.00    +0.130 C 
BRANCH  13  14
ATOM     14  C   UNL     1      38.089 -26.302 -14.490  0.00  0.00    -0.053 C 
BRANCH  14  15
ATOM     15  N   UNL     1      36.858 -26.746 -13.789  0.00  0.00    +0.382 N 
ATOM     16  H   UNL     1      37.088 -27.503 -13.144  0.00  0.00    -0.089 HD
ATOM     17  H   UNL     1      36.177 -27.077 -14.473  0.00  0.00    -0.089 HD
ATOM     18  H   UNL     1      36.463 -25.963 -13.268  0.00  0.00    -0.089 HD
ENDBRANCH  14  15
ENDBRANCH  13  14
ENDBRANCH  12  13
ENDBRANCH   1  12
TORSDOF 10
ENDMDL
MODEL 4
REMARK VINA RESULT:      -5.4      1.933      4.185
REMARK  Name = 49791955
REMARK  10 active torsions:
REMARK  status: ('A' for Active; 'I' for Inactive)
REMARK    1  A    between atoms: P_1  and  O_4
REMARK    2  A    between atoms: P_1  and  O_12
REMARK    3  A    between atoms: O_4  and  C_5
REMARK    4  A    between atoms: C_5  and  C_6
REMARK    5  A    between atoms: C_6  and  O_7
REMARK    6  A    between atoms: C_6  and  C_9
REMARK    7  A    between atoms: C_9  and  O_10
REMARK    8  A    between atoms: O_12  and  C_13
REMARK    9  A    between atoms: C_13  and  C_14
REMARK   10  A    between atoms: C_14  and  N_15
REMARK                            x       y       z     vdW  Elec       q    Type
REMARK                         _______ _______ _______ _____ _____    ______ ____
ROOT
ATOM      1  P   UNL     1      36.186 -24.209 -11.381  0.00  0.00    +0.506 P 
ATOM      2  O   UNL     1      35.357 -24.951 -10.354  0.00  0.00    -0.225 OA
ATOM      3  O   UNL     1      37.193 -23.166 -10.941  0.00  0.00    -0.116 OA
ENDROOT
BRANCH   1   4
ATOM      4  O   UNL     1      35.166 -23.544 -12.472  0.00  0.00    -0.269 OA
BRANCH   4   5
ATOM      5  C   UNL     1      35.581 -23.438 -13.830  0.00  0.00    +0.185 C 
BRANCH   5   6
ATOM      6  C   UNL     1      34.671 -24.281 -14.716  0.00  0.00    +0.170 C 
BRANCH   6   7
ATOM      7  O   UNL     1      35.050 -25.653 -14.588  0.00  0.00    -0.379 OA
ATOM      8  H   UNL     1      35.936 -25.709 -14.199  0.00  0.00    +0.211 HD
ENDBRANCH   6   7
BRANCH   6   9
ATOM      9  C   UNL     1      33.212 -24.153 -14.298  0.00  0.00    +0.169 C 
BRANCH   9  10
ATOM     10  O   UNL     1      32.965 -25.038 -13.211  0.00  0.00    -0.379 OA
ATOM     11  H   UNL     1      33.333 -25.911 -13.415  0.00  0.00    +0.211 HD
ENDBRANCH   9  10
ENDBRANCH   6   9
ENDBRANCH   5   6
ENDBRANCH   4   5
ENDBRANCH   1   4
BRANCH   1  12
ATOM     12  O   UNL     1      36.956 -25.294 -12.333  0.00  0.00    -0.274 OA
BRANCH  12  13
ATOM     13  C   UNL     1      38.351 -25.154 -12.556  0.00  0.00    +0.130 C 
BRANCH  13  14
ATOM     14  C   UNL     1      38.719 -25.791 -13.881  0.00  0.00    -0.053 C 
BRANCH  14  15
ATOM     15  N   UNL     1      37.753 -26.876 -14.189  0.00  0.00    +0.382 N 
ATOM     16  H   UNL     1      38.118 -27.764 -13.845  0.00  0.00    -0.089 HD
ATOM     17  H   UNL     1      37.617 -26.933 -15.198  0.00  0.00    -0.089 HD
ATOM     18  H   UNL     1      36.862 -26.675 -13.736  0.00  0.00    -0.089 HD
ENDBRANCH  14  15
ENDBRANCH  13  14
ENDBRANCH  12  13
ENDBRANCH   1  12
TORSDOF 10
ENDMDL
MODEL 5
REMARK VINA RESULT:      -5.4      1.447      1.809
REMARK  Name = 49791955
REMARK  10 active torsions:
REMARK  status: ('A' for Active; 'I' for Inactive)
REMARK    1  A    between atoms: P_1  and  O_4
REMARK    2  A    between atoms: P_1  and  O_12
REMARK    3  A    between atoms: O_4  and  C_5
REMARK    4  A    between atoms: C_5  and  C_6
REMARK    5  A    between atoms: C_6  and  O_7
REMARK    6  A    between atoms: C_6  and  C_9
REMARK    7  A    between atoms: C_9  and  O_10
REMARK    8  A    between atoms: O_12  and  C_13
REMARK    9  A    between atoms: C_13  and  C_14
REMARK   10  A    between atoms: C_14  and  N_15
REMARK                            x       y       z     vdW  Elec       q    Type
REMARK                         _______ _______ _______ _____ _____    ______ ____
ROOT
ATOM      1  P   UNL     1      36.055 -24.361 -11.723  0.00  0.00    +0.506 P 
ATOM      2  O   UNL     1      36.462 -22.905 -11.798  0.00  0.00    -0.225 OA
ATOM      3  O   UNL     1      35.259 -24.872 -10.540  0.00  0.00    -0.116 OA
ENDROOT
BRANCH   1   4
ATOM      4  O   UNL     1      37.400 -25.273 -11.900  0.00  0.00    -0.269 OA
BRANCH   4   5
ATOM      5  C   UNL     1      37.502 -26.144 -13.022  0.00  0.00    +0.185 C 
BRANCH   5   6
ATOM      6  C   UNL     1      38.687 -25.733 -13.889  0.00  0.00    +0.170 C 
BRANCH   6   7
ATOM      7  O   UNL     1      39.098 -26.860 -14.667  0.00  0.00    -0.379 OA
ATOM      8  H   UNL     1      38.545 -27.624 -14.445  0.00  0.00    +0.211 HD
ENDBRANCH   6   7
BRANCH   6   9
ATOM      9  C   UNL     1      38.312 -24.610 -14.848  0.00  0.00    +0.169 C 
BRANCH   9  10
ATOM     10  O   UNL     1      37.078 -24.935 -15.479  0.00  0.00    -0.379 OA
ATOM     11  H   UNL     1      36.735 -24.154 -15.939  0.00  0.00    +0.211 HD
ENDBRANCH   9  10
ENDBRANCH   6   9
ENDBRANCH   5   6
ENDBRANCH   4   5
ENDBRANCH   1   4
BRANCH   1  12
ATOM     12  O   UNL     1      35.254 -24.765 -13.092  0.00  0.00    -0.274 OA
BRANCH  12  13
ATOM     13  C   UNL     1      33.968 -24.213 -13.330  0.00  0.00    +0.130 C 
BRANCH  13  14
ATOM     14  C   UNL     1      33.944 -23.557 -14.696  0.00  0.00    -0.053 C 
BRANCH  14  15
ATOM     15  N   UNL     1      35.099 -22.631 -14.817  0.00  0.00    +0.382 N 
ATOM     16  H   UNL     1      34.781 -21.672 -14.678  0.00  0.00    -0.089 HD
ATOM     17  H   UNL     1      35.512 -22.722 -15.745  0.00  0.00    -0.089 HD
ATOM     18  H   UNL     1      35.796 -22.865 -14.110  0.00  0.00    -0.089 HD
ENDBRANCH  14  15
ENDBRANCH  13  14
ENDBRANCH  12  13
ENDBRANCH   1  12
TORSDOF 10
ENDMDL
MODEL 6
REMARK VINA RESULT:      -5.2     10.334     11.676
REMARK  Name = 49791955
REMARK  10 active torsions:
REMARK  status: ('A' for Active; 'I' for Inactive)
REMARK    1  A    between atoms: P_1  and  O_4
REMARK    2  A    between atoms: P_1  and  O_12
REMARK    3  A    between atoms: O_4  and  C_5
REMARK    4  A    between atoms: C_5  and  C_6
REMARK    5  A    between atoms: C_6  and  O_7
REMARK    6  A    between atoms: C_6  and  C_9
REMARK    7  A    between atoms: C_9  and  O_10
REMARK    8  A    between atoms: O_12  and  C_13
REMARK    9  A    between atoms: C_13  and  C_14
REMARK   10  A    between atoms: C_14  and  N_15
REMARK                            x       y       z     vdW  Elec       q    Type
REMARK                         _______ _______ _______ _____ _____    ______ ____
ROOT
ATOM      1  P   UNL     1      35.634 -18.600 -21.389  0.00  0.00    +0.506 P 
ATOM      2  O   UNL     1      35.057 -17.376 -20.709  0.00  0.00    -0.225 OA
ATOM      3  O   UNL     1      36.814 -19.327 -20.779  0.00  0.00    -0.116 OA
ENDROOT
BRANCH   1   4
ATOM      4  O   UNL     1      35.987 -18.201 -22.935  0.00  0.00    -0.269 OA
BRANCH   4   5
ATOM      5  C   UNL     1      35.011 -18.425 -23.946  0.00  0.00    +0.185 C 
BRANCH   5   6
ATOM      6  C   UNL     1      34.802 -17.149 -24.755  0.00  0.00    +0.170 C 
BRANCH   6   7
ATOM      7  O   UNL     1      33.911 -17.433 -25.836  0.00  0.00    -0.379 OA
ATOM      8  H   UNL     1      33.345 -18.184 -25.600  0.00  0.00    +0.211 HD
ENDBRANCH   6   7
BRANCH   6   9
ATOM      9  C   UNL     1      34.180 -16.048 -23.907  0.00  0.00    +0.169 C 
BRANCH   9  10
ATOM     10  O   UNL     1      35.204 -15.422 -23.142  0.00  0.00    -0.379 OA
ATOM     11  H   UNL     1      35.985 -15.282 -23.699  0.00  0.00    +0.211 HD
ENDBRANCH   9  10
ENDBRANCH   6   9
ENDBRANCH   5   6
ENDBRANCH   4   5
ENDBRANCH   1   4
BRANCH   1  12
ATOM     12  O   UNL     1      34.437 -19.687 -21.640  0.00  0.00    -0.274 OA
BRANCH  12  13
ATOM     13  C   UNL     1      33.512 -19.953 -20.597  0.00  0.00    +0.130 C 
BRANCH  13  14
ATOM     14  C   UNL     1      33.973 -21.161 -19.807  0.00  0.00    -0.053 C 
BRANCH  14  15
ATOM     15  N   UNL     1      32.790 -21.850 -19.230  0.00  0.00    +0.382 N 
ATOM     16  H   UNL     1      31.939 -21.468 -19.643  0.00  0.00    -0.089 HD
ATOM     17  H   UNL     1      32.773 -21.707 -18.221  0.00  0.00    -0.089 HD
ATOM     18  H   UNL     1      32.847 -22.848 -19.432  0.00  0.00    -0.089 HD
ENDBRANCH  14  15
ENDBRANCH  13  14
ENDBRANCH  12  13
ENDBRANCH   1  12
TORSDOF 10
ENDMDL
MODEL 7
REMARK VINA RESULT:      -5.1      2.407      4.749
REMARK  Name = 49791955
REMARK  10 active torsions:
REMARK  status: ('A' for Active; 'I' for Inactive)
REMARK    1  A    between atoms: P_1  and  O_4
REMARK    2  A    between atoms: P_1  and  O_12
REMARK    3  A    between atoms: O_4  and  C_5
REMARK    4  A    between atoms: C_5  and  C_6
REMARK    5  A    between atoms: C_6  and  O_7
REMARK    6  A    between atoms: C_6  and  C_9
REMARK    7  A    between atoms: C_9  and  O_10
REMARK    8  A    between atoms: O_12  and  C_13
REMARK    9  A    between atoms: C_13  and  C_14
REMARK   10  A    between atoms: C_14  and  N_15
REMARK                            x       y       z     vdW  Elec       q    Type
REMARK                         _______ _______ _______ _____ _____    ______ ____
ROOT
ATOM      1  P   UNL     1      37.314 -25.987 -14.641  0.00  0.00    +0.506 P 
ATOM      2  O   UNL     1      36.046 -25.645 -15.396  0.00  0.00    -0.225 OA
ATOM      3  O   UNL     1      37.999 -27.319 -14.863  0.00  0.00    -0.116 OA
ENDROOT
BRANCH   1   4
ATOM      4  O   UNL     1      37.021 -25.792 -13.045  0.00  0.00    -0.269 OA
BRANCH   4   5
ATOM      5  C   UNL     1      37.622 -24.697 -12.361  0.00  0.00    +0.185 C 
BRANCH   5   6
ATOM      6  C   UNL     1      36.618 -24.077 -11.395  0.00  0.00    +0.170 C 
BRANCH   6   7
ATOM      7  O   UNL     1      37.155 -22.847 -10.904  0.00  0.00    -0.379 OA
ATOM      8  H   UNL     1      38.112 -22.828 -11.056  0.00  0.00    +0.211 HD
ENDBRANCH   6   7
BRANCH   6   9
ATOM      9  C   UNL     1      35.296 -23.773 -12.087  0.00  0.00    +0.169 C 
BRANCH   9  10
ATOM     10  O   UNL     1      35.563 -23.152 -13.339  0.00  0.00    -0.379 OA
ATOM     11  H   UNL     1      36.314 -23.593 -13.765  0.00  0.00    +0.211 HD
ENDBRANCH   9  10
ENDBRANCH   6   9
ENDBRANCH   5   6
ENDBRANCH   4   5
ENDBRANCH   1   4
BRANCH   1  12
ATOM     12  O   UNL     1      38.415 -24.799 -14.877  0.00  0.00    -0.274 OA
BRANCH  12  13
ATOM     13  C   UNL     1      39.703 -25.136 -15.367  0.00  0.00    +0.130 C 
BRANCH  13  14
ATOM     14  C   UNL     1      40.648 -25.355 -14.203  0.00  0.00    -0.053 C 
BRANCH  14  15
ATOM     15  N   UNL     1      40.985 -26.798 -14.109  0.00  0.00    +0.382 N 
ATOM     16  H   UNL     1      40.671 -27.277 -14.954  0.00  0.00    -0.089 HD
ATOM     17  H   UNL     1      40.522 -27.204 -13.296  0.00  0.00    -0.089 HD
ATOM     18  H   UNL     1      41.995 -26.905 -14.014  0.00  0.00    -0.089 HD
ENDBRANCH  14  15
ENDBRANCH  13  14
ENDBRANCH  12  13
ENDBRANCH   1  12
TORSDOF 10
ENDMDL
MODEL 8
REMARK VINA RESULT:      -5.0     10.006     11.245
REMARK  Name = 49791955
REMARK  10 active torsions:
REMARK  status: ('A' for Active; 'I' for Inactive)
REMARK    1  A    between atoms: P_1  and  O_4
REMARK    2  A    between atoms: P_1  and  O_12
REMARK    3  A    between atoms: O_4  and  C_5
REMARK    4  A    between atoms: C_5  and  C_6
REMARK    5  A    between atoms: C_6  and  O_7
REMARK    6  A    between atoms: C_6  and  C_9
REMARK    7  A    between atoms: C_9  and  O_10
REMARK    8  A    between atoms: O_12  and  C_13
REMARK    9  A    between atoms: C_13  and  C_14
REMARK   10  A    between atoms: C_14  and  N_15
REMARK                            x       y       z     vdW  Elec       q    Type
REMARK                         _______ _______ _______ _____ _____    ______ ____
ROOT
ATOM      1  P   UNL     1      34.921 -17.321 -21.392  0.00  0.00    +0.506 P 
ATOM      2  O   UNL     1      36.065 -18.168 -21.908  0.00  0.00    -0.225 OA
ATOM      3  O   UNL     1      35.148 -16.336 -20.265  0.00  0.00    -0.116 OA
ENDROOT
BRANCH   1   4
ATOM      4  O   UNL     1      33.690 -18.319 -20.994  0.00  0.00    -0.269 OA
BRANCH   4   5
ATOM      5  C   UNL     1      33.787 -19.701 -21.322  0.00  0.00    +0.185 C 
BRANCH   5   6
ATOM      6  C   UNL     1      33.673 -20.543 -20.056  0.00  0.00    +0.170 C 
BRANCH   6   7
ATOM      7  O   UNL     1      32.680 -21.550 -20.263  0.00  0.00    -0.379 OA
ATOM      8  H   UNL     1      32.481 -21.986 -19.421  0.00  0.00    +0.211 HD
ENDBRANCH   6   7
BRANCH   6   9
ATOM      9  C   UNL     1      34.988 -21.236 -19.727  0.00  0.00    +0.169 C 
BRANCH   9  10
ATOM     10  O   UNL     1      36.042 -20.281 -19.792  0.00  0.00    -0.379 OA
ATOM     11  H   UNL     1      35.832 -19.529 -19.216  0.00  0.00    +0.211 HD
ENDBRANCH   9  10
ENDBRANCH   6   9
ENDBRANCH   5   6
ENDBRANCH   4   5
ENDBRANCH   1   4
BRANCH   1  12
ATOM     12  O   UNL     1      34.244 -16.516 -22.646  0.00  0.00    -0.274 OA
BRANCH  12  13
ATOM     13  C   UNL     1      34.988 -16.343 -23.842  0.00  0.00    +0.130 C 
BRANCH  13  14
ATOM     14  C   UNL     1      34.327 -17.113 -24.967  0.00  0.00    -0.053 C 
BRANCH  14  15
ATOM     15  N   UNL     1      34.581 -18.565 -24.784  0.00  0.00    +0.382 N 
ATOM     16  H   UNL     1      35.580 -18.749 -24.870  0.00  0.00    -0.089 HD
ATOM     17  H   UNL     1      34.075 -19.091 -25.496  0.00  0.00    -0.089 HD
ATOM     18  H   UNL     1      34.261 -18.851 -23.859  0.00  0.00    -0.089 HD
ENDBRANCH  14  15
ENDBRANCH  13  14
ENDBRANCH  12  13
ENDBRANCH   1  12
TORSDOF 10
ENDMDL
MODEL 9
REMARK VINA RESULT:      -5.0     12.024     13.182
REMARK  Name = 49791955
REMARK  10 active torsions:
REMARK  status: ('A' for Active; 'I' for Inactive)
REMARK    1  A    between atoms: P_1  and  O_4
REMARK    2  A    between atoms: P_1  and  O_12
REMARK    3  A    between atoms: O_4  and  C_5
REMARK    4  A    between atoms: C_5  and  C_6
REMARK    5  A    between atoms: C_6  and  O_7
REMARK    6  A    between atoms: C_6  and  C_9
REMARK    7  A    between atoms: C_9  and  O_10
REMARK    8  A    between atoms: O_12  and  C_13
REMARK    9  A    between atoms: C_13  and  C_14
REMARK   10  A    between atoms: C_14  and  N_15
REMARK                            x       y       z     vdW  Elec       q    Type
REMARK                         _______ _______ _______ _____ _____    ______ ____
ROOT
ATOM      1  P   UNL     1      34.098 -15.597 -21.638  0.00  0.00    +0.506 P 
ATOM      2  O   UNL     1      32.639 -15.219 -21.788  0.00  0.00    -0.225 OA
ATOM      3  O   UNL     1      34.928 -15.007 -20.517  0.00  0.00    -0.116 OA
ENDROOT
BRANCH   1   4
ATOM      4  O   UNL     1      34.844 -15.316 -23.065  0.00  0.00    -0.269 OA
BRANCH   4   5
ATOM      5  C   UNL     1      34.082 -14.802 -24.153  0.00  0.00    +0.185 C 
BRANCH   5   6
ATOM      6  C   UNL     1      33.770 -15.920 -25.141  0.00  0.00    +0.170 C 
BRANCH   6   7
ATOM      7  O   UNL     1      33.664 -15.358 -26.451  0.00  0.00    -0.379 OA
ATOM      8  H   UNL     1      34.106 -14.496 -26.470  0.00  0.00    +0.211 HD
ENDBRANCH   6   7
BRANCH   6   9
ATOM      9  C   UNL     1      34.877 -16.967 -25.164  0.00  0.00    +0.169 C 
BRANCH   9  10
ATOM     10  O   UNL     1      34.454 -18.101 -24.416  0.00  0.00    -0.379 OA
ATOM     11  H   UNL     1      34.396 -17.866 -23.477  0.00  0.00    +0.211 HD
ENDBRANCH   9  10
ENDBRANCH   6   9
ENDBRANCH   5   6
ENDBRANCH   4   5
ENDBRANCH   1   4
BRANCH   1  12
ATOM     12  O   UNL     1      34.224 -17.227 -21.565  0.00  0.00    -0.274 OA
BRANCH  12  13
ATOM     13  C   UNL     1      35.435 -17.809 -21.109  0.00  0.00    +0.130 C 
BRANCH  13  14
ATOM     14  C   UNL     1      35.280 -19.314 -21.037  0.00  0.00    -0.053 C 
BRANCH  14  15
ATOM     15  N   UNL     1      36.365 -19.880 -20.196  0.00  0.00    +0.382 N 
ATOM     16  H   UNL     1      37.121 -20.212 -20.794  0.00  0.00    -0.089 HD
ATOM     17  H   UNL     1      35.999 -20.658 -19.647  0.00  0.00    -0.089 HD
ATOM     18  H   UNL     1      36.719 -19.159 -19.568  0.00  0.00    -0.089 HD
ENDBRANCH  14  15
ENDBRANCH  13  14
ENDBRANCH  12  13
ENDBRANCH   1  12
TORSDOF 10
ENDMDL
