MODEL 1
REMARK VINA RESULT:      -8.9      0.000      0.000
REMARK  Name = 41693
REMARK  8 active torsions:
REMARK  status: ('A' for Active; 'I' for Inactive)
REMARK    1  A    between atoms: N_1  and  C_22
REMARK    2  A    between atoms: C_2  and  N_9
REMARK    3  A    between atoms: C_2  and  C_19
REMARK    4  A    between atoms: N_9  and  C_11
REMARK    5  A    between atoms: C_10  and  C_17
REMARK    6  A    between atoms: C_19  and  O_20
REMARK    7  A    between atoms: C_22  and  C_23
REMARK    8  A    between atoms: C_23  and  C_25
REMARK                            x       y       z     vdW  Elec       q    Type
REMARK                         _______ _______ _______ _____ _____    ______ ____
ROOT
ATOM      1  N   UNL     1      34.435 -15.518 -21.256  0.00  0.00    +0.387 N 
ATOM      2  C   UNL     1      33.071 -13.537 -22.986  0.00  0.00    +0.088 C 
ATOM      3  C   UNL     1      34.575 -13.858 -23.086  0.00  0.00    -0.002 C 
ATOM      4  C   UNL     1      32.574 -13.919 -21.579  0.00  0.00    -0.002 C 
ATOM      5  C   UNL     1      34.916 -15.277 -22.622  0.00  0.00    -0.076 C 
ATOM      6  C   UNL     1      32.981 -15.336 -21.164  0.00  0.00    -0.076 C 
ATOM      7  H   UNL     1      34.876 -14.831 -20.644  0.00  0.00    -0.080 HD
ENDROOT
BRANCH   2   9
ATOM      8  O   UNL     1      31.084 -11.826 -21.677  0.00  0.00    -0.275 OA
ATOM      9  N   UNL     1      32.876 -12.109 -23.188  0.00  0.00    -0.260 N 
ATOM     10  C   UNL     1      31.879 -11.366 -22.501  0.00  0.00    +0.229 C 
BRANCH   9  11
ATOM     11  C   UNL     1      33.739 -11.413 -24.133  0.00  0.00    +0.054 C 
ATOM     12  C   UNL     1      34.430 -10.269 -23.735  0.00  0.00    +0.015 C 
ATOM     13  C   UNL     1      33.875 -11.891 -25.436  0.00  0.00    +0.015 C 
ATOM     14  C   UNL     1      35.257  -9.604 -24.639  0.00  0.00    +0.001 C 
ATOM     15  C   UNL     1      34.701 -11.226 -26.341  0.00  0.00    +0.001 C 
ATOM     16  C   UNL     1      35.392 -10.081 -25.943  0.00  0.00    +0.000 C 
ENDBRANCH   9  11
BRANCH  10  17
ATOM     17  C   UNL     1      31.791  -9.889 -22.875  0.00  0.00    +0.086 C 
ATOM     18  C   UNL     1      31.859  -8.969 -21.666  0.00  0.00    +0.010 C 
ENDBRANCH  10  17
ENDBRANCH   2   9
BRANCH   2  19
ATOM     19  C   UNL     1      32.276 -14.279 -24.071  0.00  0.00    +0.160 C 
BRANCH  19  20
ATOM     20  O   UNL     1      33.182 -15.045 -24.838  0.00  0.00    -0.349 OA
ATOM     21  C   UNL     1      32.850 -15.028 -26.223  0.00  0.00    +0.174 C 
ENDBRANCH  19  20
ENDBRANCH   2  19
BRANCH   1  22
ATOM     22  C   UNL     1      34.814 -16.858 -20.808  0.00  0.00    -0.072 C 
BRANCH  22  23
ATOM     23  C   UNL     1      34.200 -17.932 -21.707  0.00  0.00    +0.010 C 
BRANCH  23  25
ATOM     24  S   UNL     1      35.456 -20.147 -20.582  0.00  0.00    -0.091 S 
ATOM     25  C   UNL     1      34.055 -19.244 -20.975  0.00  0.00    +0.005 C 
ATOM     26  C   UNL     1      32.902 -19.866 -20.550  0.00  0.00    +0.003 C 
ATOM     27  C   UNL     1      33.173 -21.100 -19.892  0.00  0.00    +0.007 C 
ATOM     28  C   UNL     1      34.521 -21.375 -19.839  0.00  0.00    +0.035 C 
ENDBRANCH  23  25
ENDBRANCH  22  23
ENDBRANCH   1  22
TORSDOF 8
ENDMDL
MODEL 2
REMARK VINA RESULT:      -8.7      7.358     13.308
REMARK  Name = 41693
REMARK  8 active torsions:
REMARK  status: ('A' for Active; 'I' for Inactive)
REMARK    1  A    between atoms: N_1  and  C_22
REMARK    2  A    between atoms: C_2  and  N_9
REMARK    3  A    between atoms: C_2  and  C_19
REMARK    4  A    between atoms: N_9  and  C_11
REMARK    5  A    between atoms: C_10  and  C_17
REMARK    6  A    between atoms: C_19  and  O_20
REMARK    7  A    between atoms: C_22  and  C_23
REMARK    8  A    between atoms: C_23  and  C_25
REMARK                            x       y       z     vdW  Elec       q    Type
REMARK                         _______ _______ _______ _____ _____    ______ ____
ROOT
ATOM      1  N   UNL     1      36.077 -21.858 -17.518  0.00  0.00    +0.387 N 
ATOM      2  C   UNL     1      35.360 -23.747 -15.352  0.00  0.00    +0.088 C 
ATOM      3  C   UNL     1      34.332 -23.149 -16.332  0.00  0.00    -0.002 C 
ATOM      4  C   UNL     1      36.591 -22.823 -15.298  0.00  0.00    -0.002 C 
ATOM      5  C   UNL     1      34.942 -22.773 -17.685  0.00  0.00    -0.076 C 
ATOM      6  C   UNL     1      37.128 -22.457 -16.686  0.00  0.00    -0.076 C 
ATOM      7  H   UNL     1      35.739 -21.022 -17.040  0.00  0.00    -0.080 HD
ENDROOT
BRANCH   2   9
ATOM      8  O   UNL     1      36.772 -23.759 -12.783  0.00  0.00    -0.275 OA
ATOM      9  N   UNL     1      34.765 -23.825 -14.027  0.00  0.00    -0.260 N 
ATOM     10  C   UNL     1      35.540 -23.824 -12.836  0.00  0.00    +0.229 C 
BRANCH   9  11
ATOM     11  C   UNL     1      33.315 -23.907 -13.916  0.00  0.00    +0.054 C 
ATOM     12  C   UNL     1      32.546 -22.744 -13.946  0.00  0.00    +0.015 C 
ATOM     13  C   UNL     1      32.695 -25.149 -13.780  0.00  0.00    +0.015 C 
ATOM     14  C   UNL     1      31.158 -22.822 -13.841  0.00  0.00    +0.001 C 
ATOM     15  C   UNL     1      31.307 -25.228 -13.675  0.00  0.00    +0.001 C 
ATOM     16  C   UNL     1      30.538 -24.065 -13.704  0.00  0.00    +0.000 C 
ENDBRANCH   9  11
BRANCH  10  17
ATOM     17  C   UNL     1      34.747 -23.958 -11.540  0.00  0.00    +0.086 C 
ATOM     18  C   UNL     1      35.601 -24.422 -10.370  0.00  0.00    +0.010 C 
ENDBRANCH  10  17
ENDBRANCH   2   9
BRANCH   2  19
ATOM     19  C   UNL     1      35.759 -25.170 -15.774  0.00  0.00    +0.160 C 
BRANCH  19  20
ATOM     20  O   UNL     1      37.099 -25.389 -15.381  0.00  0.00    -0.349 OA
ATOM     21  C   UNL     1      37.274 -26.673 -14.788  0.00  0.00    +0.174 C 
ENDBRANCH  19  20
ENDBRANCH   2  19
BRANCH   1  22
ATOM     22  C   UNL     1      36.616 -21.466 -18.821  0.00  0.00    -0.072 C 
BRANCH  22  23
ATOM     23  C   UNL     1      35.538 -21.535 -19.904  0.00  0.00    +0.010 C 
BRANCH  23  25
ATOM     24  S   UNL     1      33.719 -19.714 -20.966  0.00  0.00    -0.091 S 
ATOM     25  C   UNL     1      35.309 -20.184 -20.536  0.00  0.00    +0.005 C 
ATOM     26  C   UNL     1      36.236 -19.212 -20.842  0.00  0.00    +0.003 C 
ATOM     27  C   UNL     1      35.633 -18.066 -21.436  0.00  0.00    +0.007 C 
ATOM     28  C   UNL     1      34.269 -18.205 -21.562  0.00  0.00    +0.035 C 
ENDBRANCH  23  25
ENDBRANCH  22  23
ENDBRANCH   1  22
TORSDOF 8
ENDMDL
MODEL 3
REMARK VINA RESULT:      -8.5      1.448      3.013
REMARK  Name = 41693
REMARK  8 active torsions:
REMARK  status: ('A' for Active; 'I' for Inactive)
REMARK    1  A    between atoms: N_1  and  C_22
REMARK    2  A    between atoms: C_2  and  N_9
REMARK    3  A    between atoms: C_2  and  C_19
REMARK    4  A    between atoms: N_9  and  C_11
REMARK    5  A    between atoms: C_10  and  C_17
REMARK    6  A    between atoms: C_19  and  O_20
REMARK    7  A    between atoms: C_22  and  C_23
REMARK    8  A    between atoms: C_23  and  C_25
REMARK                            x       y       z     vdW  Elec       q    Type
REMARK                         _______ _______ _______ _____ _____    ______ ____
ROOT
ATOM      1  N   UNL     1      34.496 -16.344 -21.682  0.00  0.00    +0.387 N 
ATOM      2  C   UNL     1      33.176 -14.062 -23.033  0.00  0.00    +0.088 C 
ATOM      3  C   UNL     1      34.680 -14.372 -23.165  0.00  0.00    -0.002 C 
ATOM      4  C   UNL     1      32.650 -14.697 -21.733  0.00  0.00    -0.002 C 
ATOM      5  C   UNL     1      35.005 -15.856 -22.969  0.00  0.00    -0.076 C 
ATOM      6  C   UNL     1      33.041 -16.171 -21.583  0.00  0.00    -0.076 C 
ATOM      7  H   UNL     1      34.928 -15.789 -20.943  0.00  0.00    -0.080 HD
ENDROOT
BRANCH   2   9
ATOM      8  O   UNL     1      34.250 -12.062 -24.887  0.00  0.00    -0.275 OA
ATOM      9  N   UNL     1      32.992 -12.621 -22.968  0.00  0.00    -0.260 N 
ATOM     10  C   UNL     1      33.557 -11.731 -23.921  0.00  0.00    +0.229 C 
BRANCH   9  11
ATOM     11  C   UNL     1      32.195 -12.067 -21.883  0.00  0.00    +0.054 C 
ATOM     12  C   UNL     1      32.644 -12.163 -20.566  0.00  0.00    +0.015 C 
ATOM     13  C   UNL     1      30.981 -11.437 -22.159  0.00  0.00    +0.015 C 
ATOM     14  C   UNL     1      31.882 -11.632 -19.527  0.00  0.00    +0.001 C 
ATOM     15  C   UNL     1      30.217 -10.906 -21.121  0.00  0.00    +0.001 C 
ATOM     16  C   UNL     1      30.667 -11.003 -19.804  0.00  0.00    +0.000 C 
ENDBRANCH   9  11
BRANCH  10  17
ATOM     17  C   UNL     1      33.296 -10.249 -23.666  0.00  0.00    +0.086 C 
ATOM     18  C   UNL     1      34.496  -9.374 -23.991  0.00  0.00    +0.010 C 
ENDBRANCH  10  17
ENDBRANCH   2   9
BRANCH   2  19
ATOM     19  C   UNL     1      32.399 -14.581 -24.253  0.00  0.00    +0.160 C 
BRANCH  19  20
ATOM     20  O   UNL     1      33.320 -15.174 -25.146  0.00  0.00    -0.349 OA
ATOM     21  C   UNL     1      33.056 -14.811 -26.498  0.00  0.00    +0.174 C 
ENDBRANCH  19  20
ENDBRANCH   2  19
BRANCH   1  22
ATOM     22  C   UNL     1      34.859 -17.748 -21.486  0.00  0.00    -0.072 C 
BRANCH  22  23
ATOM     23  C   UNL     1      33.615 -18.613 -21.278  0.00  0.00    +0.010 C 
BRANCH  23  25
ATOM     24  S   UNL     1      35.589 -20.372 -20.405  0.00  0.00    -0.091 S 
ATOM     25  C   UNL     1      33.952 -19.893 -20.552  0.00  0.00    +0.005 C 
ATOM     26  C   UNL     1      33.094 -20.791 -19.956  0.00  0.00    +0.003 C 
ATOM     27  C   UNL     1      33.791 -21.886 -19.369  0.00  0.00    +0.007 C 
ATOM     28  C   UNL     1      35.154 -21.785 -19.539  0.00  0.00    +0.035 C 
ENDBRANCH  23  25
ENDBRANCH  22  23
ENDBRANCH   1  22
TORSDOF 8
ENDMDL
MODEL 4
REMARK VINA RESULT:      -8.1      1.862      3.302
REMARK  Name = 41693
REMARK  8 active torsions:
REMARK  status: ('A' for Active; 'I' for Inactive)
REMARK    1  A    between atoms: N_1  and  C_22
REMARK    2  A    between atoms: C_2  and  N_9
REMARK    3  A    between atoms: C_2  and  C_19
REMARK    4  A    between atoms: N_9  and  C_11
REMARK    5  A    between atoms: C_10  and  C_17
REMARK    6  A    between atoms: C_19  and  O_20
REMARK    7  A    between atoms: C_22  and  C_23
REMARK    8  A    between atoms: C_23  and  C_25
REMARK                            x       y       z     vdW  Elec       q    Type
REMARK                         _______ _______ _______ _____ _____    ______ ____
ROOT
ATOM      1  N   UNL     1      33.441 -14.972 -23.966  0.00  0.00    +0.387 N 
ATOM      2  C   UNL     1      33.053 -12.149 -23.158  0.00  0.00    +0.088 C 
ATOM      3  C   UNL     1      33.858 -13.167 -22.327  0.00  0.00    -0.002 C 
ATOM      4  C   UNL     1      32.070 -12.914 -24.065  0.00  0.00    -0.002 C 
ATOM      5  C   UNL     1      34.469 -14.284 -23.177  0.00  0.00    -0.076 C 
ATOM      6  C   UNL     1      32.740 -14.040 -24.859  0.00  0.00    -0.076 C 
ATOM      7  H   UNL     1      32.755 -15.359 -23.317  0.00  0.00    -0.080 HD
ENDROOT
BRANCH   2   9
ATOM      8  O   UNL     1      31.641 -12.958 -20.721  0.00  0.00    -0.275 OA
ATOM      9  N   UNL     1      32.299 -11.290 -22.257  0.00  0.00    -0.260 N 
ATOM     10  C   UNL     1      31.647 -11.782 -21.095  0.00  0.00    +0.229 C 
BRANCH   9  11
ATOM     11  C   UNL     1      32.210  -9.868 -22.559  0.00  0.00    +0.054 C 
ATOM     12  C   UNL     1      31.147  -9.381 -23.318  0.00  0.00    +0.015 C 
ATOM     13  C   UNL     1      33.188  -8.993 -22.087  0.00  0.00    +0.015 C 
ATOM     14  C   UNL     1      31.061  -8.019 -23.606  0.00  0.00    +0.001 C 
ATOM     15  C   UNL     1      33.103  -7.631 -22.374  0.00  0.00    +0.001 C 
ATOM     16  C   UNL     1      32.039  -7.143 -23.134  0.00  0.00    +0.000 C 
ENDBRANCH   9  11
BRANCH  10  17
ATOM     17  C   UNL     1      30.866 -10.744 -20.294  0.00  0.00    +0.086 C 
ATOM     18  C   UNL     1      31.521 -10.410 -18.963  0.00  0.00    +0.010 C 
ENDBRANCH  10  17
ENDBRANCH   2   9
BRANCH   2  19
ATOM     19  C   UNL     1      33.986 -11.255 -23.989  0.00  0.00    +0.160 C 
BRANCH  19  20
ATOM     20  O   UNL     1      33.728 -11.497 -25.358  0.00  0.00    -0.349 OA
ATOM     21  C   UNL     1      34.827 -11.114 -26.180  0.00  0.00    +0.174 C 
ENDBRANCH  19  20
ENDBRANCH   2  19
BRANCH   1  22
ATOM     22  C   UNL     1      34.031 -16.070 -24.733  0.00  0.00    -0.072 C 
BRANCH  22  23
ATOM     23  C   UNL     1      35.311 -16.578 -24.067  0.00  0.00    +0.010 C 
BRANCH  23  25
ATOM     24  S   UNL     1      34.974 -17.313 -21.403  0.00  0.00    -0.091 S 
ATOM     25  C   UNL     1      35.016 -17.676 -23.076  0.00  0.00    +0.005 C 
ATOM     26  C   UNL     1      34.761 -19.008 -23.322  0.00  0.00    +0.003 C 
ATOM     27  C   UNL     1      34.527 -19.738 -22.121  0.00  0.00    +0.007 C 
ATOM     28  C   UNL     1      34.613 -18.939 -21.003  0.00  0.00    +0.035 C 
ENDBRANCH  23  25
ENDBRANCH  22  23
ENDBRANCH   1  22
TORSDOF 8
ENDMDL
MODEL 5
REMARK VINA RESULT:      -8.0      1.203      1.903
REMARK  Name = 41693
REMARK  8 active torsions:
REMARK  status: ('A' for Active; 'I' for Inactive)
REMARK    1  A    between atoms: N_1  and  C_22
REMARK    2  A    between atoms: C_2  and  N_9
REMARK    3  A    between atoms: C_2  and  C_19
REMARK    4  A    between atoms: N_9  and  C_11
REMARK    5  A    between atoms: C_10  and  C_17
REMARK    6  A    between atoms: C_19  and  O_20
REMARK    7  A    between atoms: C_22  and  C_23
REMARK    8  A    between atoms: C_23  and  C_25
REMARK                            x       y       z     vdW  Elec       q    Type
REMARK                         _______ _______ _______ _____ _____    ______ ____
ROOT
ATOM      1  N   UNL     1      34.853 -15.949 -23.605  0.00  0.00    +0.387 N 
ATOM      2  C   UNL     1      33.179 -13.580 -23.005  0.00  0.00    +0.088 C 
ATOM      3  C   UNL     1      33.096 -14.365 -24.329  0.00  0.00    -0.002 C 
ATOM      4  C   UNL     1      34.559 -13.827 -22.367  0.00  0.00    -0.002 C 
ATOM      5  C   UNL     1      33.508 -15.832 -24.182  0.00  0.00    -0.076 C 
ATOM      6  C   UNL     1      34.924 -15.312 -22.284  0.00  0.00    -0.076 C 
ATOM      7  H   UNL     1      35.502 -15.461 -24.223  0.00  0.00    -0.080 HD
ENDROOT
BRANCH   2   9
ATOM      8  O   UNL     1      31.349 -11.706 -21.691  0.00  0.00    -0.275 OA
ATOM      9  N   UNL     1      33.031 -12.160 -23.285  0.00  0.00    -0.260 N 
ATOM     10  C   UNL     1      32.110 -11.333 -22.588  0.00  0.00    +0.229 C 
BRANCH   9  11
ATOM     11  C   UNL     1      33.861 -11.562 -24.321  0.00  0.00    +0.054 C 
ATOM     12  C   UNL     1      34.679 -10.473 -24.019  0.00  0.00    +0.015 C 
ATOM     13  C   UNL     1      33.840 -12.078 -25.617  0.00  0.00    +0.015 C 
ATOM     14  C   UNL     1      35.474  -9.901 -25.011  0.00  0.00    +0.001 C 
ATOM     15  C   UNL     1      34.635 -11.507 -26.610  0.00  0.00    +0.001 C 
ATOM     16  C   UNL     1      35.452 -10.417 -26.307  0.00  0.00    +0.000 C 
ENDBRANCH   9  11
BRANCH  10  17
ATOM     17  C   UNL     1      32.060  -9.878 -23.048  0.00  0.00    +0.086 C 
ATOM     18  C   UNL     1      32.013  -8.894 -21.890  0.00  0.00    +0.010 C 
ENDBRANCH  10  17
ENDBRANCH   2   9
BRANCH   2  19
ATOM     19  C   UNL     1      32.049 -13.992 -22.049  0.00  0.00    +0.160 C 
BRANCH  19  20
ATOM     20  O   UNL     1      32.633 -14.472 -20.855  0.00  0.00    -0.349 OA
ATOM     21  C   UNL     1      32.054 -15.707 -20.441  0.00  0.00    +0.174 C 
ENDBRANCH  19  20
ENDBRANCH   2  19
BRANCH   1  22
ATOM     22  C   UNL     1      35.255 -17.354 -23.519  0.00  0.00    -0.072 C 
BRANCH  22  23
ATOM     23  C   UNL     1      35.863 -17.668 -22.151  0.00  0.00    +0.010 C 
BRANCH  23  25
ATOM     24  S   UNL     1      35.937 -19.992 -20.621  0.00  0.00    -0.091 S 
ATOM     25  C   UNL     1      35.089 -18.752 -21.442  0.00  0.00    +0.005 C 
ATOM     26  C   UNL     1      33.724 -18.909 -21.350  0.00  0.00    +0.003 C 
ATOM     27  C   UNL     1      33.369 -20.063 -20.593  0.00  0.00    +0.007 C 
ATOM     28  C   UNL     1      34.475 -20.744 -20.137  0.00  0.00    +0.035 C 
ENDBRANCH  23  25
ENDBRANCH  22  23
ENDBRANCH   1  22
TORSDOF 8
ENDMDL
MODEL 6
REMARK VINA RESULT:      -7.9      1.282      3.018
REMARK  Name = 41693
REMARK  8 active torsions:
REMARK  status: ('A' for Active; 'I' for Inactive)
REMARK    1  A    between atoms: N_1  and  C_22
REMARK    2  A    between atoms: C_2  and  N_9
REMARK    3  A    between atoms: C_2  and  C_19
REMARK    4  A    between atoms: N_9  and  C_11
REMARK    5  A    between atoms: C_10  and  C_17
REMARK    6  A    between atoms: C_19  and  O_20
REMARK    7  A    between atoms: C_22  and  C_23
REMARK    8  A    between atoms: C_23  and  C_25
REMARK                            x       y       z     vdW  Elec       q    Type
REMARK                         _______ _______ _______ _____ _____    ______ ____
ROOT
ATOM      1  N   UNL     1      34.919 -16.171 -21.846  0.00  0.00    +0.387 N 
ATOM      2  C   UNL     1      33.359 -14.017 -23.150  0.00  0.00    +0.088 C 
ATOM      3  C   UNL     1      33.373 -15.475 -23.648  0.00  0.00    -0.002 C 
ATOM      4  C   UNL     1      34.635 -13.761 -22.326  0.00  0.00    -0.002 C 
ATOM      5  C   UNL     1      33.661 -16.486 -22.535  0.00  0.00    -0.076 C 
ATOM      6  C   UNL     1      34.881 -14.828 -21.255  0.00  0.00    -0.076 C 
ATOM      7  H   UNL     1      35.668 -16.188 -22.538  0.00  0.00    -0.080 HD
ENDROOT
BRANCH   2   9
ATOM      8  O   UNL     1      32.887 -14.747 -25.949  0.00  0.00    -0.275 OA
ATOM      9  N   UNL     1      33.345 -13.123 -24.297  0.00  0.00    -0.260 N 
ATOM     10  C   UNL     1      33.105 -13.578 -25.622  0.00  0.00    +0.229 C 
BRANCH   9  11
ATOM     11  C   UNL     1      33.585 -11.703 -24.079  0.00  0.00    +0.054 C 
ATOM     12  C   UNL     1      34.754 -11.111 -24.557  0.00  0.00    +0.015 C 
ATOM     13  C   UNL     1      32.645 -10.933 -23.394  0.00  0.00    +0.015 C 
ATOM     14  C   UNL     1      34.984  -9.752 -24.349  0.00  0.00    +0.001 C 
ATOM     15  C   UNL     1      32.873  -9.574 -23.185  0.00  0.00    +0.001 C 
ATOM     16  C   UNL     1      34.044  -8.982 -23.663  0.00  0.00    +0.000 C 
ENDBRANCH   9  11
BRANCH  10  17
ATOM     17  C   UNL     1      33.174 -12.504 -26.704  0.00  0.00    +0.086 C 
ATOM     18  C   UNL     1      34.352 -12.689 -27.646  0.00  0.00    +0.010 C 
ENDBRANCH  10  17
ENDBRANCH   2   9
BRANCH   2  19
ATOM     19  C   UNL     1      32.099 -13.733 -22.316  0.00  0.00    +0.160 C 
BRANCH  19  20
ATOM     20  O   UNL     1      32.503 -13.397 -21.004  0.00  0.00    -0.349 OA
ATOM     21  C   UNL     1      31.723 -12.333 -20.466  0.00  0.00    +0.174 C 
ENDBRANCH  19  20
ENDBRANCH   2  19
BRANCH   1  22
ATOM     22  C   UNL     1      35.207 -17.175 -20.821  0.00  0.00    -0.072 C 
BRANCH  22  23
ATOM     23  C   UNL     1      35.563 -18.520 -21.455  0.00  0.00    +0.010 C 
BRANCH  23  25
ATOM     24  S   UNL     1      35.796 -20.861 -19.965  0.00  0.00    -0.091 S 
ATOM     25  C   UNL     1      34.865 -19.659 -20.753  0.00  0.00    +0.005 C 
ATOM     26  C   UNL     1      33.513 -19.898 -20.643  0.00  0.00    +0.003 C 
ATOM     27  C   UNL     1      33.238 -21.083 -19.900  0.00  0.00    +0.007 C 
ATOM     28  C   UNL     1      34.389 -21.705 -19.472  0.00  0.00    +0.035 C 
ENDBRANCH  23  25
ENDBRANCH  22  23
ENDBRANCH   1  22
TORSDOF 8
ENDMDL
MODEL 7
REMARK VINA RESULT:      -7.9      3.469      5.496
REMARK  Name = 41693
REMARK  8 active torsions:
REMARK  status: ('A' for Active; 'I' for Inactive)
REMARK    1  A    between atoms: N_1  and  C_22
REMARK    2  A    between atoms: C_2  and  N_9
REMARK    3  A    between atoms: C_2  and  C_19
REMARK    4  A    between atoms: N_9  and  C_11
REMARK    5  A    between atoms: C_10  and  C_17
REMARK    6  A    between atoms: C_19  and  O_20
REMARK    7  A    between atoms: C_22  and  C_23
REMARK    8  A    between atoms: C_23  and  C_25
REMARK                            x       y       z     vdW  Elec       q    Type
REMARK                         _______ _______ _______ _____ _____    ______ ____
ROOT
ATOM      1  N   UNL     1      35.497 -19.699 -20.357  0.00  0.00    +0.387 N 
ATOM      2  C   UNL     1      34.931 -18.036 -22.742  0.00  0.00    +0.088 C 
ATOM      3  C   UNL     1      36.071 -17.736 -21.749  0.00  0.00    -0.002 C 
ATOM      4  C   UNL     1      33.865 -18.890 -22.031  0.00  0.00    -0.002 C 
ATOM      5  C   UNL     1      36.588 -18.987 -21.034  0.00  0.00    -0.076 C 
ATOM      6  C   UNL     1      34.454 -20.105 -21.307  0.00  0.00    -0.076 C 
ATOM      7  H   UNL     1      35.076 -19.059 -19.684  0.00  0.00    -0.080 HD
ENDROOT
BRANCH   2   9
ATOM      8  O   UNL     1      34.599 -17.087 -25.495  0.00  0.00    -0.275 OA
ATOM      9  N   UNL     1      34.330 -16.782 -23.169  0.00  0.00    -0.260 N 
ATOM     10  C   UNL     1      34.215 -16.412 -24.536  0.00  0.00    +0.229 C 
BRANCH   9  11
ATOM     11  C   UNL     1      33.825 -15.868 -22.154  0.00  0.00    +0.054 C 
ATOM     12  C   UNL     1      34.435 -14.628 -21.964  0.00  0.00    +0.015 C 
ATOM     13  C   UNL     1      32.729 -16.232 -21.371  0.00  0.00    +0.015 C 
ATOM     14  C   UNL     1      33.950 -13.753 -20.993  0.00  0.00    +0.001 C 
ATOM     15  C   UNL     1      32.244 -15.358 -20.399  0.00  0.00    +0.001 C 
ATOM     16  C   UNL     1      32.855 -14.118 -20.209  0.00  0.00    +0.000 C 
ENDBRANCH   9  11
BRANCH  10  17
ATOM     17  C   UNL     1      33.599 -15.040 -24.792  0.00  0.00    +0.086 C 
ATOM     18  C   UNL     1      32.947 -14.932 -26.161  0.00  0.00    +0.010 C 
ENDBRANCH  10  17
ENDBRANCH   2   9
BRANCH   2  19
ATOM     19  C   UNL     1      35.466 -18.752 -23.992  0.00  0.00    +0.160 C 
BRANCH  19  20
ATOM     20  O   UNL     1      34.575 -19.801 -24.316  0.00  0.00    -0.349 OA
ATOM     21  C   UNL     1      35.096 -20.639 -25.344  0.00  0.00    +0.174 C 
ENDBRANCH  19  20
ENDBRANCH   2  19
BRANCH   1  22
ATOM     22  C   UNL     1      36.014 -20.863 -19.635  0.00  0.00    -0.072 C 
BRANCH  22  23
ATOM     23  C   UNL     1      34.909 -21.892 -19.392  0.00  0.00    +0.010 C 
BRANCH  23  25
ATOM     24  S   UNL     1      33.571 -23.219 -17.342  0.00  0.00    -0.091 S 
ATOM     25  C   UNL     1      34.938 -22.403 -17.972  0.00  0.00    +0.005 C 
ATOM     26  C   UNL     1      35.955 -22.307 -17.048  0.00  0.00    +0.003 C 
ATOM     27  C   UNL     1      35.607 -22.913 -15.806  0.00  0.00    +0.007 C 
ATOM     28  C   UNL     1      34.338 -23.447 -15.827  0.00  0.00    +0.035 C 
ENDBRANCH  23  25
ENDBRANCH  22  23
ENDBRANCH   1  22
TORSDOF 8
ENDMDL
MODEL 8
REMARK VINA RESULT:      -7.8      2.119      4.380
REMARK  Name = 41693
REMARK  8 active torsions:
REMARK  status: ('A' for Active; 'I' for Inactive)
REMARK    1  A    between atoms: N_1  and  C_22
REMARK    2  A    between atoms: C_2  and  N_9
REMARK    3  A    between atoms: C_2  and  C_19
REMARK    4  A    between atoms: N_9  and  C_11
REMARK    5  A    between atoms: C_10  and  C_17
REMARK    6  A    between atoms: C_19  and  O_20
REMARK    7  A    between atoms: C_22  and  C_23
REMARK    8  A    between atoms: C_23  and  C_25
REMARK                            x       y       z     vdW  Elec       q    Type
REMARK                         _______ _______ _______ _____ _____    ______ ____
ROOT
ATOM      1  N   UNL     1      33.789 -13.643 -24.002  0.00  0.00    +0.387 N 
ATOM      2  C   UNL     1      32.975 -10.858 -23.405  0.00  0.00    +0.088 C 
ATOM      3  C   UNL     1      33.146 -11.405 -24.836  0.00  0.00    -0.002 C 
ATOM      4  C   UNL     1      33.807 -11.724 -22.440  0.00  0.00    -0.002 C 
ATOM      5  C   UNL     1      32.917 -12.916 -24.932  0.00  0.00    -0.076 C 
ATOM      6  C   UNL     1      33.556 -13.225 -22.614  0.00  0.00    -0.076 C 
ATOM      7  H   UNL     1      34.756 -13.418 -24.238  0.00  0.00    -0.080 HD
ENDROOT
BRANCH   2   9
ATOM      8  O   UNL     1      35.391  -9.803 -24.685  0.00  0.00    -0.275 OA
ATOM      9  N   UNL     1      33.463  -9.489 -23.358  0.00  0.00    -0.260 N 
ATOM     10  C   UNL     1      34.653  -9.075 -24.016  0.00  0.00    +0.229 C 
BRANCH   9  11
ATOM     11  C   UNL     1      32.702  -8.501 -22.607  0.00  0.00    +0.054 C 
ATOM     12  C   UNL     1      31.716  -7.747 -23.243  0.00  0.00    +0.015 C 
ATOM     13  C   UNL     1      32.958  -8.308 -21.249  0.00  0.00    +0.015 C 
ATOM     14  C   UNL     1      30.986  -6.802 -22.524  0.00  0.00    +0.001 C 
ATOM     15  C   UNL     1      32.229  -7.363 -20.528  0.00  0.00    +0.001 C 
ATOM     16  C   UNL     1      31.242  -6.609 -21.166  0.00  0.00    +0.000 C 
ENDBRANCH   9  11
BRANCH  10  17
ATOM     17  C   UNL     1      35.034  -7.611 -23.818  0.00  0.00    +0.086 C 
ATOM     18  C   UNL     1      34.653  -6.736 -25.002  0.00  0.00    +0.010 C 
ENDBRANCH  10  17
ENDBRANCH   2   9
BRANCH   2  19
ATOM     19  C   UNL     1      31.494 -10.844 -22.995  0.00  0.00    +0.160 C 
BRANCH  19  20
ATOM     20  O   UNL     1      31.330 -11.723 -21.901  0.00  0.00    -0.349 OA
ATOM     21  C   UNL     1      30.597 -11.118 -20.840  0.00  0.00    +0.174 C 
ENDBRANCH  19  20
ENDBRANCH   2  19
BRANCH   1  22
ATOM     22  C   UNL     1      33.598 -15.087 -24.141  0.00  0.00    -0.072 C 
BRANCH  22  23
ATOM     23  C   UNL     1      34.922 -15.835 -23.976  0.00  0.00    +0.010 C 
BRANCH  23  25
ATOM     24  S   UNL     1      34.426 -16.907 -21.455  0.00  0.00    -0.091 S 
ATOM     25  C   UNL     1      34.751 -17.072 -23.128  0.00  0.00    +0.005 C 
ATOM     26  C   UNL     1      34.823 -18.392 -23.514  0.00  0.00    +0.003 C 
ATOM     27  C   UNL     1      34.606 -19.281 -22.421  0.00  0.00    +0.007 C 
ATOM     28  C   UNL     1      34.379 -18.607 -21.242  0.00  0.00    +0.035 C 
ENDBRANCH  23  25
ENDBRANCH  22  23
ENDBRANCH   1  22
TORSDOF 8
ENDMDL
MODEL 9
REMARK VINA RESULT:      -7.7      7.159     13.577
REMARK  Name = 41693
REMARK  8 active torsions:
REMARK  status: ('A' for Active; 'I' for Inactive)
REMARK    1  A    between atoms: N_1  and  C_22
REMARK    2  A    between atoms: C_2  and  N_9
REMARK    3  A    between atoms: C_2  and  C_19
REMARK    4  A    between atoms: N_9  and  C_11
REMARK    5  A    between atoms: C_10  and  C_17
REMARK    6  A    between atoms: C_19  and  O_20
REMARK    7  A    between atoms: C_22  and  C_23
REMARK    8  A    between atoms: C_23  and  C_25
REMARK                            x       y       z     vdW  Elec       q    Type
REMARK                         _______ _______ _______ _____ _____    ______ ____
ROOT
ATOM      1  N   UNL     1      34.895 -22.745 -18.251  0.00  0.00    +0.387 N 
ATOM      2  C   UNL     1      35.147 -23.616 -15.431  0.00  0.00    +0.088 C 
ATOM      3  C   UNL     1      36.187 -22.728 -16.140  0.00  0.00    -0.002 C 
ATOM      4  C   UNL     1      34.356 -24.402 -16.494  0.00  0.00    -0.002 C 
ATOM      5  C   UNL     1      35.587 -21.893 -17.275  0.00  0.00    -0.076 C 
ATOM      6  C   UNL     1      33.815 -23.512 -17.618  0.00  0.00    -0.076 C 
ATOM      7  H   UNL     1      35.574 -23.409 -18.623  0.00  0.00    -0.080 HD
ENDROOT
BRANCH   2   9
ATOM      8  O   UNL     1      36.025 -26.329 -16.110  0.00  0.00    -0.275 OA
ATOM      9  N   UNL     1      35.838 -24.556 -14.561  0.00  0.00    -0.260 N 
ATOM     10  C   UNL     1      36.223 -25.855 -14.988  0.00  0.00    +0.229 C 
BRANCH   9  11
ATOM     11  C   UNL     1      36.149 -24.148 -13.198  0.00  0.00    +0.054 C 
ATOM     12  C   UNL     1      37.196 -23.259 -12.957  0.00  0.00    +0.015 C 
ATOM     13  C   UNL     1      35.399 -24.646 -12.133  0.00  0.00    +0.015 C 
ATOM     14  C   UNL     1      37.493 -22.867 -11.653  0.00  0.00    +0.001 C 
ATOM     15  C   UNL     1      35.695 -24.255 -10.828  0.00  0.00    +0.001 C 
ATOM     16  C   UNL     1      36.743 -23.366 -10.587  0.00  0.00    +0.000 C 
ENDBRANCH   9  11
BRANCH  10  17
ATOM     17  C   UNL     1      36.898 -26.718 -13.926  0.00  0.00    +0.086 C 
ATOM     18  C   UNL     1      38.410 -26.560 -13.910  0.00  0.00    +0.010 C 
ENDBRANCH  10  17
ENDBRANCH   2   9
BRANCH   2  19
ATOM     19  C   UNL     1      34.206 -22.772 -14.557  0.00  0.00    +0.160 C 
BRANCH  19  20
ATOM     20  O   UNL     1      33.044 -23.532 -14.294  0.00  0.00    -0.349 OA
ATOM     21  C   UNL     1      31.857 -22.766 -14.474  0.00  0.00    +0.174 C 
ENDBRANCH  19  20
ENDBRANCH   2  19
BRANCH   1  22
ATOM     22  C   UNL     1      34.373 -21.940 -19.355  0.00  0.00    -0.072 C 
BRANCH  22  23
ATOM     23  C   UNL     1      35.508 -21.420 -20.240  0.00  0.00    +0.010 C 
BRANCH  23  25
ATOM     24  S   UNL     1      33.631 -19.498 -20.972  0.00  0.00    -0.091 S 
ATOM     25  C   UNL     1      35.243 -20.007 -20.699  0.00  0.00    +0.005 C 
ATOM     26  C   UNL     1      36.152 -19.003 -20.949  0.00  0.00    +0.003 C 
ATOM     27  C   UNL     1      35.516 -17.799 -21.369  0.00  0.00    +0.007 C 
ATOM     28  C   UNL     1      34.146 -17.929 -21.425  0.00  0.00    +0.035 C 
ENDBRANCH  23  25
ENDBRANCH  22  23
ENDBRANCH   1  22
TORSDOF 8
ENDMDL
