MODEL 1
REMARK VINA RESULT:      -8.9      0.000      0.000
REMARK  Name = 14163672
REMARK  4 active torsions:
REMARK  status: ('A' for Active; 'I' for Inactive)
REMARK    1  A    between atoms: C_2  and  C_10
REMARK    2  A    between atoms: C_4  and  C_7
REMARK    3  A    between atoms: C_7  and  O_8
REMARK    4  A    between atoms: C_10  and  C_12
REMARK                            x       y       z     vdW  Elec       q    Type
REMARK                         _______ _______ _______ _____ _____    ______ ____
ROOT
ATOM      1  O   UNL     1      35.338 -20.549 -20.230  0.00  0.00    -0.451 OA
ATOM      2  C   UNL     1      34.799 -19.525 -20.902  0.00  0.00    +0.128 C 
ATOM      3  C   UNL     1      33.454 -19.511 -20.878  0.00  0.00    +0.037 C 
ATOM      4  C   UNL     1      34.277 -21.242 -19.739  0.00  0.00    +0.220 C 
ATOM      5  C   UNL     1      33.096 -20.644 -20.110  0.00  0.00    +0.047 C 
ENDROOT
BRANCH   4   7
ATOM      6  O   UNL     1      35.302 -22.482 -17.968  0.00  0.00    -0.242 OA
ATOM      7  C   UNL     1      34.543 -22.405 -18.963  0.00  0.00    +0.373 C 
BRANCH   7   8
ATOM      8  O   UNL     1      33.874 -23.523 -19.398  0.00  0.00    -0.475 OA
ATOM      9  H   UNL     1      33.129 -23.837 -18.924  0.00  0.00    +0.296 HD
ENDBRANCH   7   8
ENDBRANCH   4   7
BRANCH   2  10
ATOM     10  C   UNL     1      35.806 -18.598 -21.551  0.00  0.00    +0.092 C 
BRANCH  10  12
ATOM     11 CL   UNL     1      34.769 -15.769 -20.895  0.00  0.00    -0.083 Cl
ATOM     12  C   UNL     1      35.231 -17.787 -22.668  0.00  0.00    -0.004 C 
ATOM     13  C   UNL     1      34.740 -16.498 -22.460  0.00  0.00    +0.054 C 
ATOM     14  C   UNL     1      35.194 -18.350 -23.944  0.00  0.00    -0.003 C 
ATOM     15  C   UNL     1      34.211 -15.772 -23.526  0.00  0.00    +0.011 C 
ATOM     16  C   UNL     1      34.666 -17.623 -25.011  0.00  0.00    -0.000 C 
ATOM     17  C   UNL     1      34.174 -16.334 -24.802  0.00  0.00    +0.001 C 
ENDBRANCH  10  12
ENDBRANCH   2  10
TORSDOF 4
ENDMDL
MODEL 2
REMARK VINA RESULT:      -8.7      3.351      6.240
REMARK  Name = 14163672
REMARK  4 active torsions:
REMARK  status: ('A' for Active; 'I' for Inactive)
REMARK    1  A    between atoms: C_2  and  C_10
REMARK    2  A    between atoms: C_4  and  C_7
REMARK    3  A    between atoms: C_7  and  O_8
REMARK    4  A    between atoms: C_10  and  C_12
REMARK                            x       y       z     vdW  Elec       q    Type
REMARK                         _______ _______ _______ _____ _____    ______ ____
ROOT
ATOM      1  O   UNL     1      34.809 -17.031 -23.252  0.00  0.00    -0.451 OA
ATOM      2  C   UNL     1      35.179 -18.308 -23.089  0.00  0.00    +0.128 C 
ATOM      3  C   UNL     1      34.974 -19.074 -24.176  0.00  0.00    +0.037 C 
ATOM      4  C   UNL     1      34.335 -16.966 -24.524  0.00  0.00    +0.220 C 
ATOM      5  C   UNL     1      34.415 -18.195 -25.135  0.00  0.00    +0.047 C 
ENDROOT
BRANCH   4   7
ATOM      6  O   UNL     1      33.530 -14.725 -24.290  0.00  0.00    -0.242 OA
ATOM      7  C   UNL     1      33.862 -15.708 -24.993  0.00  0.00    +0.373 C 
BRANCH   7   8
ATOM      8  O   UNL     1      33.780 -15.624 -26.362  0.00  0.00    -0.475 OA
ATOM      9  H   UNL     1      33.067 -15.166 -26.762  0.00  0.00    +0.296 HD
ENDBRANCH   7   8
ENDBRANCH   4   7
BRANCH   2  10
ATOM     10  C   UNL     1      35.748 -18.629 -21.722  0.00  0.00    +0.092 C 
BRANCH  10  12
ATOM     11 CL   UNL     1      37.204 -20.850 -20.157  0.00  0.00    -0.083 Cl
ATOM     12  C   UNL     1      34.915 -19.598 -20.947  0.00  0.00    -0.004 C 
ATOM     13  C   UNL     1      35.492 -20.634 -20.211  0.00  0.00    +0.054 C 
ATOM     14  C   UNL     1      33.528 -19.449 -20.971  0.00  0.00    -0.003 C 
ATOM     15  C   UNL     1      34.684 -21.519 -19.499  0.00  0.00    +0.011 C 
ATOM     16  C   UNL     1      32.719 -20.334 -20.259  0.00  0.00    -0.000 C 
ATOM     17  C   UNL     1      33.297 -21.370 -19.524  0.00  0.00    +0.001 C 
ENDBRANCH  10  12
ENDBRANCH   2  10
TORSDOF 4
ENDMDL
MODEL 3
REMARK VINA RESULT:      -8.7      1.364      2.046
REMARK  Name = 14163672
REMARK  4 active torsions:
REMARK  status: ('A' for Active; 'I' for Inactive)
REMARK    1  A    between atoms: C_2  and  C_10
REMARK    2  A    between atoms: C_4  and  C_7
REMARK    3  A    between atoms: C_7  and  O_8
REMARK    4  A    between atoms: C_10  and  C_12
REMARK                            x       y       z     vdW  Elec       q    Type
REMARK                         _______ _______ _______ _____ _____    ______ ____
ROOT
ATOM      1  O   UNL     1      35.309 -20.418 -20.242  0.00  0.00    -0.451 OA
ATOM      2  C   UNL     1      34.730 -19.416 -20.915  0.00  0.00    +0.128 C 
ATOM      3  C   UNL     1      33.386 -19.481 -20.932  0.00  0.00    +0.037 C 
ATOM      4  C   UNL     1      34.276 -21.180 -19.794  0.00  0.00    +0.220 C 
ATOM      5  C   UNL     1      33.073 -20.646 -20.191  0.00  0.00    +0.047 C 
ENDROOT
BRANCH   4   7
ATOM      6  O   UNL     1      35.376 -22.401 -18.055  0.00  0.00    -0.242 OA
ATOM      7  C   UNL     1      34.588 -22.338 -19.028  0.00  0.00    +0.373 C 
BRANCH   7   8
ATOM      8  O   UNL     1      33.929 -23.469 -19.444  0.00  0.00    -0.475 OA
ATOM      9  H   UNL     1      34.318 -24.028 -20.087  0.00  0.00    +0.296 HD
ENDBRANCH   7   8
ENDBRANCH   4   7
BRANCH   2  10
ATOM     10  C   UNL     1      35.699 -18.421 -21.519  0.00  0.00    +0.092 C 
BRANCH  10  12
ATOM     11 CL   UNL     1      35.042 -17.715 -24.447  0.00  0.00    -0.083 Cl
ATOM     12  C   UNL     1      35.083 -17.087 -21.796  0.00  0.00    -0.004 C 
ATOM     13  C   UNL     1      34.754 -16.686 -23.091  0.00  0.00    +0.054 C 
ATOM     14  C   UNL     1      34.840 -16.234 -20.719  0.00  0.00    -0.003 C 
ATOM     15  C   UNL     1      34.181 -15.435 -23.310  0.00  0.00    +0.011 C 
ATOM     16  C   UNL     1      34.265 -14.981 -20.938  0.00  0.00    -0.000 C 
ATOM     17  C   UNL     1      33.937 -14.581 -22.234  0.00  0.00    +0.001 C 
ENDBRANCH  10  12
ENDBRANCH   2  10
TORSDOF 4
ENDMDL
MODEL 4
REMARK VINA RESULT:      -8.5      5.501      7.821
REMARK  Name = 14163672
REMARK  4 active torsions:
REMARK  status: ('A' for Active; 'I' for Inactive)
REMARK    1  A    between atoms: C_2  and  C_10
REMARK    2  A    between atoms: C_4  and  C_7
REMARK    3  A    between atoms: C_7  and  O_8
REMARK    4  A    between atoms: C_10  and  C_12
REMARK                            x       y       z     vdW  Elec       q    Type
REMARK                         _______ _______ _______ _____ _____    ______ ____
ROOT
ATOM      1  O   UNL     1      38.220 -23.828 -15.178  0.00  0.00    -0.451 OA
ATOM      2  C   UNL     1      36.886 -23.944 -15.147  0.00  0.00    +0.128 C 
ATOM      3  C   UNL     1      36.456 -25.201 -14.939  0.00  0.00    +0.037 C 
ATOM      4  C   UNL     1      38.683 -25.089 -14.976  0.00  0.00    +0.220 C 
ATOM      5  C   UNL     1      37.639 -25.971 -14.824  0.00  0.00    +0.047 C 
ENDROOT
BRANCH   4   7
ATOM      6  O   UNL     1      40.896 -24.838 -14.101  0.00  0.00    -0.242 OA
ATOM      7  C   UNL     1      40.093 -25.284 -14.954  0.00  0.00    +0.373 C 
BRANCH   7   8
ATOM      8  O   UNL     1      40.562 -26.044 -15.998  0.00  0.00    -0.475 OA
ATOM      9  H   UNL     1      41.405 -25.865 -16.367  0.00  0.00    +0.296 HD
ENDBRANCH   7   8
ENDBRANCH   4   7
BRANCH   2  10
ATOM     10  C   UNL     1      36.137 -22.643 -15.354  0.00  0.00    +0.092 C 
BRANCH  10  12
ATOM     11 CL   UNL     1      33.343 -23.495 -16.341  0.00  0.00    -0.083 Cl
ATOM     12  C   UNL     1      35.790 -22.380 -16.785  0.00  0.00    -0.004 C 
ATOM     13  C   UNL     1      34.548 -22.733 -17.314  0.00  0.00    +0.054 C 
ATOM     14  C   UNL     1      36.745 -21.766 -17.596  0.00  0.00    -0.003 C 
ATOM     15  C   UNL     1      34.261 -22.472 -18.653  0.00  0.00    +0.011 C 
ATOM     16  C   UNL     1      36.457 -21.504 -18.935  0.00  0.00    -0.000 C 
ATOM     17  C   UNL     1      35.215 -21.858 -19.464  0.00  0.00    +0.001 C 
ENDBRANCH  10  12
ENDBRANCH   2  10
TORSDOF 4
ENDMDL
MODEL 5
REMARK VINA RESULT:      -8.4      3.296      6.142
REMARK  Name = 14163672
REMARK  4 active torsions:
REMARK  status: ('A' for Active; 'I' for Inactive)
REMARK    1  A    between atoms: C_2  and  C_10
REMARK    2  A    between atoms: C_4  and  C_7
REMARK    3  A    between atoms: C_7  and  O_8
REMARK    4  A    between atoms: C_10  and  C_12
REMARK                            x       y       z     vdW  Elec       q    Type
REMARK                         _______ _______ _______ _____ _____    ______ ____
ROOT
ATOM      1  O   UNL     1      35.055 -17.451 -23.367  0.00  0.00    -0.451 OA
ATOM      2  C   UNL     1      35.280 -17.459 -22.046  0.00  0.00    +0.128 C 
ATOM      3  C   UNL     1      34.868 -16.342 -21.421  0.00  0.00    +0.037 C 
ATOM      4  C   UNL     1      34.461 -16.254 -23.612  0.00  0.00    +0.220 C 
ATOM      5  C   UNL     1      34.323 -15.535 -22.448  0.00  0.00    +0.047 C 
ENDROOT
BRANCH   4   7
ATOM      6  O   UNL     1      33.350 -15.022 -25.336  0.00  0.00    -0.242 OA
ATOM      7  C   UNL     1      34.095 -15.955 -24.955  0.00  0.00    +0.373 C 
BRANCH   7   8
ATOM      8  O   UNL     1      34.643 -16.811 -25.879  0.00  0.00    -0.475 OA
ATOM      9  H   UNL     1      35.478 -17.204 -25.716  0.00  0.00    +0.296 HD
ENDBRANCH   7   8
ENDBRANCH   4   7
BRANCH   2  10
ATOM     10  C   UNL     1      35.949 -18.716 -21.530  0.00  0.00    +0.092 C 
BRANCH  10  12
ATOM     11 CL   UNL     1      37.149 -21.047 -19.908  0.00  0.00    -0.083 Cl
ATOM     12  C   UNL     1      35.004 -19.654 -20.849  0.00  0.00    -0.004 C 
ATOM     13  C   UNL     1      35.462 -20.735 -20.095  0.00  0.00    +0.054 C 
ATOM     14  C   UNL     1      33.634 -19.427 -20.982  0.00  0.00    -0.003 C 
ATOM     15  C   UNL     1      34.551 -21.588 -19.474  0.00  0.00    +0.011 C 
ATOM     16  C   UNL     1      32.722 -20.280 -20.360  0.00  0.00    -0.000 C 
ATOM     17  C   UNL     1      33.180 -21.361 -19.607  0.00  0.00    +0.001 C 
ENDBRANCH  10  12
ENDBRANCH   2  10
TORSDOF 4
ENDMDL
MODEL 6
REMARK VINA RESULT:      -8.1      3.386      6.255
REMARK  Name = 14163672
REMARK  4 active torsions:
REMARK  status: ('A' for Active; 'I' for Inactive)
REMARK    1  A    between atoms: C_2  and  C_10
REMARK    2  A    between atoms: C_4  and  C_7
REMARK    3  A    between atoms: C_7  and  O_8
REMARK    4  A    between atoms: C_10  and  C_12
REMARK                            x       y       z     vdW  Elec       q    Type
REMARK                         _______ _______ _______ _____ _____    ______ ____
ROOT
ATOM      1  O   UNL     1      34.374 -16.543 -23.117  0.00  0.00    -0.451 OA
ATOM      2  C   UNL     1      34.908 -17.702 -22.708  0.00  0.00    +0.128 C 
ATOM      3  C   UNL     1      35.126 -18.578 -23.705  0.00  0.00    +0.037 C 
ATOM      4  C   UNL     1      34.239 -16.677 -24.462  0.00  0.00    +0.220 C 
ATOM      5  C   UNL     1      34.687 -17.910 -24.874  0.00  0.00    +0.047 C 
ENDROOT
BRANCH   4   7
ATOM      6  O   UNL     1      33.320 -14.482 -24.714  0.00  0.00    -0.242 OA
ATOM      7  C   UNL     1      33.689 -15.583 -25.188  0.00  0.00    +0.373 C 
BRANCH   7   8
ATOM      8  O   UNL     1      33.576 -15.816 -26.536  0.00  0.00    -0.475 OA
ATOM      9  H   UNL     1      34.202 -15.450 -27.130  0.00  0.00    +0.296 HD
ENDBRANCH   7   8
ENDBRANCH   4   7
BRANCH   2  10
ATOM     10  C   UNL     1      35.153 -17.790 -21.216  0.00  0.00    +0.092 C 
BRANCH  10  12
ATOM     11 CL   UNL     1      32.516 -19.307 -20.724  0.00  0.00    -0.083 Cl
ATOM     12  C   UNL     1      35.238 -19.194 -20.711  0.00  0.00    -0.004 C 
ATOM     13  C   UNL     1      34.094 -19.953 -20.462  0.00  0.00    +0.054 C 
ATOM     14  C   UNL     1      36.502 -19.744 -20.489  0.00  0.00    -0.003 C 
ATOM     15  C   UNL     1      34.213 -21.261 -19.992  0.00  0.00    +0.011 C 
ATOM     16  C   UNL     1      36.621 -21.052 -20.020  0.00  0.00    -0.000 C 
ATOM     17  C   UNL     1      35.476 -21.810 -19.770  0.00  0.00    +0.001 C 
ENDBRANCH  10  12
ENDBRANCH   2  10
TORSDOF 4
ENDMDL
MODEL 7
REMARK VINA RESULT:      -8.1      1.676      2.401
REMARK  Name = 14163672
REMARK  4 active torsions:
REMARK  status: ('A' for Active; 'I' for Inactive)
REMARK    1  A    between atoms: C_2  and  C_10
REMARK    2  A    between atoms: C_4  and  C_7
REMARK    3  A    between atoms: C_7  and  O_8
REMARK    4  A    between atoms: C_10  and  C_12
REMARK                            x       y       z     vdW  Elec       q    Type
REMARK                         _______ _______ _______ _____ _____    ______ ____
ROOT
ATOM      1  O   UNL     1      34.307 -20.646 -20.704  0.00  0.00    -0.451 OA
ATOM      2  C   UNL     1      35.210 -19.848 -21.288  0.00  0.00    +0.128 C 
ATOM      3  C   UNL     1      36.418 -19.876 -20.698  0.00  0.00    +0.037 C 
ATOM      4  C   UNL     1      34.972 -21.228 -19.672  0.00  0.00    +0.220 C 
ATOM      5  C   UNL     1      36.273 -20.788 -19.625  0.00  0.00    +0.047 C 
ENDROOT
BRANCH   4   7
ATOM      6  O   UNL     1      34.739 -22.890 -17.967  0.00  0.00    -0.242 OA
ATOM      7  C   UNL     1      34.256 -22.148 -18.854  0.00  0.00    +0.373 C 
BRANCH   7   8
ATOM      8  O   UNL     1      32.908 -22.181 -19.110  0.00  0.00    -0.475 OA
ATOM      9  H   UNL     1      32.312 -21.726 -18.546  0.00  0.00    +0.296 HD
ENDBRANCH   7   8
ENDBRANCH   4   7
BRANCH   2  10
ATOM     10  C   UNL     1      34.689 -19.079 -22.485  0.00  0.00    +0.092 C 
BRANCH  10  12
ATOM     11 CL   UNL     1      34.829 -17.252 -24.965  0.00  0.00    -0.083 Cl
ATOM     12  C   UNL     1      34.649 -17.600 -22.268  0.00  0.00    -0.004 C 
ATOM     13  C   UNL     1      34.708 -16.701 -23.334  0.00  0.00    +0.054 C 
ATOM     14  C   UNL     1      34.552 -17.125 -20.960  0.00  0.00    -0.003 C 
ATOM     15  C   UNL     1      34.667 -15.329 -23.092  0.00  0.00    +0.011 C 
ATOM     16  C   UNL     1      34.511 -15.752 -20.718  0.00  0.00    -0.000 C 
ATOM     17  C   UNL     1      34.570 -14.854 -21.784  0.00  0.00    +0.001 C 
ENDBRANCH  10  12
ENDBRANCH   2  10
TORSDOF 4
ENDMDL
MODEL 8
REMARK VINA RESULT:      -7.9      3.735      6.400
REMARK  Name = 14163672
REMARK  4 active torsions:
REMARK  status: ('A' for Active; 'I' for Inactive)
REMARK    1  A    between atoms: C_2  and  C_10
REMARK    2  A    between atoms: C_4  and  C_7
REMARK    3  A    between atoms: C_7  and  O_8
REMARK    4  A    between atoms: C_10  and  C_12
REMARK                            x       y       z     vdW  Elec       q    Type
REMARK                         _______ _______ _______ _____ _____    ______ ____
ROOT
ATOM      1  O   UNL     1      33.970 -15.921 -22.723  0.00  0.00    -0.451 OA
ATOM      2  C   UNL     1      34.472 -16.802 -21.848  0.00  0.00    +0.128 C 
ATOM      3  C   UNL     1      34.729 -16.276 -20.638  0.00  0.00    +0.037 C 
ATOM      4  C   UNL     1      33.898 -14.751 -22.037  0.00  0.00    +0.220 C 
ATOM      5  C   UNL     1      34.353 -14.915 -20.750  0.00  0.00    +0.047 C 
ENDROOT
BRANCH   4   7
ATOM      6  O   UNL     1      32.301 -13.030 -22.499  0.00  0.00    -0.242 OA
ATOM      7  C   UNL     1      33.391 -13.609 -22.720  0.00  0.00    +0.373 C 
BRANCH   7   8
ATOM      8  O   UNL     1      34.223 -13.142 -23.708  0.00  0.00    -0.475 OA
ATOM      9  H   UNL     1      35.045 -13.563 -23.865  0.00  0.00    +0.296 HD
ENDBRANCH   7   8
ENDBRANCH   4   7
BRANCH   2  10
ATOM     10  C   UNL     1      34.648 -18.203 -22.397  0.00  0.00    +0.092 C 
BRANCH  10  12
ATOM     11 CL   UNL     1      32.624 -20.061 -20.999  0.00  0.00    -0.083 Cl
ATOM     12  C   UNL     1      35.171 -19.174 -21.388  0.00  0.00    -0.004 C 
ATOM     13  C   UNL     1      34.325 -20.051 -20.708  0.00  0.00    +0.054 C 
ATOM     14  C   UNL     1      36.543 -19.188 -21.131  0.00  0.00    -0.003 C 
ATOM     15  C   UNL     1      34.850 -20.942 -19.773  0.00  0.00    +0.011 C 
ATOM     16  C   UNL     1      37.068 -20.080 -20.196  0.00  0.00    -0.000 C 
ATOM     17  C   UNL     1      36.221 -20.957 -19.516  0.00  0.00    +0.001 C 
ENDBRANCH  10  12
ENDBRANCH   2  10
TORSDOF 4
ENDMDL
MODEL 9
REMARK VINA RESULT:      -7.9      3.197      5.112
REMARK  Name = 14163672
REMARK  4 active torsions:
REMARK  status: ('A' for Active; 'I' for Inactive)
REMARK    1  A    between atoms: C_2  and  C_10
REMARK    2  A    between atoms: C_4  and  C_7
REMARK    3  A    between atoms: C_7  and  O_8
REMARK    4  A    between atoms: C_10  and  C_12
REMARK                            x       y       z     vdW  Elec       q    Type
REMARK                         _______ _______ _______ _____ _____    ______ ____
ROOT
ATOM      1  O   UNL     1      32.218 -22.979 -17.843  0.00  0.00    -0.451 OA
ATOM      2  C   UNL     1      33.557 -22.992 -17.852  0.00  0.00    +0.128 C 
ATOM      3  C   UNL     1      34.104 -23.070 -16.626  0.00  0.00    +0.037 C 
ATOM      4  C   UNL     1      31.876 -23.055 -16.530  0.00  0.00    +0.220 C 
ATOM      5  C   UNL     1      33.000 -23.113 -15.740  0.00  0.00    +0.047 C 
ENDROOT
BRANCH   4   7
ATOM      6  O   UNL     1      29.957 -23.650 -15.232  0.00  0.00    -0.242 OA
ATOM      7  C   UNL     1      30.491 -23.063 -16.202  0.00  0.00    +0.373 C 
BRANCH   7   8
ATOM      8  O   UNL     1      29.713 -22.340 -17.073  0.00  0.00    -0.475 OA
ATOM      9  H   UNL     1      29.842 -21.416 -17.159  0.00  0.00    +0.296 HD
ENDBRANCH   7   8
ENDBRANCH   4   7
BRANCH   2  10
ATOM     10  C   UNL     1      34.178 -22.913 -19.231  0.00  0.00    +0.092 C 
BRANCH  10  12
ATOM     11 CL   UNL     1      36.841 -21.488 -19.846  0.00  0.00    -0.083 Cl
ATOM     12  C   UNL     1      34.117 -21.546 -19.832  0.00  0.00    -0.004 C 
ATOM     13  C   UNL     1      35.273 -20.829 -20.141  0.00  0.00    +0.054 C 
ATOM     14  C   UNL     1      32.863 -20.987 -20.082  0.00  0.00    -0.003 C 
ATOM     15  C   UNL     1      35.177 -19.556 -20.701  0.00  0.00    +0.011 C 
ATOM     16  C   UNL     1      32.766 -19.714 -20.642  0.00  0.00    -0.000 C 
ATOM     17  C   UNL     1      33.923 -18.997 -20.951  0.00  0.00    +0.001 C 
ENDBRANCH  10  12
ENDBRANCH   2  10
TORSDOF 4
ENDMDL
