MODEL 1
REMARK VINA RESULT:      -8.3      0.000      0.000
REMARK  Name = 2577
REMARK  5 active torsions:
REMARK  status: ('A' for Active; 'I' for Inactive)
REMARK    1  A    between atoms: N_5  and  C_15
REMARK    2  A    between atoms: C_15  and  C_16
REMARK    3  A    between atoms: C_16  and  C_17
REMARK    4  A    between atoms: C_17  and  C_18
REMARK    5  A    between atoms: C_18  and  C_19
REMARK                            x       y       z     vdW  Elec       q    Type
REMARK                         _______ _______ _______ _____ _____    ______ ____
ROOT
ATOM      1  F   UNL     1      33.249 -24.666 -13.110  0.00  0.00    -0.198 F 
ATOM      2  O   UNL     1      34.660 -23.170 -17.548  0.00  0.00    -0.252 OA
ATOM      3  O   UNL     1      30.556 -22.345 -17.181  0.00  0.00    -0.251 OA
ATOM      4  O   UNL     1      30.594 -24.126 -12.944  0.00  0.00    -0.267 OA
ATOM      5  N   UNL     1      32.795 -22.333 -18.590  0.00  0.00    -0.288 N 
ATOM      6  N   UNL     1      32.613 -23.192 -16.379  0.00  0.00    -0.173 N 
ATOM      7  N   UNL     1      30.599 -23.248 -15.087  0.00  0.00    -0.233 N 
ATOM      8  C   UNL     1      33.451 -22.919 -17.512  0.00  0.00    +0.315 C 
ATOM      9  C   UNL     1      31.219 -22.889 -16.294  0.00  0.00    +0.321 C 
ATOM     10  C   UNL     1      33.240 -23.780 -15.280  0.00  0.00    +0.112 C 
ATOM     11  C   UNL     1      32.613 -24.095 -14.150  0.00  0.00    +0.209 C 
ATOM     12  C   UNL     1      31.183 -23.837 -13.979  0.00  0.00    +0.282 C 
ATOM     13  H   UNL     1      31.830 -22.151 -18.516  0.00  0.00    +0.151 HD
ATOM     14  H   UNL     1      29.635 -23.057 -15.021  0.00  0.00    +0.159 HD
ENDROOT
BRANCH   5  15
ATOM     15  C   UNL     1      33.478 -21.981 -19.814  0.00  0.00    +0.091 C 
BRANCH  15  16
ATOM     16  C   UNL     1      33.265 -20.523 -20.207  0.00  0.00    +0.021 C 
BRANCH  16  17
ATOM     17  C   UNL     1      34.569 -19.826 -20.607  0.00  0.00    +0.002 C 
BRANCH  17  18
ATOM     18  C   UNL     1      34.313 -18.727 -21.642  0.00  0.00    +0.000 C 
BRANCH  18  19
ATOM     19  C   UNL     1      35.303 -18.749 -22.809  0.00  0.00    +0.000 C 
ATOM     20  C   UNL     1      34.651 -19.033 -24.154  0.00  0.00    +0.000 C 
ENDBRANCH  18  19
ENDBRANCH  17  18
ENDBRANCH  16  17
ENDBRANCH  15  16
ENDBRANCH   5  15
TORSDOF 5
ENDMDL
MODEL 2
REMARK VINA RESULT:      -8.2      7.138     10.520
REMARK  Name = 2577
REMARK  5 active torsions:
REMARK  status: ('A' for Active; 'I' for Inactive)
REMARK    1  A    between atoms: N_5  and  C_15
REMARK    2  A    between atoms: C_15  and  C_16
REMARK    3  A    between atoms: C_16  and  C_17
REMARK    4  A    between atoms: C_17  and  C_18
REMARK    5  A    between atoms: C_18  and  C_19
REMARK                            x       y       z     vdW  Elec       q    Type
REMARK                         _______ _______ _______ _____ _____    ______ ____
ROOT
ATOM      1  F   UNL     1      32.874 -12.530 -24.311  0.00  0.00    -0.198 F 
ATOM      2  O   UNL     1      34.981 -15.913 -21.475  0.00  0.00    -0.252 OA
ATOM      3  O   UNL     1      34.566 -17.564 -25.317  0.00  0.00    -0.251 OA
ATOM      4  O   UNL     1      32.616 -13.661 -26.765  0.00  0.00    -0.267 OA
ATOM      5  N   UNL     1      35.308 -17.767 -22.786  0.00  0.00    -0.288 N 
ATOM      6  N   UNL     1      34.299 -15.830 -23.730  0.00  0.00    -0.173 N 
ATOM      7  N   UNL     1      33.587 -15.621 -26.006  0.00  0.00    -0.233 N 
ATOM      8  C   UNL     1      34.870 -16.463 -22.575  0.00  0.00    +0.315 C 
ATOM      9  C   UNL     1      34.183 -16.428 -25.023  0.00  0.00    +0.321 C 
ATOM     10  C   UNL     1      33.850 -14.521 -23.553  0.00  0.00    +0.112 C 
ATOM     11  C   UNL     1      33.299 -13.789 -24.518  0.00  0.00    +0.209 C 
ATOM     12  C   UNL     1      33.124 -14.325 -25.868  0.00  0.00    +0.282 C 
ATOM     13  H   UNL     1      35.200 -18.165 -23.680  0.00  0.00    +0.151 HD
ATOM     14  H   UNL     1      33.488 -16.027 -26.898  0.00  0.00    +0.159 HD
ENDROOT
BRANCH   5  15
ATOM     15  C   UNL     1      35.915 -18.558 -21.741  0.00  0.00    +0.091 C 
BRANCH  15  16
ATOM     16  C   UNL     1      35.102 -19.803 -21.399  0.00  0.00    +0.021 C 
BRANCH  16  17
ATOM     17  C   UNL     1      33.637 -19.479 -21.088  0.00  0.00    +0.002 C 
BRANCH  17  18
ATOM     18  C   UNL     1      33.058 -20.465 -20.069  0.00  0.00    +0.000 C 
BRANCH  18  19
ATOM     19  C   UNL     1      34.092 -21.456 -19.529  0.00  0.00    +0.000 C 
ATOM     20  C   UNL     1      33.501 -22.504 -18.598  0.00  0.00    +0.000 C 
ENDBRANCH  18  19
ENDBRANCH  17  18
ENDBRANCH  16  17
ENDBRANCH  15  16
ENDBRANCH   5  15
TORSDOF 5
ENDMDL
MODEL 3
REMARK VINA RESULT:      -8.1      6.935      9.702
REMARK  Name = 2577
REMARK  5 active torsions:
REMARK  status: ('A' for Active; 'I' for Inactive)
REMARK    1  A    between atoms: N_5  and  C_15
REMARK    2  A    between atoms: C_15  and  C_16
REMARK    3  A    between atoms: C_16  and  C_17
REMARK    4  A    between atoms: C_17  and  C_18
REMARK    5  A    between atoms: C_18  and  C_19
REMARK                            x       y       z     vdW  Elec       q    Type
REMARK                         _______ _______ _______ _____ _____    ______ ____
ROOT
ATOM      1  F   UNL     1      31.983 -12.455 -19.740  0.00  0.00    -0.198 F 
ATOM      2  O   UNL     1      34.771 -16.390 -20.557  0.00  0.00    -0.252 OA
ATOM      3  O   UNL     1      33.511 -14.936 -24.293  0.00  0.00    -0.251 OA
ATOM      4  O   UNL     1      31.187 -11.578 -22.183  0.00  0.00    -0.267 OA
ATOM      5  N   UNL     1      34.827 -16.704 -22.829  0.00  0.00    -0.288 N 
ATOM      6  N   UNL     1      33.581 -14.887 -21.929  0.00  0.00    -0.173 N 
ATOM      7  N   UNL     1      32.354 -13.288 -23.220  0.00  0.00    -0.233 N 
ATOM      8  C   UNL     1      34.420 -16.026 -21.684  0.00  0.00    +0.315 C 
ATOM      9  C   UNL     1      33.181 -14.423 -23.220  0.00  0.00    +0.321 C 
ATOM     10  C   UNL     1      33.155 -14.185 -20.801  0.00  0.00    +0.112 C 
ATOM     11  C   UNL     1      32.378 -13.107 -20.850  0.00  0.00    +0.209 C 
ATOM     12  C   UNL     1      31.905 -12.569 -22.126  0.00  0.00    +0.282 C 
ATOM     13  H   UNL     1      34.523 -16.377 -23.707  0.00  0.00    +0.151 HD
ATOM     14  H   UNL     1      32.059 -12.967 -24.103  0.00  0.00    +0.159 HD
ENDROOT
BRANCH   5  15
ATOM     15  C   UNL     1      35.679 -17.869 -22.777  0.00  0.00    +0.091 C 
BRANCH  15  16
ATOM     16  C   UNL     1      34.888 -19.173 -22.737  0.00  0.00    +0.021 C 
BRANCH  16  17
ATOM     17  C   UNL     1      34.772 -19.745 -21.320  0.00  0.00    +0.002 C 
BRANCH  17  18
ATOM     18  C   UNL     1      33.310 -19.805 -20.867  0.00  0.00    +0.000 C 
BRANCH  18  19
ATOM     19  C   UNL     1      33.054 -20.854 -19.783  0.00  0.00    +0.000 C 
ATOM     20  C   UNL     1      34.285 -21.674 -19.428  0.00  0.00    +0.000 C 
ENDBRANCH  18  19
ENDBRANCH  17  18
ENDBRANCH  16  17
ENDBRANCH  15  16
ENDBRANCH   5  15
TORSDOF 5
ENDMDL
MODEL 4
REMARK VINA RESULT:      -8.1      7.154      9.755
REMARK  Name = 2577
REMARK  5 active torsions:
REMARK  status: ('A' for Active; 'I' for Inactive)
REMARK    1  A    between atoms: N_5  and  C_15
REMARK    2  A    between atoms: C_15  and  C_16
REMARK    3  A    between atoms: C_16  and  C_17
REMARK    4  A    between atoms: C_17  and  C_18
REMARK    5  A    between atoms: C_18  and  C_19
REMARK                            x       y       z     vdW  Elec       q    Type
REMARK                         _______ _______ _______ _____ _____    ______ ____
ROOT
ATOM      1  F   UNL     1      35.017 -19.726 -23.176  0.00  0.00    -0.198 F 
ATOM      2  O   UNL     1      33.790 -15.262 -24.756  0.00  0.00    -0.252 OA
ATOM      3  O   UNL     1      34.801 -14.931 -20.690  0.00  0.00    -0.251 OA
ATOM      4  O   UNL     1      35.637 -19.448 -20.547  0.00  0.00    -0.267 OA
ATOM      5  N   UNL     1      33.972 -13.848 -22.957  0.00  0.00    -0.288 N 
ATOM      6  N   UNL     1      34.473 -16.159 -22.685  0.00  0.00    -0.173 N 
ATOM      7  N   UNL     1      35.195 -17.177 -20.643  0.00  0.00    -0.233 N 
ATOM      8  C   UNL     1      34.055 -15.101 -23.560  0.00  0.00    +0.315 C 
ATOM      9  C   UNL     1      34.814 -16.000 -21.306  0.00  0.00    +0.321 C 
ATOM     10  C   UNL     1      34.566 -17.427 -23.258  0.00  0.00    +0.112 C 
ATOM     11  C   UNL     1      34.942 -18.516 -22.591  0.00  0.00    +0.209 C 
ATOM     12  C   UNL     1      35.293 -18.452 -21.172  0.00  0.00    +0.282 C 
ATOM     13  H   UNL     1      34.193 -13.767 -22.002  0.00  0.00    +0.151 HD
ATOM     14  H   UNL     1      35.418 -17.084 -19.688  0.00  0.00    +0.159 HD
ENDROOT
BRANCH   5  15
ATOM     15  C   UNL     1      33.574 -12.665 -23.684  0.00  0.00    +0.091 C 
BRANCH  15  16
ATOM     16  C   UNL     1      32.682 -11.743 -22.859  0.00  0.00    +0.021 C 
BRANCH  16  17
ATOM     17  C   UNL     1      31.916 -12.492 -21.764  0.00  0.00    +0.002 C 
BRANCH  17  18
ATOM     18  C   UNL     1      30.969 -11.554 -21.011  0.00  0.00    +0.000 C 
BRANCH  18  19
ATOM     19  C   UNL     1      31.460 -11.195 -19.607  0.00  0.00    +0.000 C 
ATOM     20  C   UNL     1      31.889  -9.742 -19.466  0.00  0.00    +0.000 C 
ENDBRANCH  18  19
ENDBRANCH  17  18
ENDBRANCH  16  17
ENDBRANCH  15  16
ENDBRANCH   5  15
TORSDOF 5
ENDMDL
MODEL 5
REMARK VINA RESULT:      -8.1      8.586     11.111
REMARK  Name = 2577
REMARK  5 active torsions:
REMARK  status: ('A' for Active; 'I' for Inactive)
REMARK    1  A    between atoms: N_5  and  C_15
REMARK    2  A    between atoms: C_15  and  C_16
REMARK    3  A    between atoms: C_16  and  C_17
REMARK    4  A    between atoms: C_17  and  C_18
REMARK    5  A    between atoms: C_18  and  C_19
REMARK                            x       y       z     vdW  Elec       q    Type
REMARK                         _______ _______ _______ _____ _____    ______ ____
ROOT
ATOM      1  F   UNL     1      35.507 -18.918 -22.197  0.00  0.00    -0.198 F 
ATOM      2  O   UNL     1      34.584 -14.115 -22.262  0.00  0.00    -0.252 OA
ATOM      3  O   UNL     1      33.708 -15.623 -26.086  0.00  0.00    -0.251 OA
ATOM      4  O   UNL     1      34.943 -19.826 -24.693  0.00  0.00    -0.267 OA
ATOM      5  N   UNL     1      33.880 -13.603 -24.385  0.00  0.00    -0.288 N 
ATOM      6  N   UNL     1      34.454 -15.851 -23.852  0.00  0.00    -0.173 N 
ATOM      7  N   UNL     1      34.342 -17.696 -25.373  0.00  0.00    -0.233 N 
ATOM      8  C   UNL     1      34.328 -14.491 -23.410  0.00  0.00    +0.315 C 
ATOM      9  C   UNL     1      34.138 -16.322 -25.164  0.00  0.00    +0.321 C 
ATOM     10  C   UNL     1      34.901 -16.766 -22.900  0.00  0.00    +0.112 C 
ATOM     11  C   UNL     1      35.070 -18.063 -23.140  0.00  0.00    +0.209 C 
ATOM     12  C   UNL     1      34.789 -18.633 -24.458  0.00  0.00    +0.282 C 
ATOM     13  H   UNL     1      33.687 -13.948 -25.287  0.00  0.00    +0.151 HD
ATOM     14  H   UNL     1      34.141 -18.031 -26.277  0.00  0.00    +0.159 HD
ENDROOT
BRANCH   5  15
ATOM     15  C   UNL     1      33.687 -12.197 -24.121  0.00  0.00    +0.091 C 
BRANCH  15  16
ATOM     16  C   UNL     1      34.243 -11.310 -25.230  0.00  0.00    +0.021 C 
BRANCH  16  17
ATOM     17  C   UNL     1      34.855 -10.012 -24.693  0.00  0.00    +0.002 C 
BRANCH  17  18
ATOM     18  C   UNL     1      33.943  -9.363 -23.648  0.00  0.00    +0.000 C 
BRANCH  18  19
ATOM     19  C   UNL     1      34.353  -7.932 -23.290  0.00  0.00    +0.000 C 
ATOM     20  C   UNL     1      34.541  -7.033 -24.502  0.00  0.00    +0.000 C 
ENDBRANCH  18  19
ENDBRANCH  17  18
ENDBRANCH  16  17
ENDBRANCH  15  16
ENDBRANCH   5  15
TORSDOF 5
ENDMDL
MODEL 6
REMARK VINA RESULT:      -8.0      7.669     10.406
REMARK  Name = 2577
REMARK  5 active torsions:
REMARK  status: ('A' for Active; 'I' for Inactive)
REMARK    1  A    between atoms: N_5  and  C_15
REMARK    2  A    between atoms: C_15  and  C_16
REMARK    3  A    between atoms: C_16  and  C_17
REMARK    4  A    between atoms: C_17  and  C_18
REMARK    5  A    between atoms: C_18  and  C_19
REMARK                            x       y       z     vdW  Elec       q    Type
REMARK                         _______ _______ _______ _____ _____    ______ ____
ROOT
ATOM      1  F   UNL     1      35.323 -19.567 -22.935  0.00  0.00    -0.198 F 
ATOM      2  O   UNL     1      33.648 -16.330 -26.197  0.00  0.00    -0.252 OA
ATOM      3  O   UNL     1      34.305 -14.270 -22.593  0.00  0.00    -0.251 OA
ATOM      4  O   UNL     1      35.706 -18.183 -20.631  0.00  0.00    -0.267 OA
ATOM      5  N   UNL     1      33.513 -14.309 -25.117  0.00  0.00    -0.288 N 
ATOM      6  N   UNL     1      34.287 -16.221 -23.930  0.00  0.00    -0.173 N 
ATOM      7  N   UNL     1      34.981 -16.229 -21.639  0.00  0.00    -0.233 N 
ATOM      8  C   UNL     1      33.801 -15.671 -25.163  0.00  0.00    +0.315 C 
ATOM      9  C   UNL     1      34.501 -15.481 -22.727  0.00  0.00    +0.321 C 
ATOM     10  C   UNL     1      34.586 -17.584 -23.942  0.00  0.00    +0.112 C 
ATOM     11  C   UNL     1      35.049 -18.251 -22.888  0.00  0.00    +0.209 C 
ATOM     12  C   UNL     1      35.283 -17.579 -21.609  0.00  0.00    +0.282 C 
ATOM     13  H   UNL     1      33.650 -13.825 -24.272  0.00  0.00    +0.151 HD
ATOM     14  H   UNL     1      35.120 -15.733 -20.800  0.00  0.00    +0.159 HD
ENDROOT
BRANCH   5  15
ATOM     15  C   UNL     1      33.020 -13.583 -26.264  0.00  0.00    +0.091 C 
BRANCH  15  16
ATOM     16  C   UNL     1      33.712 -12.236 -26.448  0.00  0.00    +0.021 C 
BRANCH  16  17
ATOM     17  C   UNL     1      34.038 -11.557 -25.114  0.00  0.00    +0.002 C 
BRANCH  17  18
ATOM     18  C   UNL     1      35.089 -10.458 -25.296  0.00  0.00    +0.000 C 
BRANCH  18  19
ATOM     19  C   UNL     1      34.925  -9.295 -24.315  0.00  0.00    +0.000 C 
ATOM     20  C   UNL     1      33.596  -9.304 -23.577  0.00  0.00    +0.000 C 
ENDBRANCH  18  19
ENDBRANCH  17  18
ENDBRANCH  16  17
ENDBRANCH  15  16
ENDBRANCH   5  15
TORSDOF 5
ENDMDL
MODEL 7
REMARK VINA RESULT:      -8.0      1.721      2.403
REMARK  Name = 2577
REMARK  5 active torsions:
REMARK  status: ('A' for Active; 'I' for Inactive)
REMARK    1  A    between atoms: N_5  and  C_15
REMARK    2  A    between atoms: C_15  and  C_16
REMARK    3  A    between atoms: C_16  and  C_17
REMARK    4  A    between atoms: C_17  and  C_18
REMARK    5  A    between atoms: C_18  and  C_19
REMARK                            x       y       z     vdW  Elec       q    Type
REMARK                         _______ _______ _______ _____ _____    ______ ____
ROOT
ATOM      1  F   UNL     1      30.235 -23.883 -14.726  0.00  0.00    -0.198 F 
ATOM      2  O   UNL     1      32.539 -22.247 -18.718  0.00  0.00    -0.252 OA
ATOM      3  O   UNL     1      35.457 -23.792 -16.119  0.00  0.00    -0.251 OA
ATOM      4  O   UNL     1      32.170 -24.846 -13.083  0.00  0.00    -0.267 OA
ATOM      5  N   UNL     1      34.780 -22.610 -18.387  0.00  0.00    -0.288 N 
ATOM      6  N   UNL     1      33.229 -23.249 -16.699  0.00  0.00    -0.173 N 
ATOM      7  N   UNL     1      33.807 -24.291 -14.623  0.00  0.00    -0.233 N 
ATOM      8  C   UNL     1      33.446 -22.666 -17.993  0.00  0.00    +0.315 C 
ATOM      9  C   UNL     1      34.253 -23.769 -15.849  0.00  0.00    +0.321 C 
ATOM     10  C   UNL     1      31.902 -23.321 -16.274  0.00  0.00    +0.112 C 
ATOM     11  C   UNL     1      31.525 -23.834 -15.106  0.00  0.00    +0.209 C 
ATOM     12  C   UNL     1      32.505 -24.374 -14.163  0.00  0.00    +0.282 C 
ATOM     13  H   UNL     1      35.469 -22.957 -17.776  0.00  0.00    +0.151 HD
ATOM     14  H   UNL     1      34.505 -24.640 -14.022  0.00  0.00    +0.159 HD
ENDROOT
BRANCH   5  15
ATOM     15  C   UNL     1      35.189 -22.062 -19.659  0.00  0.00    +0.091 C 
BRANCH  15  16
ATOM     16  C   UNL     1      36.279 -21.005 -19.520  0.00  0.00    +0.021 C 
BRANCH  16  17
ATOM     17  C   UNL     1      36.172 -19.907 -20.583  0.00  0.00    +0.002 C 
BRANCH  17  18
ATOM     18  C   UNL     1      34.711 -19.638 -20.954  0.00  0.00    +0.000 C 
BRANCH  18  19
ATOM     19  C   UNL     1      34.529 -19.168 -22.399  0.00  0.00    +0.000 C 
ATOM     20  C   UNL     1      35.706 -18.362 -22.929  0.00  0.00    +0.000 C 
ENDBRANCH  18  19
ENDBRANCH  17  18
ENDBRANCH  16  17
ENDBRANCH  15  16
ENDBRANCH   5  15
TORSDOF 5
ENDMDL
MODEL 8
REMARK VINA RESULT:      -8.0      3.502      4.035
REMARK  Name = 2577
REMARK  5 active torsions:
REMARK  status: ('A' for Active; 'I' for Inactive)
REMARK    1  A    between atoms: N_5  and  C_15
REMARK    2  A    between atoms: C_15  and  C_16
REMARK    3  A    between atoms: C_16  and  C_17
REMARK    4  A    between atoms: C_17  and  C_18
REMARK    5  A    between atoms: C_18  and  C_19
REMARK                            x       y       z     vdW  Elec       q    Type
REMARK                         _______ _______ _______ _____ _____    ______ ____
ROOT
ATOM      1  F   UNL     1      38.202 -24.475 -11.444  0.00  0.00    -0.198 F 
ATOM      2  O   UNL     1      37.895 -22.552 -15.931  0.00  0.00    -0.252 OA
ATOM      3  O   UNL     1      34.040 -23.808 -14.827  0.00  0.00    -0.251 OA
ATOM      4  O   UNL     1      35.692 -25.283 -10.800  0.00  0.00    -0.267 OA
ATOM      5  N   UNL     1      35.703 -22.737 -16.584  0.00  0.00    -0.288 N 
ATOM      6  N   UNL     1      36.359 -23.543 -14.443  0.00  0.00    -0.173 N 
ATOM      7  N   UNL     1      34.888 -24.546 -12.842  0.00  0.00    -0.233 N 
ATOM      8  C   UNL     1      36.743 -22.917 -15.675  0.00  0.00    +0.315 C 
ATOM      9  C   UNL     1      35.031 -23.950 -14.106  0.00  0.00    +0.321 C 
ATOM     10  C   UNL     1      37.378 -23.738 -13.510  0.00  0.00    +0.112 C 
ATOM     11  C   UNL     1      37.194 -24.299 -12.318  0.00  0.00    +0.209 C 
ATOM     12  C   UNL     1      35.873 -24.762 -11.894  0.00  0.00    +0.282 C 
ATOM     13  H   UNL     1      34.801 -23.043 -16.337  0.00  0.00    +0.151 HD
ATOM     14  H   UNL     1      33.981 -24.844 -12.603  0.00  0.00    +0.159 HD
ENDROOT
BRANCH   5  15
ATOM     15  C   UNL     1      35.901 -22.118 -17.874  0.00  0.00    +0.091 C 
BRANCH  15  16
ATOM     16  C   UNL     1      34.650 -22.168 -18.746  0.00  0.00    +0.021 C 
BRANCH  16  17
ATOM     17  C   UNL     1      34.648 -21.088 -19.832  0.00  0.00    +0.002 C 
BRANCH  17  18
ATOM     18  C   UNL     1      33.230 -20.571 -20.094  0.00  0.00    +0.000 C 
BRANCH  18  19
ATOM     19  C   UNL     1      33.179 -19.432 -21.116  0.00  0.00    +0.000 C 
ATOM     20  C   UNL     1      34.448 -19.303 -21.945  0.00  0.00    +0.000 C 
ENDBRANCH  18  19
ENDBRANCH  17  18
ENDBRANCH  16  17
ENDBRANCH  15  16
ENDBRANCH   5  15
TORSDOF 5
ENDMDL
MODEL 9
REMARK VINA RESULT:      -8.0      7.833     10.305
REMARK  Name = 2577
REMARK  5 active torsions:
REMARK  status: ('A' for Active; 'I' for Inactive)
REMARK    1  A    between atoms: N_5  and  C_15
REMARK    2  A    between atoms: C_15  and  C_16
REMARK    3  A    between atoms: C_16  and  C_17
REMARK    4  A    between atoms: C_17  and  C_18
REMARK    5  A    between atoms: C_18  and  C_19
REMARK                            x       y       z     vdW  Elec       q    Type
REMARK                         _______ _______ _______ _____ _____    ______ ____
ROOT
ATOM      1  F   UNL     1      35.324 -19.364 -23.701  0.00  0.00    -0.198 F 
ATOM      2  O   UNL     1      33.359 -14.973 -24.586  0.00  0.00    -0.252 OA
ATOM      3  O   UNL     1      34.591 -15.021 -20.568  0.00  0.00    -0.251 OA
ATOM      4  O   UNL     1      36.079 -19.338 -21.094  0.00  0.00    -0.267 OA
ATOM      5  N   UNL     1      33.459 -13.793 -22.620  0.00  0.00    -0.288 N 
ATOM      6  N   UNL     1      34.306 -16.016 -22.696  0.00  0.00    -0.173 N 
ATOM      7  N   UNL     1      35.307 -17.168 -20.852  0.00  0.00    -0.233 N 
ATOM      8  C   UNL     1      33.680 -14.930 -23.394  0.00  0.00    +0.315 C 
ATOM      9  C   UNL     1      34.715 -15.987 -21.326  0.00  0.00    +0.321 C 
ATOM     10  C   UNL     1      34.542 -17.170 -23.442  0.00  0.00    +0.112 C 
ATOM     11  C   UNL     1      35.116 -18.266 -22.952  0.00  0.00    +0.209 C 
ATOM     12  C   UNL     1      35.551 -18.334 -21.557  0.00  0.00    +0.282 C 
ATOM     13  H   UNL     1      33.732 -13.804 -21.675  0.00  0.00    +0.151 HD
ATOM     14  H   UNL     1      35.581 -17.167 -19.906  0.00  0.00    +0.159 HD
ENDROOT
BRANCH   5  15
ATOM     15  C   UNL     1      32.845 -12.600 -23.155  0.00  0.00    +0.091 C 
BRANCH  15  16
ATOM     16  C   UNL     1      33.821 -11.749 -23.962  0.00  0.00    +0.021 C 
BRANCH  16  17
ATOM     17  C   UNL     1      33.522 -10.250 -23.853  0.00  0.00    +0.002 C 
BRANCH  17  18
ATOM     18  C   UNL     1      34.741  -9.414 -24.253  0.00  0.00    +0.000 C 
BRANCH  18  19
ATOM     19  C   UNL     1      34.778  -8.038 -23.584  0.00  0.00    +0.000 C 
ATOM     20  C   UNL     1      34.415  -6.897 -24.522  0.00  0.00    +0.000 C 
ENDBRANCH  18  19
ENDBRANCH  17  18
ENDBRANCH  16  17
ENDBRANCH  15  16
ENDBRANCH   5  15
TORSDOF 5
ENDMDL
