MODEL 1
REMARK VINA RESULT:      -9.9      0.000      0.000
REMARK  Name = 15295578
REMARK  5 active torsions:
REMARK  status: ('A' for Active; 'I' for Inactive)
REMARK    1  A    between atoms: C_3  and  N_7
REMARK    2  A    between atoms: C_4  and  N_17
REMARK    3  A    between atoms: N_7  and  C_9
REMARK    4  A    between atoms: C_9  and  C_11
REMARK    5  A    between atoms: N_17  and  C_20
REMARK                            x       y       z     vdW  Elec       q    Type
REMARK                         _______ _______ _______ _____ _____    ______ ____
ROOT
ATOM      1  O   UNL     1      34.867 -17.053 -25.994  0.00  0.00    -0.282 OA
ATOM      2  O   UNL     1      32.878 -14.784 -26.453  0.00  0.00    -0.282 OA
ATOM      3  C   UNL     1      34.287 -15.976 -23.795  0.00  0.00    +0.104 C 
ATOM      4  C   UNL     1      33.403 -14.967 -23.999  0.00  0.00    +0.108 C 
ATOM      5  C   UNL     1      34.343 -16.296 -25.219  0.00  0.00    +0.250 C 
ATOM      6  C   UNL     1      33.380 -15.198 -25.441  0.00  0.00    +0.250 C 
ENDROOT
BRANCH   3   7
ATOM      7  N   UNL     1      34.930 -16.564 -22.821  0.00  0.00    -0.327 N 
ATOM      8  H   UNL     1      35.885 -16.772 -22.943  0.00  0.00    +0.147 HD
BRANCH   7   9
ATOM      9  C   UNL     1      34.292 -16.922 -21.561  0.00  0.00    +0.092 C 
ATOM     10  C   UNL     1      34.601 -15.815 -20.542  0.00  0.00    +0.026 C 
BRANCH   9  11
ATOM     11  C   UNL     1      34.705 -18.284 -21.118  0.00  0.00    -0.005 C 
ATOM     12  C   UNL     1      36.059 -18.601 -21.009  0.00  0.00    -0.003 C 
ATOM     13  C   UNL     1      33.738 -19.242 -20.814  0.00  0.00    -0.003 C 
ATOM     14  C   UNL     1      36.446 -19.876 -20.595  0.00  0.00    -0.000 C 
ATOM     15  C   UNL     1      34.125 -20.517 -20.400  0.00  0.00    -0.000 C 
ATOM     16  C   UNL     1      35.479 -20.834 -20.290  0.00  0.00    -0.000 C 
ENDBRANCH   9  11
ENDBRANCH   7   9
ENDBRANCH   3   7
BRANCH   4  17
ATOM     17  N   UNL     1      32.741 -14.065 -23.326  0.00  0.00    -0.309 N 
ATOM     18  H   UNL     1      32.045 -14.411 -22.722  0.00  0.00    +0.152 HD
BRANCH  17  20
ATOM     19  N   UNL     1      33.173  -9.882 -23.386  0.00  0.00    -0.242 NA
ATOM     20  C   UNL     1      32.887 -12.649 -23.347  0.00  0.00    +0.052 C 
ATOM     21  C   UNL     1      32.085 -11.867 -22.536  0.00  0.00    +0.035 C 
ATOM     22  C   UNL     1      33.829 -12.070 -24.179  0.00  0.00    +0.035 C 
ATOM     23  C   UNL     1      32.266 -10.494 -22.591  0.00  0.00    +0.100 C 
ATOM     24  C   UNL     1      33.932 -10.688 -24.162  0.00  0.00    +0.100 C 
ENDBRANCH  17  20
ENDBRANCH   4  17
TORSDOF 5
ENDMDL
MODEL 2
REMARK VINA RESULT:      -9.8      1.752      2.744
REMARK  Name = 15295578
REMARK  5 active torsions:
REMARK  status: ('A' for Active; 'I' for Inactive)
REMARK    1  A    between atoms: C_3  and  N_7
REMARK    2  A    between atoms: C_4  and  N_17
REMARK    3  A    between atoms: N_7  and  C_9
REMARK    4  A    between atoms: C_9  and  C_11
REMARK    5  A    between atoms: N_17  and  C_20
REMARK                            x       y       z     vdW  Elec       q    Type
REMARK                         _______ _______ _______ _____ _____    ______ ____
ROOT
ATOM      1  O   UNL     1      34.611 -19.725 -24.940  0.00  0.00    -0.282 OA
ATOM      2  O   UNL     1      34.651 -16.810 -25.843  0.00  0.00    -0.282 OA
ATOM      3  C   UNL     1      34.960 -18.226 -22.950  0.00  0.00    +0.104 C 
ATOM      4  C   UNL     1      34.978 -16.930 -23.351  0.00  0.00    +0.108 C 
ATOM      5  C   UNL     1      34.751 -18.709 -24.313  0.00  0.00    +0.250 C 
ATOM      6  C   UNL     1      34.770 -17.298 -24.749  0.00  0.00    +0.250 C 
ENDROOT
BRANCH   3   7
ATOM      7  N   UNL     1      35.065 -18.939 -21.860  0.00  0.00    -0.327 N 
ATOM      8  H   UNL     1      35.916 -18.921 -21.365  0.00  0.00    +0.147 HD
BRANCH   7   9
ATOM      9  C   UNL     1      33.975 -19.758 -21.346  0.00  0.00    +0.092 C 
ATOM     10  C   UNL     1      32.833 -18.819 -20.928  0.00  0.00    +0.026 C 
BRANCH   9  11
ATOM     11  C   UNL     1      34.447 -20.659 -20.256  0.00  0.00    -0.005 C 
ATOM     12  C   UNL     1      35.801 -20.703 -19.925  0.00  0.00    -0.003 C 
ATOM     13  C   UNL     1      33.534 -21.458 -19.568  0.00  0.00    -0.003 C 
ATOM     14  C   UNL     1      36.243 -21.546 -18.906  0.00  0.00    -0.000 C 
ATOM     15  C   UNL     1      33.976 -22.302 -18.548  0.00  0.00    -0.000 C 
ATOM     16  C   UNL     1      35.331 -22.345 -18.217  0.00  0.00    -0.000 C 
ENDBRANCH   9  11
ENDBRANCH   7   9
ENDBRANCH   3   7
BRANCH   4  17
ATOM     17  N   UNL     1      35.111 -15.730 -22.854  0.00  0.00    -0.309 N 
ATOM     18  H   UNL     1      36.025 -15.479 -22.589  0.00  0.00    +0.152 HD
BRANCH  17  20
ATOM     19  N   UNL     1      32.172 -12.787 -22.229  0.00  0.00    -0.242 NA
ATOM     20  C   UNL     1      34.116 -14.735 -22.643  0.00  0.00    +0.052 C 
ATOM     21  C   UNL     1      33.359 -14.758 -21.486  0.00  0.00    +0.035 C 
ATOM     22  C   UNL     1      33.917 -13.752 -23.598  0.00  0.00    +0.035 C 
ATOM     23  C   UNL     1      32.404 -13.767 -21.326  0.00  0.00    +0.100 C 
ATOM     24  C   UNL     1      32.937 -12.806 -23.344  0.00  0.00    +0.100 C 
ENDBRANCH  17  20
ENDBRANCH   4  17
TORSDOF 5
ENDMDL
MODEL 3
REMARK VINA RESULT:      -9.7      9.617     12.620
REMARK  Name = 15295578
REMARK  5 active torsions:
REMARK  status: ('A' for Active; 'I' for Inactive)
REMARK    1  A    between atoms: C_3  and  N_7
REMARK    2  A    between atoms: C_4  and  N_17
REMARK    3  A    between atoms: N_7  and  C_9
REMARK    4  A    between atoms: C_9  and  C_11
REMARK    5  A    between atoms: N_17  and  C_20
REMARK                            x       y       z     vdW  Elec       q    Type
REMARK                         _______ _______ _______ _____ _____    ______ ____
ROOT
ATOM      1  O   UNL     1      37.198 -22.925 -11.932  0.00  0.00    -0.282 OA
ATOM      2  O   UNL     1      35.284 -25.051 -10.866  0.00  0.00    -0.282 OA
ATOM      3  C   UNL     1      35.392 -23.367 -13.627  0.00  0.00    +0.104 C 
ATOM      4  C   UNL     1      34.541 -24.312 -13.154  0.00  0.00    +0.108 C 
ATOM      5  C   UNL     1      36.215 -23.416 -12.421  0.00  0.00    +0.250 C 
ATOM      6  C   UNL     1      35.288 -24.445 -11.905  0.00  0.00    +0.250 C 
ENDROOT
BRANCH   3   7
ATOM      7  N   UNL     1      35.568 -22.615 -14.682  0.00  0.00    -0.327 N 
ATOM      8  H   UNL     1      35.296 -21.670 -14.638  0.00  0.00    +0.147 HD
BRANCH   7   9
ATOM      9  C   UNL     1      36.152 -23.119 -15.918  0.00  0.00    +0.092 C 
ATOM     10  C   UNL     1      37.620 -22.670 -15.966  0.00  0.00    +0.026 C 
BRANCH   9  11
ATOM     11  C   UNL     1      35.351 -22.694 -17.102  0.00  0.00    -0.005 C 
ATOM     12  C   UNL     1      35.952 -21.958 -18.122  0.00  0.00    -0.003 C 
ATOM     13  C   UNL     1      34.000 -23.032 -17.188  0.00  0.00    -0.003 C 
ATOM     14  C   UNL     1      35.203 -21.560 -19.230  0.00  0.00    -0.000 C 
ATOM     15  C   UNL     1      33.251 -22.635 -18.296  0.00  0.00    -0.000 C 
ATOM     16  C   UNL     1      33.853 -21.899 -19.317  0.00  0.00    -0.000 C 
ENDBRANCH   9  11
ENDBRANCH   7   9
ENDBRANCH   3   7
BRANCH   4  17
ATOM     17  N   UNL     1      33.463 -24.957 -13.509  0.00  0.00    -0.309 N 
ATOM     18  H   UNL     1      33.516 -25.938 -13.447  0.00  0.00    +0.152 HD
BRANCH  17  20
ATOM     19  N   UNL     1      29.794 -23.421 -14.876  0.00  0.00    -0.242 NA
ATOM     20  C   UNL     1      32.222 -24.437 -13.972  0.00  0.00    +0.052 C 
ATOM     21  C   UNL     1      31.163 -25.297 -14.205  0.00  0.00    +0.035 C 
ATOM     22  C   UNL     1      32.086 -23.076 -14.185  0.00  0.00    +0.035 C 
ATOM     23  C   UNL     1      29.976 -24.743 -14.654  0.00  0.00    +0.100 C 
ATOM     24  C   UNL     1      30.857 -22.621 -14.635  0.00  0.00    +0.100 C 
ENDBRANCH  17  20
ENDBRANCH   4  17
TORSDOF 5
ENDMDL
MODEL 4
REMARK VINA RESULT:      -9.6      2.378      3.095
REMARK  Name = 15295578
REMARK  5 active torsions:
REMARK  status: ('A' for Active; 'I' for Inactive)
REMARK    1  A    between atoms: C_3  and  N_7
REMARK    2  A    between atoms: C_4  and  N_17
REMARK    3  A    between atoms: N_7  and  C_9
REMARK    4  A    between atoms: C_9  and  C_11
REMARK    5  A    between atoms: N_17  and  C_20
REMARK                            x       y       z     vdW  Elec       q    Type
REMARK                         _______ _______ _______ _____ _____    ______ ____
ROOT
ATOM      1  O   UNL     1      35.022 -16.035 -19.845  0.00  0.00    -0.282 OA
ATOM      2  O   UNL     1      32.712 -14.377 -20.955  0.00  0.00    -0.282 OA
ATOM      3  C   UNL     1      34.876 -16.345 -22.338  0.00  0.00    +0.104 C 
ATOM      4  C   UNL     1      33.850 -15.609 -22.832  0.00  0.00    +0.108 C 
ATOM      5  C   UNL     1      34.616 -15.903 -20.970  0.00  0.00    +0.250 C 
ATOM      6  C   UNL     1      33.499 -15.101 -21.507  0.00  0.00    +0.250 C 
ENDROOT
BRANCH   3   7
ATOM      7  N   UNL     1      35.811 -17.162 -22.747  0.00  0.00    -0.327 N 
ATOM      8  H   UNL     1      36.738 -16.832 -22.793  0.00  0.00    +0.147 HD
BRANCH   7   9
ATOM      9  C   UNL     1      35.539 -18.539 -23.136  0.00  0.00    +0.092 C 
ATOM     10  C   UNL     1      34.650 -18.510 -24.389  0.00  0.00    +0.026 C 
BRANCH   9  11
ATOM     11  C   UNL     1      34.960 -19.313 -22.001  0.00  0.00    -0.005 C 
ATOM     12  C   UNL     1      35.802 -19.957 -21.095  0.00  0.00    -0.003 C 
ATOM     13  C   UNL     1      33.576 -19.395 -21.847  0.00  0.00    -0.003 C 
ATOM     14  C   UNL     1      35.260 -20.682 -20.033  0.00  0.00    -0.000 C 
ATOM     15  C   UNL     1      33.034 -20.121 -20.785  0.00  0.00    -0.000 C 
ATOM     16  C   UNL     1      33.877 -20.764 -19.878  0.00  0.00    -0.000 C 
ENDBRANCH   9  11
ENDBRANCH   7   9
ENDBRANCH   3   7
BRANCH   4  17
ATOM     17  N   UNL     1      33.267 -15.338 -23.968  0.00  0.00    -0.309 N 
ATOM     18  H   UNL     1      32.645 -16.025 -24.300  0.00  0.00    +0.152 HD
BRANCH  17  20
ATOM     19  N   UNL     1      33.686 -11.936 -26.405  0.00  0.00    -0.242 NA
ATOM     20  C   UNL     1      33.408 -14.187 -24.793  0.00  0.00    +0.052 C 
ATOM     21  C   UNL     1      33.794 -12.984 -24.229  0.00  0.00    +0.035 C 
ATOM     22  C   UNL     1      33.159 -14.283 -26.151  0.00  0.00    +0.035 C 
ATOM     23  C   UNL     1      33.918 -11.893 -25.074  0.00  0.00    +0.100 C 
ATOM     24  C   UNL     1      33.311 -13.133 -26.910  0.00  0.00    +0.100 C 
ENDBRANCH  17  20
ENDBRANCH   4  17
TORSDOF 5
ENDMDL
MODEL 5
REMARK VINA RESULT:      -9.6      0.968      1.704
REMARK  Name = 15295578
REMARK  5 active torsions:
REMARK  status: ('A' for Active; 'I' for Inactive)
REMARK    1  A    between atoms: C_3  and  N_7
REMARK    2  A    between atoms: C_4  and  N_17
REMARK    3  A    between atoms: N_7  and  C_9
REMARK    4  A    between atoms: C_9  and  C_11
REMARK    5  A    between atoms: N_17  and  C_20
REMARK                            x       y       z     vdW  Elec       q    Type
REMARK                         _______ _______ _______ _____ _____    ______ ____
ROOT
ATOM      1  O   UNL     1      33.739 -17.203 -25.594  0.00  0.00    -0.282 OA
ATOM      2  O   UNL     1      32.943 -14.446 -26.631  0.00  0.00    -0.282 OA
ATOM      3  C   UNL     1      34.390 -15.446 -23.916  0.00  0.00    +0.104 C 
ATOM      4  C   UNL     1      34.037 -14.220 -24.376  0.00  0.00    +0.108 C 
ATOM      5  C   UNL     1      33.869 -16.111 -25.107  0.00  0.00    +0.250 C 
ATOM      6  C   UNL     1      33.483 -14.776 -25.608  0.00  0.00    +0.250 C 
ENDROOT
BRANCH   3   7
ATOM      7  N   UNL     1      34.960 -16.000 -22.878  0.00  0.00    -0.327 N 
ATOM      8  H   UNL     1      35.934 -16.148 -22.897  0.00  0.00    +0.147 HD
BRANCH   7   9
ATOM      9  C   UNL     1      34.214 -16.407 -21.695  0.00  0.00    +0.092 C 
ATOM     10  C   UNL     1      34.476 -15.372 -20.590  0.00  0.00    +0.026 C 
BRANCH   9  11
ATOM     11  C   UNL     1      34.548 -17.806 -21.304  0.00  0.00    -0.005 C 
ATOM     12  C   UNL     1      33.527 -18.719 -21.040  0.00  0.00    -0.003 C 
ATOM     13  C   UNL     1      35.882 -18.203 -21.201  0.00  0.00    -0.003 C 
ATOM     14  C   UNL     1      33.839 -20.029 -20.673  0.00  0.00    -0.000 C 
ATOM     15  C   UNL     1      36.194 -19.512 -20.834  0.00  0.00    -0.000 C 
ATOM     16  C   UNL     1      35.173 -20.425 -20.571  0.00  0.00    -0.000 C 
ENDBRANCH   9  11
ENDBRANCH   7   9
ENDBRANCH   3   7
BRANCH   4  17
ATOM     17  N   UNL     1      34.084 -12.964 -24.021  0.00  0.00    -0.309 N 
ATOM     18  H   UNL     1      34.882 -12.469 -24.318  0.00  0.00    +0.152 HD
BRANCH  17  20
ATOM     19  N   UNL     1      31.301 -10.744 -21.783  0.00  0.00    -0.242 NA
ATOM     20  C   UNL     1      33.143 -12.213 -23.263  0.00  0.00    +0.052 C 
ATOM     21  C   UNL     1      33.064 -10.842 -23.435  0.00  0.00    +0.035 C 
ATOM     22  C   UNL     1      32.316 -12.861 -22.363  0.00  0.00    +0.035 C 
ATOM     23  C   UNL     1      32.131 -10.156 -22.675  0.00  0.00    +0.100 C 
ATOM     24  C   UNL     1      31.416 -12.084 -21.650  0.00  0.00    +0.100 C 
ENDBRANCH  17  20
ENDBRANCH   4  17
TORSDOF 5
ENDMDL
MODEL 6
REMARK VINA RESULT:      -9.6      1.880      6.870
REMARK  Name = 15295578
REMARK  5 active torsions:
REMARK  status: ('A' for Active; 'I' for Inactive)
REMARK    1  A    between atoms: C_3  and  N_7
REMARK    2  A    between atoms: C_4  and  N_17
REMARK    3  A    between atoms: N_7  and  C_9
REMARK    4  A    between atoms: C_9  and  C_11
REMARK    5  A    between atoms: N_17  and  C_20
REMARK                            x       y       z     vdW  Elec       q    Type
REMARK                         _______ _______ _______ _____ _____    ______ ____
ROOT
ATOM      1  O   UNL     1      34.351 -16.513 -25.968  0.00  0.00    -0.282 OA
ATOM      2  O   UNL     1      34.955 -19.102 -24.468  0.00  0.00    -0.282 OA
ATOM      3  C   UNL     1      34.616 -16.029 -23.514  0.00  0.00    +0.104 C 
ATOM      4  C   UNL     1      34.884 -17.179 -22.846  0.00  0.00    +0.108 C 
ATOM      5  C   UNL     1      34.544 -16.719 -24.799  0.00  0.00    +0.250 C 
ATOM      6  C   UNL     1      34.837 -17.972 -24.073  0.00  0.00    +0.250 C 
ENDROOT
BRANCH   3   7
ATOM      7  N   UNL     1      34.454 -14.752 -23.284  0.00  0.00    -0.327 N 
ATOM      8  H   UNL     1      35.182 -14.255 -22.845  0.00  0.00    +0.147 HD
BRANCH   7   9
ATOM      9  C   UNL     1      33.241 -14.035 -23.653  0.00  0.00    +0.092 C 
ATOM     10  C   UNL     1      33.568 -13.137 -24.856  0.00  0.00    +0.026 C 
BRANCH   9  11
ATOM     11  C   UNL     1      32.676 -13.299 -22.486  0.00  0.00    -0.005 C 
ATOM     12  C   UNL     1      32.112 -12.036 -22.665  0.00  0.00    -0.003 C 
ATOM     13  C   UNL     1      32.714 -13.872 -21.215  0.00  0.00    -0.003 C 
ATOM     14  C   UNL     1      31.584 -11.347 -21.573  0.00  0.00    -0.000 C 
ATOM     15  C   UNL     1      32.186 -13.183 -20.123  0.00  0.00    -0.000 C 
ATOM     16  C   UNL     1      31.620 -11.920 -20.302  0.00  0.00    -0.000 C 
ENDBRANCH   9  11
ENDBRANCH   7   9
ENDBRANCH   3   7
BRANCH   4  17
ATOM     17  N   UNL     1      35.116 -17.603 -21.633  0.00  0.00    -0.309 N 
ATOM     18  H   UNL     1      35.579 -16.966 -21.042  0.00  0.00    +0.152 HD
BRANCH  17  20
ATOM     19  N   UNL     1      34.158 -21.315 -19.904  0.00  0.00    -0.242 NA
ATOM     20  C   UNL     1      34.793 -18.858 -21.048  0.00  0.00    +0.052 C 
ATOM     21  C   UNL     1      33.467 -19.193 -20.834  0.00  0.00    +0.035 C 
ATOM     22  C   UNL     1      35.807 -19.733 -20.697  0.00  0.00    +0.035 C 
ATOM     23  C   UNL     1      33.203 -20.427 -20.263  0.00  0.00    +0.100 C 
ATOM     24  C   UNL     1      35.438 -20.943 -20.131  0.00  0.00    +0.100 C 
ENDBRANCH  17  20
ENDBRANCH   4  17
TORSDOF 5
ENDMDL
MODEL 7
REMARK VINA RESULT:      -9.5      2.546      7.785
REMARK  Name = 15295578
REMARK  5 active torsions:
REMARK  status: ('A' for Active; 'I' for Inactive)
REMARK    1  A    between atoms: C_3  and  N_7
REMARK    2  A    between atoms: C_4  and  N_17
REMARK    3  A    between atoms: N_7  and  C_9
REMARK    4  A    between atoms: C_9  and  C_11
REMARK    5  A    between atoms: N_17  and  C_20
REMARK                            x       y       z     vdW  Elec       q    Type
REMARK                         _______ _______ _______ _____ _____    ______ ____
ROOT
ATOM      1  O   UNL     1      31.562 -12.600 -21.982  0.00  0.00    -0.282 OA
ATOM      2  O   UNL     1      32.099 -15.499 -21.192  0.00  0.00    -0.282 OA
ATOM      3  C   UNL     1      33.775 -13.338 -22.923  0.00  0.00    +0.104 C 
ATOM      4  C   UNL     1      34.014 -14.627 -22.572  0.00  0.00    +0.108 C 
ATOM      5  C   UNL     1      32.492 -13.322 -22.223  0.00  0.00    +0.250 C 
ATOM      6  C   UNL     1      32.753 -14.725 -21.842  0.00  0.00    +0.250 C 
ENDROOT
BRANCH   3   7
ATOM      7  N   UNL     1      34.329 -12.363 -23.594  0.00  0.00    -0.327 N 
ATOM      8  H   UNL     1      35.307 -12.255 -23.548  0.00  0.00    +0.147 HD
BRANCH   7   9
ATOM      9  C   UNL     1      33.560 -11.431 -24.407  0.00  0.00    +0.092 C 
ATOM     10  C   UNL     1      34.019 -11.582 -25.865  0.00  0.00    +0.026 C 
BRANCH   9  11
ATOM     11  C   UNL     1      33.670 -10.040 -23.880  0.00  0.00    -0.005 C 
ATOM     12  C   UNL     1      34.771  -9.253 -24.216  0.00  0.00    -0.003 C 
ATOM     13  C   UNL     1      32.674  -9.528 -23.049  0.00  0.00    -0.003 C 
ATOM     14  C   UNL     1      34.875  -7.952 -23.723  0.00  0.00    -0.000 C 
ATOM     15  C   UNL     1      32.778  -8.227 -22.555  0.00  0.00    -0.000 C 
ATOM     16  C   UNL     1      33.878  -7.439 -22.893  0.00  0.00    -0.000 C 
ENDBRANCH   9  11
ENDBRANCH   7   9
ENDBRANCH   3   7
BRANCH   4  17
ATOM     17  N   UNL     1      34.921 -15.554 -22.723  0.00  0.00    -0.309 N 
ATOM     18  H   UNL     1      35.809 -15.343 -22.355  0.00  0.00    +0.152 HD
BRANCH  17  20
ATOM     19  N   UNL     1      34.568 -19.317 -24.567  0.00  0.00    -0.242 NA
ATOM     20  C   UNL     1      34.802 -16.827 -23.347  0.00  0.00    +0.052 C 
ATOM     21  C   UNL     1      35.019 -17.975 -22.607  0.00  0.00    +0.035 C 
ATOM     22  C   UNL     1      34.471 -16.904 -24.689  0.00  0.00    +0.035 C 
ATOM     23  C   UNL     1      34.890 -19.190 -23.259  0.00  0.00    +0.100 C 
ATOM     24  C   UNL     1      34.367 -18.167 -25.249  0.00  0.00    +0.100 C 
ENDBRANCH  17  20
ENDBRANCH   4  17
TORSDOF 5
ENDMDL
MODEL 8
REMARK VINA RESULT:      -9.4      1.925      7.459
REMARK  Name = 15295578
REMARK  5 active torsions:
REMARK  status: ('A' for Active; 'I' for Inactive)
REMARK    1  A    between atoms: C_3  and  N_7
REMARK    2  A    between atoms: C_4  and  N_17
REMARK    3  A    between atoms: N_7  and  C_9
REMARK    4  A    between atoms: C_9  and  C_11
REMARK    5  A    between atoms: N_17  and  C_20
REMARK                            x       y       z     vdW  Elec       q    Type
REMARK                         _______ _______ _______ _____ _____    ______ ____
ROOT
ATOM      1  O   UNL     1      33.509 -12.896 -27.308  0.00  0.00    -0.282 OA
ATOM      2  O   UNL     1      32.614 -15.684 -26.446  0.00  0.00    -0.282 OA
ATOM      3  C   UNL     1      33.777 -13.141 -24.818  0.00  0.00    +0.104 C 
ATOM      4  C   UNL     1      33.380 -14.380 -24.435  0.00  0.00    +0.108 C 
ATOM      5  C   UNL     1      33.477 -13.412 -26.222  0.00  0.00    +0.250 C 
ATOM      6  C   UNL     1      33.044 -14.761 -25.805  0.00  0.00    +0.250 C 
ENDROOT
BRANCH   3   7
ATOM      7  N   UNL     1      34.256 -12.038 -24.304  0.00  0.00    -0.327 N 
ATOM      8  H   UNL     1      34.721 -12.085 -23.437  0.00  0.00    +0.147 HD
BRANCH   7   9
ATOM      9  C   UNL     1      34.130 -10.745 -24.962  0.00  0.00    +0.092 C 
ATOM     10  C   UNL     1      35.414 -10.496 -25.767  0.00  0.00    +0.026 C 
BRANCH   9  11
ATOM     11  C   UNL     1      33.816  -9.670 -23.977  0.00  0.00    -0.005 C 
ATOM     12  C   UNL     1      34.613  -8.527 -23.915  0.00  0.00    -0.003 C 
ATOM     13  C   UNL     1      32.726  -9.808 -23.117  0.00  0.00    -0.003 C 
ATOM     14  C   UNL     1      34.320  -7.521 -22.993  0.00  0.00    -0.000 C 
ATOM     15  C   UNL     1      32.433  -8.802 -22.196  0.00  0.00    -0.000 C 
ATOM     16  C   UNL     1      33.230  -7.659 -22.134  0.00  0.00    -0.000 C 
ENDBRANCH   9  11
ENDBRANCH   7   9
ENDBRANCH   3   7
BRANCH   4  17
ATOM     17  N   UNL     1      33.268 -15.107 -23.356  0.00  0.00    -0.309 N 
ATOM     18  H   UNL     1      32.479 -14.920 -22.798  0.00  0.00    +0.152 HD
BRANCH  17  20
ATOM     19  N   UNL     1      35.817 -18.137 -21.939  0.00  0.00    -0.242 NA
ATOM     20  C   UNL     1      34.130 -16.132 -22.876  0.00  0.00    +0.052 C 
ATOM     21  C   UNL     1      34.748 -16.984 -23.775  0.00  0.00    +0.035 C 
ATOM     22  C   UNL     1      34.342 -16.268 -21.515  0.00  0.00    +0.035 C 
ATOM     23  C   UNL     1      35.579 -17.965 -23.259  0.00  0.00    +0.100 C 
ATOM     24  C   UNL     1      35.191 -17.282 -21.100  0.00  0.00    +0.100 C 
ENDBRANCH  17  20
ENDBRANCH   4  17
TORSDOF 5
ENDMDL
MODEL 9
REMARK VINA RESULT:      -9.4      6.957     10.366
REMARK  Name = 15295578
REMARK  5 active torsions:
REMARK  status: ('A' for Active; 'I' for Inactive)
REMARK    1  A    between atoms: C_3  and  N_7
REMARK    2  A    between atoms: C_4  and  N_17
REMARK    3  A    between atoms: N_7  and  C_9
REMARK    4  A    between atoms: C_9  and  C_11
REMARK    5  A    between atoms: N_17  and  C_20
REMARK                            x       y       z     vdW  Elec       q    Type
REMARK                         _______ _______ _______ _____ _____    ______ ____
ROOT
ATOM      1  O   UNL     1      32.042 -23.362 -14.480  0.00  0.00    -0.282 OA
ATOM      2  O   UNL     1      30.816 -22.474 -17.130  0.00  0.00    -0.282 OA
ATOM      3  C   UNL     1      33.758 -23.544 -16.311  0.00  0.00    +0.104 C 
ATOM      4  C   UNL     1      33.214 -23.150 -17.489  0.00  0.00    +0.108 C 
ATOM      5  C   UNL     1      32.515 -23.298 -15.583  0.00  0.00    +0.250 C 
ATOM      6  C   UNL     1      31.922 -22.867 -16.866  0.00  0.00    +0.250 C 
ENDROOT
BRANCH   3   7
ATOM      7  N   UNL     1      34.889 -23.987 -15.828  0.00  0.00    -0.327 N 
ATOM      8  H   UNL     1      35.137 -24.926 -15.992  0.00  0.00    +0.147 HD
BRANCH   7   9
ATOM      9  C   UNL     1      35.798 -23.148 -15.059  0.00  0.00    +0.092 C 
ATOM     10  C   UNL     1      36.626 -22.315 -16.049  0.00  0.00    +0.026 C 
BRANCH   9  11
ATOM     11  C   UNL     1      36.621 -23.966 -14.122  0.00  0.00    -0.005 C 
ATOM     12  C   UNL     1      36.841 -25.318 -14.386  0.00  0.00    -0.003 C 
ATOM     13  C   UNL     1      37.168 -23.380 -12.981  0.00  0.00    -0.003 C 
ATOM     14  C   UNL     1      37.610 -26.084 -13.509  0.00  0.00    -0.000 C 
ATOM     15  C   UNL     1      37.937 -24.146 -12.104  0.00  0.00    -0.000 C 
ATOM     16  C   UNL     1      38.158 -25.497 -12.368  0.00  0.00    -0.000 C 
ENDBRANCH   9  11
ENDBRANCH   7   9
ENDBRANCH   3   7
BRANCH   4  17
ATOM     17  N   UNL     1      33.539 -23.010 -18.746  0.00  0.00    -0.309 N 
ATOM     18  H   UNL     1      33.366 -23.793 -19.318  0.00  0.00    +0.152 HD
BRANCH  17  20
ATOM     19  N   UNL     1      35.221 -19.680 -20.685  0.00  0.00    -0.242 NA
ATOM     20  C   UNL     1      34.108 -21.884 -19.402  0.00  0.00    +0.052 C 
ATOM     21  C   UNL     1      33.280 -20.921 -19.951  0.00  0.00    +0.035 C 
ATOM     22  C   UNL     1      35.484 -21.762 -19.485  0.00  0.00    +0.035 C 
ATOM     23  C   UNL     1      33.883 -19.843 -20.579  0.00  0.00    +0.100 C 
ATOM     24  C   UNL     1      35.989 -20.647 -20.134  0.00  0.00    +0.100 C 
ENDBRANCH  17  20
ENDBRANCH   4  17
TORSDOF 5
ENDMDL
