MODEL 1
REMARK VINA RESULT:      -8.9      0.000      0.000
REMARK  Name = 25147495
REMARK  4 active torsions:
REMARK  status: ('A' for Active; 'I' for Inactive)
REMARK    1  A    between atoms: C_2  and  C_18
REMARK    2  A    between atoms: C_3  and  O_16
REMARK    3  A    between atoms: C_5  and  N_8
REMARK    4  A    between atoms: C_18  and  N_19
REMARK                            x       y       z     vdW  Elec       q    Type
REMARK                         _______ _______ _______ _____ _____    ______ ____
ROOT
ATOM      1  O   UNL     1      32.536 -14.197 -23.285  0.00  0.00    -0.339 OA
ATOM      2  C   UNL     1      33.240 -15.308 -22.697  0.00  0.00    +0.123 C 
ATOM      3  C   UNL     1      33.034 -15.197 -21.191  0.00  0.00    +0.140 C 
ATOM      4  C   UNL     1      32.873 -13.709 -20.983  0.00  0.00    +0.083 C 
ATOM      5  C   UNL     1      32.146 -13.286 -22.249  0.00  0.00    +0.201 C 
ENDROOT
BRANCH   5   8
ATOM      6  O   UNL     1      30.855 -10.938 -21.285  0.00  0.00    -0.252 OA
ATOM      7  O   UNL     1      33.471  -8.216 -23.911  0.00  0.00    -0.270 OA
ATOM      8  N   UNL     1      32.457 -11.945 -22.652  0.00  0.00    -0.219 N 
ATOM      9  N   UNL     1      32.166  -9.592 -22.601  0.00  0.00    -0.236 N 
ATOM     10  C   UNL     1      33.465 -11.751 -23.587  0.00  0.00    +0.071 C 
ATOM     11  C   UNL     1      31.759 -10.841 -22.117  0.00  0.00    +0.315 C 
ATOM     12  C   UNL     1      33.852 -10.555 -24.048  0.00  0.00    +0.047 C 
ATOM     13  C   UNL     1      33.163  -9.343 -23.531  0.00  0.00    +0.250 C 
ATOM     14  C   UNL     1      34.940 -10.369 -25.056  0.00  0.00    +0.037 C 
ATOM     15  H   UNL     1      31.693  -8.806 -22.242  0.00  0.00    +0.159 HD
ENDBRANCH   5   8
BRANCH   3  16
ATOM     16  O   UNL     1      31.814 -15.838 -20.827  0.00  0.00    -0.382 OA
ATOM     17  H   UNL     1      31.334 -16.098 -21.628  0.00  0.00    +0.210 HD
ENDBRANCH   3  16
BRANCH   2  18
ATOM     18  C   UNL     1      34.704 -15.203 -23.103  0.00  0.00    -0.045 C 
BRANCH  18  19
ATOM     19  N   UNL     1      35.161 -16.425 -23.748  0.00  0.00    +0.389 N 
ATOM     20  C   UNL     1      35.198 -17.562 -22.829  0.00  0.00    -0.077 C 
ATOM     21  C   UNL     1      34.280 -16.844 -24.837  0.00  0.00    -0.077 C 
ATOM     22  C   UNL     1      35.309 -18.755 -23.767  0.00  0.00    -0.025 C 
ATOM     23  C   UNL     1      34.709 -18.282 -25.088  0.00  0.00    -0.025 C 
ATOM     24  H   UNL     1      36.093 -16.189 -24.090  0.00  0.00    -0.080 HD
ENDBRANCH  18  19
ENDBRANCH   2  18
TORSDOF 4
ENDMDL
MODEL 2
REMARK VINA RESULT:      -8.5      9.610     12.429
REMARK  Name = 25147495
REMARK  4 active torsions:
REMARK  status: ('A' for Active; 'I' for Inactive)
REMARK    1  A    between atoms: C_2  and  C_18
REMARK    2  A    between atoms: C_3  and  O_16
REMARK    3  A    between atoms: C_5  and  N_8
REMARK    4  A    between atoms: C_18  and  N_19
REMARK                            x       y       z     vdW  Elec       q    Type
REMARK                         _______ _______ _______ _____ _____    ______ ____
ROOT
ATOM      1  O   UNL     1      35.041 -24.369 -16.111  0.00  0.00    -0.339 OA
ATOM      2  C   UNL     1      35.346 -24.318 -14.703  0.00  0.00    +0.123 C 
ATOM      3  C   UNL     1      34.049 -23.943 -13.997  0.00  0.00    +0.140 C 
ATOM      4  C   UNL     1      33.326 -23.120 -15.038  0.00  0.00    +0.083 C 
ATOM      5  C   UNL     1      33.742 -23.803 -16.331  0.00  0.00    +0.201 C 
ENDROOT
BRANCH   5   8
ATOM      6  O   UNL     1      31.485 -22.642 -17.621  0.00  0.00    -0.252 OA
ATOM      7  O   UNL     1      34.145 -20.370 -20.605  0.00  0.00    -0.270 OA
ATOM      8  N   UNL     1      33.798 -22.904 -17.446  0.00  0.00    -0.219 N 
ATOM      9  N   UNL     1      32.824 -21.516 -19.104  0.00  0.00    -0.236 N 
ATOM     10  C   UNL     1      35.042 -22.557 -17.957  0.00  0.00    +0.071 C 
ATOM     11  C   UNL     1      32.621 -22.379 -18.021  0.00  0.00    +0.315 C 
ATOM     12  C   UNL     1      35.232 -21.730 -18.993  0.00  0.00    +0.047 C 
ATOM     13  C   UNL     1      34.039 -21.136 -19.651  0.00  0.00    +0.250 C 
ATOM     14  C   UNL     1      36.582 -21.370 -19.526  0.00  0.00    +0.037 C 
ATOM     15  H   UNL     1      32.016 -21.136 -19.521  0.00  0.00    +0.159 HD
ENDBRANCH   5   8
BRANCH   3  16
ATOM     16  O   UNL     1      33.286 -25.120 -13.742  0.00  0.00    -0.382 OA
ATOM     17  H   UNL     1      33.868 -25.813 -13.395  0.00  0.00    +0.210 HD
ENDBRANCH   3  16
BRANCH   2  18
ATOM     18  C   UNL     1      36.450 -23.289 -14.500  0.00  0.00    -0.045 C 
BRANCH  18  19
ATOM     19  N   UNL     1      37.633 -23.895 -13.906  0.00  0.00    +0.389 N 
ATOM     20  C   UNL     1      37.305 -24.793 -12.799  0.00  0.00    -0.077 C 
ATOM     21  C   UNL     1      38.375 -24.719 -14.859  0.00  0.00    -0.077 C 
ATOM     22  C   UNL     1      38.592 -25.582 -12.609  0.00  0.00    -0.025 C 
ATOM     23  C   UNL     1      39.297 -25.531 -13.961  0.00  0.00    -0.025 C 
ATOM     24  H   UNL     1      38.186 -23.098 -13.591  0.00  0.00    -0.080 HD
ENDBRANCH  18  19
ENDBRANCH   2  18
TORSDOF 4
ENDMDL
MODEL 3
REMARK VINA RESULT:      -8.5      2.041      3.329
REMARK  Name = 25147495
REMARK  4 active torsions:
REMARK  status: ('A' for Active; 'I' for Inactive)
REMARK    1  A    between atoms: C_2  and  C_18
REMARK    2  A    between atoms: C_3  and  O_16
REMARK    3  A    between atoms: C_5  and  N_8
REMARK    4  A    between atoms: C_18  and  N_19
REMARK                            x       y       z     vdW  Elec       q    Type
REMARK                         _______ _______ _______ _____ _____    ______ ____
ROOT
ATOM      1  O   UNL     1      34.900 -14.454 -23.364  0.00  0.00    -0.339 OA
ATOM      2  C   UNL     1      34.614 -15.866 -23.380  0.00  0.00    +0.123 C 
ATOM      3  C   UNL     1      33.825 -16.129 -24.656  0.00  0.00    +0.140 C 
ATOM      4  C   UNL     1      33.110 -14.818 -24.886  0.00  0.00    +0.083 C 
ATOM      5  C   UNL     1      34.128 -13.807 -24.385  0.00  0.00    +0.201 C 
ENDROOT
BRANCH   5   8
ATOM      6  O   UNL     1      34.560 -11.160 -25.343  0.00  0.00    -0.252 OA
ATOM      7  O   UNL     1      31.724  -9.376 -22.194  0.00  0.00    -0.270 OA
ATOM      8  N   UNL     1      33.525 -12.623 -23.847  0.00  0.00    -0.219 N 
ATOM      9  N   UNL     1      33.144 -10.283 -23.766  0.00  0.00    -0.236 N 
ATOM     10  C   UNL     1      32.655 -12.752 -22.771  0.00  0.00    +0.071 C 
ATOM     11  C   UNL     1      33.801 -11.350 -24.390  0.00  0.00    +0.315 C 
ATOM     12  C   UNL     1      32.028 -11.730 -22.177  0.00  0.00    +0.047 C 
ATOM     13  C   UNL     1      32.269 -10.357 -22.693  0.00  0.00    +0.250 C 
ATOM     14  C   UNL     1      31.096 -11.892 -21.019  0.00  0.00    +0.037 C 
ATOM     15  H   UNL     1      33.321  -9.385 -24.128  0.00  0.00    +0.159 HD
ENDBRANCH   5   8
BRANCH   3  16
ATOM     16  O   UNL     1      34.726 -16.347 -25.739  0.00  0.00    -0.382 OA
ATOM     17  H   UNL     1      35.420 -15.671 -25.723  0.00  0.00    +0.210 HD
ENDBRANCH   3  16
BRANCH   2  18
ATOM     18  C   UNL     1      33.827 -16.199 -22.119  0.00  0.00    -0.045 C 
BRANCH  18  19
ATOM     19  N   UNL     1      34.482 -17.248 -21.350  0.00  0.00    +0.389 N 
ATOM     20  C   UNL     1      33.686 -18.474 -21.287  0.00  0.00    -0.077 C 
ATOM     21  C   UNL     1      35.760 -17.652 -21.934  0.00  0.00    -0.077 C 
ATOM     22  C   UNL     1      34.693 -19.508 -20.806  0.00  0.00    -0.025 C 
ATOM     23  C   UNL     1      36.056 -18.967 -21.228  0.00  0.00    -0.025 C 
ATOM     24  H   UNL     1      34.607 -16.834 -20.426  0.00  0.00    -0.080 HD
ENDBRANCH  18  19
ENDBRANCH   2  18
TORSDOF 4
ENDMDL
MODEL 4
REMARK VINA RESULT:      -8.4      2.049      3.211
REMARK  Name = 25147495
REMARK  4 active torsions:
REMARK  status: ('A' for Active; 'I' for Inactive)
REMARK    1  A    between atoms: C_2  and  C_18
REMARK    2  A    between atoms: C_3  and  O_16
REMARK    3  A    between atoms: C_5  and  N_8
REMARK    4  A    between atoms: C_18  and  N_19
REMARK                            x       y       z     vdW  Elec       q    Type
REMARK                         _______ _______ _______ _____ _____    ______ ____
ROOT
ATOM      1  O   UNL     1      35.009 -14.942 -22.630  0.00  0.00    -0.339 OA
ATOM      2  C   UNL     1      34.939 -16.379 -22.710  0.00  0.00    +0.123 C 
ATOM      3  C   UNL     1      34.358 -16.704 -24.081  0.00  0.00    +0.140 C 
ATOM      4  C   UNL     1      33.490 -15.502 -24.372  0.00  0.00    +0.083 C 
ATOM      5  C   UNL     1      34.279 -14.375 -23.727  0.00  0.00    +0.201 C 
ENDROOT
BRANCH   5   8
ATOM      6  O   UNL     1      32.105 -14.683 -21.913  0.00  0.00    -0.252 OA
ATOM      7  O   UNL     1      31.185 -10.178 -21.985  0.00  0.00    -0.270 OA
ATOM      8  N   UNL     1      33.446 -13.312 -23.245  0.00  0.00    -0.219 N 
ATOM      9  N   UNL     1      31.657 -12.433 -21.960  0.00  0.00    -0.236 N 
ATOM     10  C   UNL     1      33.700 -12.019 -23.685  0.00  0.00    +0.071 C 
ATOM     11  C   UNL     1      32.388 -13.563 -22.345  0.00  0.00    +0.315 C 
ATOM     12  C   UNL     1      32.998 -10.941 -23.314  0.00  0.00    +0.047 C 
ATOM     13  C   UNL     1      31.868 -11.125 -22.366  0.00  0.00    +0.250 C 
ATOM     14  C   UNL     1      33.289  -9.557 -23.800  0.00  0.00    +0.037 C 
ATOM     15  H   UNL     1      30.913 -12.584 -21.331  0.00  0.00    +0.159 HD
ENDBRANCH   5   8
BRANCH   3  16
ATOM     16  O   UNL     1      35.406 -16.748 -25.045  0.00  0.00    -0.382 OA
ATOM     17  H   UNL     1      35.908 -15.919 -25.016  0.00  0.00    +0.210 HD
ENDBRANCH   3  16
BRANCH   2  18
ATOM     18  C   UNL     1      34.064 -16.870 -21.564  0.00  0.00    -0.045 C 
BRANCH  18  19
ATOM     19  N   UNL     1      34.691 -17.979 -20.860  0.00  0.00    +0.389 N 
ATOM     20  C   UNL     1      33.955 -19.232 -21.023  0.00  0.00    -0.077 C 
ATOM     21  C   UNL     1      36.039 -18.261 -21.351  0.00  0.00    -0.077 C 
ATOM     22  C   UNL     1      34.959 -20.279 -20.564  0.00  0.00    -0.025 C 
ATOM     23  C   UNL     1      36.328 -19.640 -20.776  0.00  0.00    -0.025 C 
ATOM     24  H   UNL     1      34.703 -17.676 -19.886  0.00  0.00    -0.080 HD
ENDBRANCH  18  19
ENDBRANCH   2  18
TORSDOF 4
ENDMDL
MODEL 5
REMARK VINA RESULT:      -8.2      3.216      5.225
REMARK  Name = 25147495
REMARK  4 active torsions:
REMARK  status: ('A' for Active; 'I' for Inactive)
REMARK    1  A    between atoms: C_2  and  C_18
REMARK    2  A    between atoms: C_3  and  O_16
REMARK    3  A    between atoms: C_5  and  N_8
REMARK    4  A    between atoms: C_18  and  N_19
REMARK                            x       y       z     vdW  Elec       q    Type
REMARK                         _______ _______ _______ _____ _____    ______ ____
ROOT
ATOM      1  O   UNL     1      35.710 -17.472 -23.361  0.00  0.00    -0.339 OA
ATOM      2  C   UNL     1      35.628 -18.834 -22.900  0.00  0.00    +0.123 C 
ATOM      3  C   UNL     1      34.683 -19.553 -23.854  0.00  0.00    +0.140 C 
ATOM      4  C   UNL     1      33.761 -18.447 -24.312  0.00  0.00    +0.083 C 
ATOM      5  C   UNL     1      34.695 -17.248 -24.350  0.00  0.00    +0.201 C 
ENDROOT
BRANCH   5   8
ATOM      6  O   UNL     1      33.721 -15.436 -26.318  0.00  0.00    -0.252 OA
ATOM      7  O   UNL     1      32.157 -12.532 -23.114  0.00  0.00    -0.270 OA
ATOM      8  N   UNL     1      34.028 -16.009 -24.076  0.00  0.00    -0.219 N 
ATOM      9  N   UNL     1      32.947 -13.996 -24.709  0.00  0.00    -0.236 N 
ATOM     10  C   UNL     1      33.830 -15.642 -22.751  0.00  0.00    +0.071 C 
ATOM     11  C   UNL     1      33.579 -15.174 -25.122  0.00  0.00    +0.315 C 
ATOM     12  C   UNL     1      33.223 -14.514 -22.360  0.00  0.00    +0.047 C 
ATOM     13  C   UNL     1      32.723 -13.582 -23.405  0.00  0.00    +0.250 C 
ATOM     14  C   UNL     1      33.021 -14.138 -20.927  0.00  0.00    +0.037 C 
ATOM     15  H   UNL     1      32.625 -13.397 -25.422  0.00  0.00    +0.159 HD
ENDBRANCH   5   8
BRANCH   3  16
ATOM     16  O   UNL     1      35.413 -20.029 -24.982  0.00  0.00    -0.382 OA
ATOM     17  H   UNL     1      35.796 -19.277 -25.459  0.00  0.00    +0.210 HD
ENDBRANCH   3  16
BRANCH   2  18
ATOM     18  C   UNL     1      35.117 -18.813 -21.465  0.00  0.00    -0.045 C 
BRANCH  18  19
ATOM     19  N   UNL     1      34.753 -20.149 -21.016  0.00  0.00    +0.389 N 
ATOM     20  C   UNL     1      35.704 -20.691 -20.046  0.00  0.00    -0.077 C 
ATOM     21  C   UNL     1      33.459 -20.175 -20.335  0.00  0.00    -0.077 C 
ATOM     22  C   UNL     1      34.945 -21.863 -19.442  0.00  0.00    -0.025 C 
ATOM     23  C   UNL     1      33.469 -21.526 -19.636  0.00  0.00    -0.025 C 
ATOM     24  H   UNL     1      34.736 -20.701 -21.873  0.00  0.00    -0.080 HD
ENDBRANCH  18  19
ENDBRANCH   2  18
TORSDOF 4
ENDMDL
MODEL 6
REMARK VINA RESULT:      -8.2     11.979     14.007
REMARK  Name = 25147495
REMARK  4 active torsions:
REMARK  status: ('A' for Active; 'I' for Inactive)
REMARK    1  A    between atoms: C_2  and  C_18
REMARK    2  A    between atoms: C_3  and  O_16
REMARK    3  A    between atoms: C_5  and  N_8
REMARK    4  A    between atoms: C_18  and  N_19
REMARK                            x       y       z     vdW  Elec       q    Type
REMARK                         _______ _______ _______ _____ _____    ______ ____
ROOT
ATOM      1  O   UNL     1      32.314 -22.833 -13.952  0.00  0.00    -0.339 OA
ATOM      2  C   UNL     1      31.062 -23.335 -14.459  0.00  0.00    +0.123 C 
ATOM      3  C   UNL     1      30.955 -24.778 -13.984  0.00  0.00    +0.140 C 
ATOM      4  C   UNL     1      32.400 -25.208 -13.886  0.00  0.00    +0.083 C 
ATOM      5  C   UNL     1      33.085 -23.928 -13.438  0.00  0.00    +0.201 C 
ENDROOT
BRANCH   5   8
ATOM      6  O   UNL     1      35.377 -24.945 -12.090  0.00  0.00    -0.252 OA
ATOM      7  O   UNL     1      38.199 -23.423 -15.387  0.00  0.00    -0.270 OA
ATOM      8  N   UNL     1      34.435 -23.821 -13.906  0.00  0.00    -0.219 N 
ATOM      9  N   UNL     1      36.774 -24.180 -13.741  0.00  0.00    -0.236 N 
ATOM     10  C   UNL     1      34.669 -23.172 -15.112  0.00  0.00    +0.071 C 
ATOM     11  C   UNL     1      35.510 -24.358 -13.166  0.00  0.00    +0.315 C 
ATOM     12  C   UNL     1      35.879 -23.004 -15.659  0.00  0.00    +0.047 C 
ATOM     13  C   UNL     1      37.062 -23.543 -14.938  0.00  0.00    +0.250 C 
ATOM     14  C   UNL     1      36.108 -22.301 -16.959  0.00  0.00    +0.037 C 
ATOM     15  H   UNL     1      37.540 -24.547 -13.243  0.00  0.00    +0.159 HD
ENDBRANCH   5   8
BRANCH   3  16
ATOM     16  O   UNL     1      30.385 -24.810 -12.678  0.00  0.00    -0.382 OA
ATOM     17  H   UNL     1      29.516 -24.381 -12.694  0.00  0.00    +0.210 HD
ENDBRANCH   3  16
BRANCH   2  18
ATOM     18  C   UNL     1      31.088 -23.212 -15.977  0.00  0.00    -0.045 C 
BRANCH  18  19
ATOM     19  N   UNL     1      29.793 -22.794 -16.494  0.00  0.00    +0.389 N 
ATOM     20  C   UNL     1      29.036 -23.906 -17.070  0.00  0.00    -0.077 C 
ATOM     21  C   UNL     1      28.927 -22.243 -15.453  0.00  0.00    -0.077 C 
ATOM     22  C   UNL     1      27.627 -23.342 -17.173  0.00  0.00    -0.025 C 
ATOM     23  C   UNL     1      27.556 -22.247 -16.113  0.00  0.00    -0.025 C 
ATOM     24  H   UNL     1      30.023 -22.093 -17.199  0.00  0.00    -0.080 HD
ENDBRANCH  18  19
ENDBRANCH   2  18
TORSDOF 4
ENDMDL
MODEL 7
REMARK VINA RESULT:      -8.0      2.655      3.353
REMARK  Name = 25147495
REMARK  4 active torsions:
REMARK  status: ('A' for Active; 'I' for Inactive)
REMARK    1  A    between atoms: C_2  and  C_18
REMARK    2  A    between atoms: C_3  and  O_16
REMARK    3  A    between atoms: C_5  and  N_8
REMARK    4  A    between atoms: C_18  and  N_19
REMARK                            x       y       z     vdW  Elec       q    Type
REMARK                         _______ _______ _______ _____ _____    ______ ____
ROOT
ATOM      1  O   UNL     1      31.669 -12.339 -22.584  0.00  0.00    -0.339 OA
ATOM      2  C   UNL     1      32.518 -13.453 -22.924  0.00  0.00    +0.123 C 
ATOM      3  C   UNL     1      32.829 -14.169 -21.615  0.00  0.00    +0.140 C 
ATOM      4  C   UNL     1      32.763 -13.055 -20.597  0.00  0.00    +0.083 C 
ATOM      5  C   UNL     1      31.659 -12.174 -21.160  0.00  0.00    +0.201 C 
ENDROOT
BRANCH   5   8
ATOM      6  O   UNL     1      31.342 -11.032 -18.570  0.00  0.00    -0.252 OA
ATOM      7  O   UNL     1      32.359  -6.823 -20.117  0.00  0.00    -0.270 OA
ATOM      8  N   UNL     1      31.831 -10.787 -20.840  0.00  0.00    -0.219 N 
ATOM      9  N   UNL     1      31.850  -8.937 -19.356  0.00  0.00    -0.236 N 
ATOM     10  C   UNL     1      32.180  -9.910 -21.859  0.00  0.00    +0.071 C 
ATOM     11  C   UNL     1      31.651 -10.312 -19.523  0.00  0.00    +0.315 C 
ATOM     12  C   UNL     1      32.370  -8.595 -21.695  0.00  0.00    +0.047 C 
ATOM     13  C   UNL     1      32.198  -8.021 -20.335  0.00  0.00    +0.250 C 
ATOM     14  C   UNL     1      32.745  -7.669 -22.808  0.00  0.00    +0.037 C 
ATOM     15  H   UNL     1      31.730  -8.583 -18.445  0.00  0.00    +0.159 HD
ENDBRANCH   5   8
BRANCH   3  16
ATOM     16  O   UNL     1      31.794 -15.106 -21.326  0.00  0.00    -0.382 OA
ATOM     17  H   UNL     1      31.973 -15.938 -21.790  0.00  0.00    +0.210 HD
ENDBRANCH   3  16
BRANCH   2  18
ATOM     18  C   UNL     1      33.763 -12.902 -23.607  0.00  0.00    -0.045 C 
BRANCH  18  19
ATOM     19  N   UNL     1      33.880 -13.400 -24.969  0.00  0.00    +0.389 N 
ATOM     20  C   UNL     1      32.976 -14.519 -25.236  0.00  0.00    -0.077 C 
ATOM     21  C   UNL     1      33.536 -12.387 -25.966  0.00  0.00    -0.077 C 
ATOM     22  C   UNL     1      32.979 -14.606 -26.755  0.00  0.00    -0.025 C 
ATOM     23  C   UNL     1      33.351 -13.206 -27.235  0.00  0.00    -0.025 C 
ATOM     24  H   UNL     1      34.858 -13.683 -25.045  0.00  0.00    -0.080 HD
ENDBRANCH  18  19
ENDBRANCH   2  18
TORSDOF 4
ENDMDL
MODEL 8
REMARK VINA RESULT:      -7.9      2.425      6.931
REMARK  Name = 25147495
REMARK  4 active torsions:
REMARK  status: ('A' for Active; 'I' for Inactive)
REMARK    1  A    between atoms: C_2  and  C_18
REMARK    2  A    between atoms: C_3  and  O_16
REMARK    3  A    between atoms: C_5  and  N_8
REMARK    4  A    between atoms: C_18  and  N_19
REMARK                            x       y       z     vdW  Elec       q    Type
REMARK                         _______ _______ _______ _____ _____    ______ ____
ROOT
ATOM      1  O   UNL     1      32.789 -13.494 -24.672  0.00  0.00    -0.339 OA
ATOM      2  C   UNL     1      33.112 -12.387 -25.536  0.00  0.00    +0.123 C 
ATOM      3  C   UNL     1      33.480 -12.990 -26.886  0.00  0.00    +0.140 C 
ATOM      4  C   UNL     1      34.037 -14.343 -26.509  0.00  0.00    +0.083 C 
ATOM      5  C   UNL     1      33.183 -14.717 -25.309  0.00  0.00    +0.201 C 
ENDROOT
BRANCH   5   8
ATOM      6  O   UNL     1      34.579 -17.118 -25.938  0.00  0.00    -0.252 OA
ATOM      7  O   UNL     1      35.787 -17.767 -21.549  0.00  0.00    -0.270 OA
ATOM      8  N   UNL     1      33.875 -15.544 -24.364  0.00  0.00    -0.219 N 
ATOM      9  N   UNL     1      35.173 -17.430 -23.745  0.00  0.00    -0.236 N 
ATOM     10  C   UNL     1      33.879 -15.164 -23.028  0.00  0.00    +0.071 C 
ATOM     11  C   UNL     1      34.541 -16.720 -24.772  0.00  0.00    +0.315 C 
ATOM     12  C   UNL     1      34.486 -15.845 -22.048  0.00  0.00    +0.047 C 
ATOM     13  C   UNL     1      35.208 -17.096 -22.400  0.00  0.00    +0.250 C 
ATOM     14  C   UNL     1      34.477 -15.417 -20.616  0.00  0.00    +0.037 C 
ATOM     15  H   UNL     1      35.645 -18.254 -24.006  0.00  0.00    +0.159 HD
ENDBRANCH   5   8
BRANCH   3  16
ATOM     16  O   UNL     1      32.299 -13.187 -27.659  0.00  0.00    -0.382 OA
ATOM     17  H   UNL     1      32.487 -12.996 -28.591  0.00  0.00    +0.210 HD
ENDBRANCH   3  16
BRANCH   2  18
ATOM     18  C   UNL     1      34.260 -11.616 -24.899  0.00  0.00    -0.045 C 
BRANCH  18  19
ATOM     19  N   UNL     1      33.863 -10.255 -24.570  0.00  0.00    +0.389 N 
ATOM     20  C   UNL     1      33.063 -10.186 -23.347  0.00  0.00    -0.077 C 
ATOM     21  C   UNL     1      35.011  -9.382 -24.324  0.00  0.00    -0.077 C 
ATOM     22  C   UNL     1      33.104  -8.706 -22.996  0.00  0.00    -0.025 C 
ATOM     23  C   UNL     1      34.382  -8.177 -23.641  0.00  0.00    -0.025 C 
ATOM     24  H   UNL     1      33.329  -9.950 -25.384  0.00  0.00    -0.080 HD
ENDBRANCH  18  19
ENDBRANCH   2  18
TORSDOF 4
ENDMDL
MODEL 9
REMARK VINA RESULT:      -7.8     10.123     12.702
REMARK  Name = 25147495
REMARK  4 active torsions:
REMARK  status: ('A' for Active; 'I' for Inactive)
REMARK    1  A    between atoms: C_2  and  C_18
REMARK    2  A    between atoms: C_3  and  O_16
REMARK    3  A    between atoms: C_5  and  N_8
REMARK    4  A    between atoms: C_18  and  N_19
REMARK                            x       y       z     vdW  Elec       q    Type
REMARK                         _______ _______ _______ _____ _____    ______ ____
ROOT
ATOM      1  O   UNL     1      33.546 -22.788 -14.724  0.00  0.00    -0.339 OA
ATOM      2  C   UNL     1      32.819 -23.925 -14.218  0.00  0.00    +0.123 C 
ATOM      3  C   UNL     1      33.864 -24.965 -13.835  0.00  0.00    +0.140 C 
ATOM      4  C   UNL     1      34.999 -24.669 -14.787  0.00  0.00    +0.083 C 
ATOM      5  C   UNL     1      34.917 -23.157 -14.920  0.00  0.00    +0.201 C 
ENDROOT
BRANCH   5   8
ATOM      6  O   UNL     1      37.557 -22.274 -15.522  0.00  0.00    -0.252 OA
ATOM      7  O   UNL     1      36.438 -21.365 -19.889  0.00  0.00    -0.270 OA
ATOM      8  N   UNL     1      35.360 -22.682 -16.198  0.00  0.00    -0.219 N 
ATOM      9  N   UNL     1      36.985 -21.824 -17.698  0.00  0.00    -0.236 N 
ATOM     10  C   UNL     1      34.445 -22.640 -17.243  0.00  0.00    +0.071 C 
ATOM     11  C   UNL     1      36.693 -22.264 -16.401  0.00  0.00    +0.315 C 
ATOM     12  C   UNL     1      34.729 -22.219 -18.481  0.00  0.00    +0.047 C 
ATOM     13  C   UNL     1      36.113 -21.762 -18.773  0.00  0.00    +0.250 C 
ATOM     14  C   UNL     1      33.727 -22.182 -19.591  0.00  0.00    +0.037 C 
ATOM     15  H   UNL     1      37.909 -21.527 -17.863  0.00  0.00    +0.159 HD
ENDBRANCH   5   8
BRANCH   3  16
ATOM     16  O   UNL     1      34.314 -24.721 -12.505  0.00  0.00    -0.382 OA
ATOM     17  H   UNL     1      35.268 -24.548 -12.513  0.00  0.00    +0.210 HD
ENDBRANCH   3  16
BRANCH   2  18
ATOM     18  C   UNL     1      31.879 -24.406 -15.316  0.00  0.00    -0.045 C 
BRANCH  18  19
ATOM     19  N   UNL     1      30.624 -23.670 -15.296  0.00  0.00    +0.389 N 
ATOM     20  C   UNL     1      30.447 -22.834 -16.484  0.00  0.00    -0.077 C 
ATOM     21  C   UNL     1      29.459 -24.554 -15.276  0.00  0.00    -0.077 C 
ATOM     22  C   UNL     1      28.965 -22.492 -16.441  0.00  0.00    -0.025 C 
ATOM     23  C   UNL     1      28.316 -23.620 -15.645  0.00  0.00    -0.025 C 
ATOM     24  H   UNL     1      30.682 -23.108 -14.447  0.00  0.00    -0.080 HD
ENDBRANCH  18  19
ENDBRANCH   2  18
TORSDOF 4
ENDMDL
