MODEL 1
REMARK VINA RESULT:      -8.5      0.000      0.000
REMARK  Name = 6992066
REMARK  9 active torsions:
REMARK  status: ('A' for Active; 'I' for Inactive)
REMARK    1  A    between atoms: N_2  and  C_5
REMARK    2  A    between atoms: C_3  and  C_17
REMARK    3  A    between atoms: C_5  and  C_7
REMARK    4  A    between atoms: C_5  and  C_10
REMARK    5  A    between atoms: C_7  and  O_8
REMARK    6  A    between atoms: C_10  and  C_11
REMARK    7  A    between atoms: C_17  and  N_18
REMARK    8  A    between atoms: C_17  and  C_22
REMARK    9  A    between atoms: C_22  and  C_25
REMARK                            x       y       z     vdW  Elec       q    Type
REMARK                         _______ _______ _______ _____ _____    ______ ____
ROOT
ATOM      1  O   UNL     1      35.889 -22.181 -15.748  0.00  0.00    -0.277 OA
ATOM      2  N   UNL     1      34.117 -23.682 -15.792  0.00  0.00    -0.298 N 
ATOM      3  C   UNL     1      35.356 -23.223 -15.371  0.00  0.00    +0.203 C 
ATOM      4  H   UNL     1      33.782 -24.532 -15.425  0.00  0.00    +0.150 HD
ENDROOT
BRANCH   2   5
ATOM      5  C   UNL     1      33.295 -22.969 -16.742  0.00  0.00    +0.176 C 
BRANCH   5   7
ATOM      6  O   UNL     1      30.943 -22.560 -17.115  0.00  0.00    -0.248 OA
ATOM      7  C   UNL     1      31.807 -23.148 -16.472  0.00  0.00    +0.335 C 
BRANCH   7   8
ATOM      8  O   UNL     1      31.570 -24.006 -15.441  0.00  0.00    -0.443 OA
ATOM      9  C   UNL     1      30.760 -23.493 -14.379  0.00  0.00    +0.256 C 
ENDBRANCH   7   8
ENDBRANCH   5   7
BRANCH   5  10
ATOM     10  C   UNL     1      33.666 -23.335 -18.186  0.00  0.00    +0.057 C 
BRANCH  10  11
ATOM     11  C   UNL     1      34.083 -22.164 -19.047  0.00  0.00    -0.020 C 
ATOM     12  C   UNL     1      33.110 -21.344 -19.592  0.00  0.00    -0.004 C 
ATOM     13  C   UNL     1      35.431 -21.935 -19.272  0.00  0.00    -0.004 C 
ATOM     14  C   UNL     1      33.494 -20.263 -20.386  0.00  0.00    -0.000 C 
ATOM     15  C   UNL     1      35.815 -20.854 -20.066  0.00  0.00    -0.000 C 
ATOM     16  C   UNL     1      34.847 -20.018 -20.623  0.00  0.00    -0.000 C 
ENDBRANCH  10  11
ENDBRANCH   5  10
ENDBRANCH   2   5
BRANCH   3  17
ATOM     17  C   UNL     1      36.013 -24.168 -14.378  0.00  0.00    +0.024 C 
BRANCH  17  18
ATOM     18  N   UNL     1      34.993 -25.101 -13.813  0.00  0.00    +0.388 N 
ATOM     19  H   UNL     1      35.439 -25.726 -13.143  0.00  0.00    -0.089 HD
ATOM     20  H   UNL     1      34.580 -25.649 -14.568  0.00  0.00    -0.089 HD
ATOM     21  H   UNL     1      34.264 -24.563 -13.344  0.00  0.00    -0.089 HD
ENDBRANCH  17  18
BRANCH  17  22
ATOM     22  C   UNL     1      37.112 -24.988 -15.050  0.00  0.00    +0.101 C 
BRANCH  22  25
ATOM     23  O   UNL     1      36.322 -27.014 -15.951  0.00  0.00    -0.246 OA
ATOM     24  O   UNL     1      37.507 -27.090 -14.001  0.00  0.00    -0.246 OA
ATOM     25  C   UNL     1      36.975 -26.515 -14.989  0.00  0.00    +0.363 C 
ENDBRANCH  22  25
ENDBRANCH  17  22
ENDBRANCH   3  17
TORSDOF 9
ENDMDL
MODEL 2
REMARK VINA RESULT:      -8.3      0.931      1.578
REMARK  Name = 6992066
REMARK  9 active torsions:
REMARK  status: ('A' for Active; 'I' for Inactive)
REMARK    1  A    between atoms: N_2  and  C_5
REMARK    2  A    between atoms: C_3  and  C_17
REMARK    3  A    between atoms: C_5  and  C_7
REMARK    4  A    between atoms: C_5  and  C_10
REMARK    5  A    between atoms: C_7  and  O_8
REMARK    6  A    between atoms: C_10  and  C_11
REMARK    7  A    between atoms: C_17  and  N_18
REMARK    8  A    between atoms: C_17  and  C_22
REMARK    9  A    between atoms: C_22  and  C_25
REMARK                            x       y       z     vdW  Elec       q    Type
REMARK                         _______ _______ _______ _____ _____    ______ ____
ROOT
ATOM      1  O   UNL     1      36.414 -22.150 -15.975  0.00  0.00    -0.277 OA
ATOM      2  N   UNL     1      34.793 -23.810 -15.871  0.00  0.00    -0.298 N 
ATOM      3  C   UNL     1      36.053 -23.278 -15.644  0.00  0.00    +0.203 C 
ATOM      4  H   UNL     1      34.608 -24.727 -15.562  0.00  0.00    +0.150 HD
ENDROOT
BRANCH   2   5
ATOM      5  C   UNL     1      33.740 -23.081 -16.539  0.00  0.00    +0.176 C 
BRANCH   5   7
ATOM      6  O   UNL     1      31.325 -23.139 -16.482  0.00  0.00    -0.248 OA
ATOM      7  C   UNL     1      32.383 -23.286 -15.878  0.00  0.00    +0.335 C 
BRANCH   7   8
ATOM      8  O   UNL     1      32.496 -23.624 -14.564  0.00  0.00    -0.443 OA
ATOM      9  C   UNL     1      31.724 -24.754 -14.144  0.00  0.00    +0.256 C 
ENDBRANCH   7   8
ENDBRANCH   5   7
BRANCH   5  10
ATOM     10  C   UNL     1      33.704 -23.403 -18.040  0.00  0.00    +0.057 C 
BRANCH  10  11
ATOM     11  C   UNL     1      34.016 -22.232 -18.944  0.00  0.00    -0.020 C 
ATOM     12  C   UNL     1      35.331 -21.982 -19.299  0.00  0.00    -0.004 C 
ATOM     13  C   UNL     1      32.980 -21.433 -19.399  0.00  0.00    -0.004 C 
ATOM     14  C   UNL     1      35.620 -20.902 -20.133  0.00  0.00    -0.000 C 
ATOM     15  C   UNL     1      33.269 -20.353 -20.234  0.00  0.00    -0.000 C 
ATOM     16  C   UNL     1      34.589 -20.087 -20.600  0.00  0.00    -0.000 C 
ENDBRANCH  10  11
ENDBRANCH   5  10
ENDBRANCH   2   5
BRANCH   3  17
ATOM     17  C   UNL     1      36.972 -24.258 -14.932  0.00  0.00    +0.024 C 
BRANCH  17  18
ATOM     18  N   UNL     1      37.312 -23.741 -13.574  0.00  0.00    +0.388 N 
ATOM     19  H   UNL     1      38.289 -23.948 -13.366  0.00  0.00    -0.089 HD
ATOM     20  H   UNL     1      36.714 -24.189 -12.880  0.00  0.00    -0.089 HD
ATOM     21  H   UNL     1      37.166 -22.731 -13.549  0.00  0.00    -0.089 HD
ENDBRANCH  17  18
BRANCH  17  22
ATOM     22  C   UNL     1      36.305 -25.623 -14.786  0.00  0.00    +0.101 C 
BRANCH  22  25
ATOM     23  O   UNL     1      38.120 -27.113 -14.618  0.00  0.00    -0.246 OA
ATOM     24  O   UNL     1      36.636 -27.410 -16.328  0.00  0.00    -0.246 OA
ATOM     25  C   UNL     1      37.089 -26.838 -15.298  0.00  0.00    +0.363 C 
ENDBRANCH  22  25
ENDBRANCH  17  22
ENDBRANCH   3  17
TORSDOF 9
ENDMDL
MODEL 3
REMARK VINA RESULT:      -8.2      1.584      2.041
REMARK  Name = 6992066
REMARK  9 active torsions:
REMARK  status: ('A' for Active; 'I' for Inactive)
REMARK    1  A    between atoms: N_2  and  C_5
REMARK    2  A    between atoms: C_3  and  C_17
REMARK    3  A    between atoms: C_5  and  C_7
REMARK    4  A    between atoms: C_5  and  C_10
REMARK    5  A    between atoms: C_7  and  O_8
REMARK    6  A    between atoms: C_10  and  C_11
REMARK    7  A    between atoms: C_17  and  N_18
REMARK    8  A    between atoms: C_17  and  C_22
REMARK    9  A    between atoms: C_22  and  C_25
REMARK                            x       y       z     vdW  Elec       q    Type
REMARK                         _______ _______ _______ _____ _____    ______ ____
ROOT
ATOM      1  O   UNL     1      35.996 -22.236 -15.570  0.00  0.00    -0.277 OA
ATOM      2  N   UNL     1      34.199 -23.708 -15.550  0.00  0.00    -0.298 N 
ATOM      3  C   UNL     1      35.449 -23.255 -15.153  0.00  0.00    +0.203 C 
ATOM      4  H   UNL     1      33.853 -24.539 -15.151  0.00  0.00    +0.150 HD
ENDROOT
BRANCH   2   5
ATOM      5  C   UNL     1      33.384 -23.016 -16.521  0.00  0.00    +0.176 C 
BRANCH   5   7
ATOM      6  O   UNL     1      31.033 -22.659 -16.953  0.00  0.00    -0.248 OA
ATOM      7  C   UNL     1      31.894 -23.184 -16.253  0.00  0.00    +0.335 C 
BRANCH   7   8
ATOM      8  O   UNL     1      31.652 -23.955 -15.157  0.00  0.00    -0.443 OA
ATOM      9  C   UNL     1      30.838 -23.357 -14.144  0.00  0.00    +0.256 C 
ENDBRANCH   7   8
ENDBRANCH   5   7
BRANCH   5  10
ATOM     10  C   UNL     1      33.760 -23.419 -17.954  0.00  0.00    +0.057 C 
BRANCH  10  11
ATOM     11  C   UNL     1      34.128 -22.264 -18.858  0.00  0.00    -0.020 C 
ATOM     12  C   UNL     1      33.122 -21.520 -19.450  0.00  0.00    -0.004 C 
ATOM     13  C   UNL     1      35.465 -21.972 -19.075  0.00  0.00    -0.004 C 
ATOM     14  C   UNL     1      33.460 -20.454 -20.283  0.00  0.00    -0.000 C 
ATOM     15  C   UNL     1      35.803 -20.906 -19.909  0.00  0.00    -0.000 C 
ATOM     16  C   UNL     1      34.802 -20.147 -20.513  0.00  0.00    -0.000 C 
ENDBRANCH  10  11
ENDBRANCH   5  10
ENDBRANCH   2   5
BRANCH   3  17
ATOM     17  C   UNL     1      36.095 -24.174 -14.129  0.00  0.00    +0.024 C 
BRANCH  17  18
ATOM     18  N   UNL     1      37.516 -24.434 -14.506  0.00  0.00    +0.388 N 
ATOM     19  H   UNL     1      38.006 -24.854 -13.716  0.00  0.00    -0.089 HD
ATOM     20  H   UNL     1      37.967 -23.555 -14.757  0.00  0.00    -0.089 HD
ATOM     21  H   UNL     1      37.545 -25.072 -15.302  0.00  0.00    -0.089 HD
ENDBRANCH  17  18
BRANCH  17  22
ATOM     22  C   UNL     1      36.061 -23.549 -12.737  0.00  0.00    +0.101 C 
BRANCH  22  25
ATOM     23  O   UNL     1      38.032 -22.456 -12.056  0.00  0.00    -0.246 OA
ATOM     24  O   UNL     1      37.663 -24.581 -11.307  0.00  0.00    -0.246 OA
ATOM     25  C   UNL     1      37.378 -23.534 -11.950  0.00  0.00    +0.363 C 
ENDBRANCH  22  25
ENDBRANCH  17  22
ENDBRANCH   3  17
TORSDOF 9
ENDMDL
MODEL 4
REMARK VINA RESULT:      -8.1      6.494     10.016
REMARK  Name = 6992066
REMARK  9 active torsions:
REMARK  status: ('A' for Active; 'I' for Inactive)
REMARK    1  A    between atoms: N_2  and  C_5
REMARK    2  A    between atoms: C_3  and  C_17
REMARK    3  A    between atoms: C_5  and  C_7
REMARK    4  A    between atoms: C_5  and  C_10
REMARK    5  A    between atoms: C_7  and  O_8
REMARK    6  A    between atoms: C_10  and  C_11
REMARK    7  A    between atoms: C_17  and  N_18
REMARK    8  A    between atoms: C_17  and  C_22
REMARK    9  A    between atoms: C_22  and  C_25
REMARK                            x       y       z     vdW  Elec       q    Type
REMARK                         _______ _______ _______ _____ _____    ______ ____
ROOT
ATOM      1  O   UNL     1      35.277 -16.435 -20.065  0.00  0.00    -0.277 OA
ATOM      2  N   UNL     1      34.421 -16.741 -22.203  0.00  0.00    -0.298 N 
ATOM      3  C   UNL     1      34.721 -15.998 -21.070  0.00  0.00    +0.203 C 
ATOM      4  H   UNL     1      33.973 -16.290 -22.955  0.00  0.00    +0.150 HD
ENDROOT
BRANCH   2   5
ATOM      5  C   UNL     1      34.738 -18.144 -22.329  0.00  0.00    +0.176 C 
BRANCH   5   7
ATOM      6  O   UNL     1      34.958 -19.737 -24.133  0.00  0.00    -0.248 OA
ATOM      7  C   UNL     1      34.956 -18.562 -23.777  0.00  0.00    +0.335 C 
BRANCH   7   8
ATOM      8  O   UNL     1      35.162 -17.493 -24.596  0.00  0.00    -0.443 OA
ATOM      9  C   UNL     1      34.096 -17.191 -25.503  0.00  0.00    +0.256 C 
ENDBRANCH   7   8
ENDBRANCH   5   7
BRANCH   5  10
ATOM     10  C   UNL     1      33.686 -19.018 -21.630  0.00  0.00    +0.057 C 
BRANCH  10  11
ATOM     11  C   UNL     1      34.254 -20.058 -20.691  0.00  0.00    -0.020 C 
ATOM     12  C   UNL     1      33.390 -20.891 -20.000  0.00  0.00    -0.004 C 
ATOM     13  C   UNL     1      35.628 -20.158 -20.541  0.00  0.00    -0.004 C 
ATOM     14  C   UNL     1      33.913 -21.851 -19.134  0.00  0.00    -0.000 C 
ATOM     15  C   UNL     1      36.150 -21.118 -19.674  0.00  0.00    -0.000 C 
ATOM     16  C   UNL     1      35.294 -21.964 -18.970  0.00  0.00    -0.000 C 
ENDBRANCH  10  11
ENDBRANCH   5  10
ENDBRANCH   2   5
BRANCH   3  17
ATOM     17  C   UNL     1      34.272 -14.551 -21.196  0.00  0.00    +0.024 C 
BRANCH  17  18
ATOM     18  N   UNL     1      34.511 -14.063 -22.586  0.00  0.00    +0.388 N 
ATOM     19  H   UNL     1      33.620 -13.833 -23.024  0.00  0.00    -0.089 HD
ATOM     20  H   UNL     1      34.977 -14.793 -23.126  0.00  0.00    -0.089 HD
ATOM     21  H   UNL     1      35.101 -13.232 -22.557  0.00  0.00    -0.089 HD
ENDBRANCH  17  18
BRANCH  17  22
ATOM     22  C   UNL     1      32.786 -14.412 -20.874  0.00  0.00    +0.101 C 
BRANCH  22  25
ATOM     23  O   UNL     1      31.914 -12.839 -22.394  0.00  0.00    -0.246 OA
ATOM     24  O   UNL     1      31.911 -12.310 -20.173  0.00  0.00    -0.246 OA
ATOM     25  C   UNL     1      32.136 -13.053 -21.167  0.00  0.00    +0.363 C 
ENDBRANCH  22  25
ENDBRANCH  17  22
ENDBRANCH   3  17
TORSDOF 9
ENDMDL
MODEL 5
REMARK VINA RESULT:      -8.0      2.711      5.102
REMARK  Name = 6992066
REMARK  9 active torsions:
REMARK  status: ('A' for Active; 'I' for Inactive)
REMARK    1  A    between atoms: N_2  and  C_5
REMARK    2  A    between atoms: C_3  and  C_17
REMARK    3  A    between atoms: C_5  and  C_7
REMARK    4  A    between atoms: C_5  and  C_10
REMARK    5  A    between atoms: C_7  and  O_8
REMARK    6  A    between atoms: C_10  and  C_11
REMARK    7  A    between atoms: C_17  and  N_18
REMARK    8  A    between atoms: C_17  and  C_22
REMARK    9  A    between atoms: C_22  and  C_25
REMARK                            x       y       z     vdW  Elec       q    Type
REMARK                         _______ _______ _______ _____ _____    ______ ____
ROOT
ATOM      1  O   UNL     1      36.116 -26.411 -15.655  0.00  0.00    -0.277 OA
ATOM      2  N   UNL     1      35.418 -24.788 -14.148  0.00  0.00    -0.298 N 
ATOM      3  C   UNL     1      36.275 -25.772 -14.617  0.00  0.00    +0.203 C 
ATOM      4  H   UNL     1      35.640 -24.336 -13.302  0.00  0.00    +0.150 HD
ENDROOT
BRANCH   2   5
ATOM      5  C   UNL     1      34.214 -24.395 -14.844  0.00  0.00    +0.176 C 
BRANCH   5   7
ATOM      6  O   UNL     1      33.963 -23.583 -17.106  0.00  0.00    -0.248 OA
ATOM      7  C   UNL     1      34.497 -23.455 -16.008  0.00  0.00    +0.335 C 
BRANCH   7   8
ATOM      8  O   UNL     1      35.407 -22.495 -15.685  0.00  0.00    -0.443 OA
ATOM      9  C   UNL     1      36.492 -22.332 -16.604  0.00  0.00    +0.256 C 
ENDBRANCH   7   8
ENDBRANCH   5   7
BRANCH   5  10
ATOM     10  C   UNL     1      33.173 -23.816 -13.875  0.00  0.00    +0.057 C 
BRANCH  10  11
ATOM     11  C   UNL     1      31.741 -23.926 -14.348  0.00  0.00    -0.020 C 
ATOM     12  C   UNL     1      31.095 -22.797 -14.820  0.00  0.00    -0.004 C 
ATOM     13  C   UNL     1      31.105 -25.156 -14.299  0.00  0.00    -0.004 C 
ATOM     14  C   UNL     1      29.774 -22.898 -15.257  0.00  0.00    -0.000 C 
ATOM     15  C   UNL     1      29.784 -25.257 -14.735  0.00  0.00    -0.000 C 
ATOM     16  C   UNL     1      29.118 -24.129 -15.214  0.00  0.00    -0.000 C 
ENDBRANCH  10  11
ENDBRANCH   5  10
ENDBRANCH   2   5
BRANCH   3  17
ATOM     17  C   UNL     1      37.458 -25.994 -13.689  0.00  0.00    +0.024 C 
BRANCH  17  18
ATOM     18  N   UNL     1      38.432 -26.930 -14.323  0.00  0.00    +0.388 N 
ATOM     19  H   UNL     1      38.631 -27.700 -13.683  0.00  0.00    -0.089 HD
ATOM     20  H   UNL     1      39.296 -26.431 -14.533  0.00  0.00    -0.089 HD
ATOM     21  H   UNL     1      38.034 -27.300 -15.187  0.00  0.00    -0.089 HD
ENDBRANCH  17  18
BRANCH  17  22
ATOM     22  C   UNL     1      38.168 -24.676 -13.386  0.00  0.00    +0.101 C 
BRANCH  22  25
ATOM     23  O   UNL     1      37.200 -24.741 -11.241  0.00  0.00    -0.246 OA
ATOM     24  O   UNL     1      38.813 -23.179 -11.649  0.00  0.00    -0.246 OA
ATOM     25  C   UNL     1      38.058 -24.143 -11.951  0.00  0.00    +0.363 C 
ENDBRANCH  22  25
ENDBRANCH  17  22
ENDBRANCH   3  17
TORSDOF 9
ENDMDL
MODEL 6
REMARK VINA RESULT:      -8.0      4.839      7.521
REMARK  Name = 6992066
REMARK  9 active torsions:
REMARK  status: ('A' for Active; 'I' for Inactive)
REMARK    1  A    between atoms: N_2  and  C_5
REMARK    2  A    between atoms: C_3  and  C_17
REMARK    3  A    between atoms: C_5  and  C_7
REMARK    4  A    between atoms: C_5  and  C_10
REMARK    5  A    between atoms: C_7  and  O_8
REMARK    6  A    between atoms: C_10  and  C_11
REMARK    7  A    between atoms: C_17  and  N_18
REMARK    8  A    between atoms: C_17  and  C_22
REMARK    9  A    between atoms: C_22  and  C_25
REMARK                            x       y       z     vdW  Elec       q    Type
REMARK                         _______ _______ _______ _____ _____    ______ ____
ROOT
ATOM      1  O   UNL     1      32.469 -20.234 -20.962  0.00  0.00    -0.277 OA
ATOM      2  N   UNL     1      34.595 -19.352 -20.651  0.00  0.00    -0.298 N 
ATOM      3  C   UNL     1      33.568 -20.253 -20.413  0.00  0.00    +0.203 C 
ATOM      4  H   UNL     1      35.438 -19.459 -20.155  0.00  0.00    +0.150 HD
ENDROOT
BRANCH   2   5
ATOM      5  C   UNL     1      34.483 -18.264 -21.596  0.00  0.00    +0.176 C 
BRANCH   5   7
ATOM      6  O   UNL     1      36.443 -18.461 -22.995  0.00  0.00    -0.248 OA
ATOM      7  C   UNL     1      35.223 -18.547 -22.896  0.00  0.00    +0.335 C 
BRANCH   7   8
ATOM      8  O   UNL     1      34.374 -18.878 -23.909  0.00  0.00    -0.443 OA
ATOM      9  C   UNL     1      34.429 -18.037 -25.066  0.00  0.00    +0.256 C 
ENDBRANCH   7   8
ENDBRANCH   5   7
BRANCH   5  10
ATOM     10  C   UNL     1      34.914 -16.932 -20.966  0.00  0.00    +0.057 C 
BRANCH  10  11
ATOM     11  C   UNL     1      34.168 -15.721 -21.477  0.00  0.00    -0.020 C 
ATOM     12  C   UNL     1      34.563 -15.135 -22.668  0.00  0.00    -0.004 C 
ATOM     13  C   UNL     1      33.103 -15.222 -20.745  0.00  0.00    -0.004 C 
ATOM     14  C   UNL     1      33.874 -14.018 -23.141  0.00  0.00    -0.000 C 
ATOM     15  C   UNL     1      32.415 -14.105 -21.219  0.00  0.00    -0.000 C 
ATOM     16  C   UNL     1      32.800 -13.502 -22.416  0.00  0.00    -0.000 C 
ENDBRANCH  10  11
ENDBRANCH   5  10
ENDBRANCH   2   5
BRANCH   3  17
ATOM     17  C   UNL     1      33.944 -21.290 -19.367  0.00  0.00    +0.024 C 
BRANCH  17  18
ATOM     18  N   UNL     1      32.975 -22.425 -19.405  0.00  0.00    +0.388 N 
ATOM     19  H   UNL     1      32.036 -22.077 -19.211  0.00  0.00    -0.089 HD
ATOM     20  H   UNL     1      33.234 -23.116 -18.701  0.00  0.00    -0.089 HD
ATOM     21  H   UNL     1      32.994 -22.856 -20.329  0.00  0.00    -0.089 HD
ENDBRANCH  17  18
BRANCH  17  22
ATOM     22  C   UNL     1      35.349 -21.833 -19.619  0.00  0.00    +0.101 C 
BRANCH  22  25
ATOM     23  O   UNL     1      36.959 -20.320 -18.805  0.00  0.00    -0.246 OA
ATOM     24  O   UNL     1      36.685 -22.301 -17.703  0.00  0.00    -0.246 OA
ATOM     25  C   UNL     1      36.434 -21.453 -18.603  0.00  0.00    +0.363 C 
ENDBRANCH  22  25
ENDBRANCH  17  22
ENDBRANCH   3  17
TORSDOF 9
ENDMDL
MODEL 7
REMARK VINA RESULT:      -8.0      2.258      4.943
REMARK  Name = 6992066
REMARK  9 active torsions:
REMARK  status: ('A' for Active; 'I' for Inactive)
REMARK    1  A    between atoms: N_2  and  C_5
REMARK    2  A    between atoms: C_3  and  C_17
REMARK    3  A    between atoms: C_5  and  C_7
REMARK    4  A    between atoms: C_5  and  C_10
REMARK    5  A    between atoms: C_7  and  O_8
REMARK    6  A    between atoms: C_10  and  C_11
REMARK    7  A    between atoms: C_17  and  N_18
REMARK    8  A    between atoms: C_17  and  C_22
REMARK    9  A    between atoms: C_22  and  C_25
REMARK                            x       y       z     vdW  Elec       q    Type
REMARK                         _______ _______ _______ _____ _____    ______ ____
ROOT
ATOM      1  O   UNL     1      35.927 -26.361 -15.691  0.00  0.00    -0.277 OA
ATOM      2  N   UNL     1      35.311 -24.386 -14.636  0.00  0.00    -0.298 N 
ATOM      3  C   UNL     1      36.080 -25.528 -14.801  0.00  0.00    +0.203 C 
ATOM      4  H   UNL     1      35.520 -23.783 -13.886  0.00  0.00    +0.150 HD
ENDROOT
BRANCH   2   5
ATOM      5  C   UNL     1      34.217 -24.041 -15.514  0.00  0.00    +0.176 C 
BRANCH   5   7
ATOM      6  O   UNL     1      35.705 -22.644 -16.807  0.00  0.00    -0.248 OA
ATOM      7  C   UNL     1      34.687 -23.329 -16.775  0.00  0.00    +0.335 C 
BRANCH   7   8
ATOM      8  O   UNL     1      33.845 -23.533 -17.826  0.00  0.00    -0.443 OA
ATOM      9  C   UNL     1      33.726 -22.444 -18.748  0.00  0.00    +0.256 C 
ENDBRANCH   7   8
ENDBRANCH   5   7
BRANCH   5  10
ATOM     10  C   UNL     1      33.135 -23.243 -14.772  0.00  0.00    +0.057 C 
BRANCH  10  11
ATOM     11  C   UNL     1      31.719 -23.700 -15.038  0.00  0.00    -0.020 C 
ATOM     12  C   UNL     1      31.241 -24.832 -14.401  0.00  0.00    -0.004 C 
ATOM     13  C   UNL     1      30.927 -22.976 -15.915  0.00  0.00    -0.004 C 
ATOM     14  C   UNL     1      29.934 -25.253 -14.646  0.00  0.00    -0.000 C 
ATOM     15  C   UNL     1      29.621 -23.398 -16.161  0.00  0.00    -0.000 C 
ATOM     16  C   UNL     1      29.124 -24.536 -15.527  0.00  0.00    -0.000 C 
ENDBRANCH  10  11
ENDBRANCH   5  10
ENDBRANCH   2   5
BRANCH   3  17
ATOM     17  C   UNL     1      37.156 -25.655 -13.734  0.00  0.00    +0.024 C 
BRANCH  17  18
ATOM     18  N   UNL     1      38.228 -26.583 -14.202  0.00  0.00    +0.388 N 
ATOM     19  H   UNL     1      38.010 -26.908 -15.144  0.00  0.00    -0.089 HD
ATOM     20  H   UNL     1      38.285 -27.381 -13.571  0.00  0.00    -0.089 HD
ATOM     21  H   UNL     1      39.122 -26.091 -14.211  0.00  0.00    -0.089 HD
ENDBRANCH  17  18
BRANCH  17  22
ATOM     22  C   UNL     1      37.781 -24.296 -13.426  0.00  0.00    +0.101 C 
BRANCH  22  25
ATOM     23  O   UNL     1      37.336 -24.667 -11.144  0.00  0.00    -0.246 OA
ATOM     24  O   UNL     1      38.804 -23.009 -11.701  0.00  0.00    -0.246 OA
ATOM     25  C   UNL     1      38.004 -23.953 -11.947  0.00  0.00    +0.363 C 
ENDBRANCH  22  25
ENDBRANCH  17  22
ENDBRANCH   3  17
TORSDOF 9
ENDMDL
MODEL 8
REMARK VINA RESULT:      -7.8      1.980      4.804
REMARK  Name = 6992066
REMARK  9 active torsions:
REMARK  status: ('A' for Active; 'I' for Inactive)
REMARK    1  A    between atoms: N_2  and  C_5
REMARK    2  A    between atoms: C_3  and  C_17
REMARK    3  A    between atoms: C_5  and  C_7
REMARK    4  A    between atoms: C_5  and  C_10
REMARK    5  A    between atoms: C_7  and  O_8
REMARK    6  A    between atoms: C_10  and  C_11
REMARK    7  A    between atoms: C_17  and  N_18
REMARK    8  A    between atoms: C_17  and  C_22
REMARK    9  A    between atoms: C_22  and  C_25
REMARK                            x       y       z     vdW  Elec       q    Type
REMARK                         _______ _______ _______ _____ _____    ______ ____
ROOT
ATOM      1  O   UNL     1      35.787 -26.301 -15.757  0.00  0.00    -0.277 OA
ATOM      2  N   UNL     1      35.445 -24.172 -14.894  0.00  0.00    -0.298 N 
ATOM      3  C   UNL     1      36.129 -25.370 -15.030  0.00  0.00    +0.203 C 
ATOM      4  H   UNL     1      35.808 -23.490 -14.283  0.00  0.00    +0.150 HD
ENDROOT
BRANCH   2   5
ATOM      5  C   UNL     1      34.224 -23.877 -15.608  0.00  0.00    +0.176 C 
BRANCH   5   7
ATOM      6  O   UNL     1      35.572 -22.645 -17.190  0.00  0.00    -0.248 OA
ATOM      7  C   UNL     1      34.478 -23.126 -16.908  0.00  0.00    +0.335 C 
BRANCH   7   8
ATOM      8  O   UNL     1      33.361 -23.043 -17.682  0.00  0.00    -0.443 OA
ATOM      9  C   UNL     1      33.476 -22.231 -18.855  0.00  0.00    +0.256 C 
ENDBRANCH   7   8
ENDBRANCH   5   7
BRANCH   5  10
ATOM     10  C   UNL     1      33.214 -23.149 -14.710  0.00  0.00    +0.057 C 
BRANCH  10  11
ATOM     11  C   UNL     1      31.792 -23.650 -14.824  0.00  0.00    -0.020 C 
ATOM     12  C   UNL     1      30.806 -22.792 -15.282  0.00  0.00    -0.004 C 
ATOM     13  C   UNL     1      31.504 -24.958 -14.469  0.00  0.00    -0.004 C 
ATOM     14  C   UNL     1      29.494 -23.253 -15.388  0.00  0.00    -0.000 C 
ATOM     15  C   UNL     1      30.191 -25.419 -14.576  0.00  0.00    -0.000 C 
ATOM     16  C   UNL     1      29.187 -24.568 -15.034  0.00  0.00    -0.000 C 
ENDBRANCH  10  11
ENDBRANCH   5  10
ENDBRANCH   2   5
BRANCH   3  17
ATOM     17  C   UNL     1      37.375 -25.423 -14.160  0.00  0.00    +0.024 C 
BRANCH  17  18
ATOM     18  N   UNL     1      37.591 -26.815 -13.667  0.00  0.00    +0.388 N 
ATOM     19  H   UNL     1      37.154 -27.476 -14.310  0.00  0.00    -0.089 HD
ATOM     20  H   UNL     1      37.175 -26.916 -12.741  0.00  0.00    -0.089 HD
ATOM     21  H   UNL     1      38.592 -27.004 -13.614  0.00  0.00    -0.089 HD
ENDBRANCH  17  18
BRANCH  17  22
ATOM     22  C   UNL     1      38.607 -24.982 -14.945  0.00  0.00    +0.101 C 
BRANCH  22  25
ATOM     23  O   UNL     1      40.710 -24.712 -13.921  0.00  0.00    -0.246 OA
ATOM     24  O   UNL     1      40.172 -26.769 -14.755  0.00  0.00    -0.246 OA
ATOM     25  C   UNL     1      39.959 -25.552 -14.496  0.00  0.00    +0.363 C 
ENDBRANCH  22  25
ENDBRANCH  17  22
ENDBRANCH   3  17
TORSDOF 9
ENDMDL
MODEL 9
REMARK VINA RESULT:      -7.7      2.135      4.841
REMARK  Name = 6992066
REMARK  9 active torsions:
REMARK  status: ('A' for Active; 'I' for Inactive)
REMARK    1  A    between atoms: N_2  and  C_5
REMARK    2  A    between atoms: C_3  and  C_17
REMARK    3  A    between atoms: C_5  and  C_7
REMARK    4  A    between atoms: C_5  and  C_10
REMARK    5  A    between atoms: C_7  and  O_8
REMARK    6  A    between atoms: C_10  and  C_11
REMARK    7  A    between atoms: C_17  and  N_18
REMARK    8  A    between atoms: C_17  and  C_22
REMARK    9  A    between atoms: C_22  and  C_25
REMARK                            x       y       z     vdW  Elec       q    Type
REMARK                         _______ _______ _______ _____ _____    ______ ____
ROOT
ATOM      1  O   UNL     1      35.958 -26.270 -15.731  0.00  0.00    -0.277 OA
ATOM      2  N   UNL     1      35.528 -24.138 -14.915  0.00  0.00    -0.298 N 
ATOM      3  C   UNL     1      36.252 -25.317 -15.012  0.00  0.00    +0.203 C 
ATOM      4  H   UNL     1      35.854 -23.436 -14.307  0.00  0.00    +0.150 HD
ENDROOT
BRANCH   2   5
ATOM      5  C   UNL     1      34.319 -23.893 -15.667  0.00  0.00    +0.176 C 
BRANCH   5   7
ATOM      6  O   UNL     1      33.759 -23.093 -17.877  0.00  0.00    -0.248 OA
ATOM      7  C   UNL     1      34.586 -23.154 -16.971  0.00  0.00    +0.335 C 
BRANCH   7   8
ATOM      8  O   UNL     1      35.831 -22.604 -17.006  0.00  0.00    -0.443 OA
ATOM      9  C   UNL     1      36.135 -21.828 -18.169  0.00  0.00    +0.256 C 
ENDBRANCH   7   8
ENDBRANCH   5   7
BRANCH   5  10
ATOM     10  C   UNL     1      33.263 -23.183 -14.808  0.00  0.00    +0.057 C 
BRANCH  10  11
ATOM     11  C   UNL     1      31.850 -23.685 -15.002  0.00  0.00    -0.020 C 
ATOM     12  C   UNL     1      31.475 -24.890 -14.433  0.00  0.00    -0.004 C 
ATOM     13  C   UNL     1      30.958 -22.929 -15.746  0.00  0.00    -0.004 C 
ATOM     14  C   UNL     1      30.171 -25.353 -14.611  0.00  0.00    -0.000 C 
ATOM     15  C   UNL     1      29.655 -23.392 -15.924  0.00  0.00    -0.000 C 
ATOM     16  C   UNL     1      29.261 -24.604 -15.358  0.00  0.00    -0.000 C 
ENDBRANCH  10  11
ENDBRANCH   5  10
ENDBRANCH   2   5
BRANCH   3  17
ATOM     17  C   UNL     1      37.474 -25.318 -14.108  0.00  0.00    +0.024 C 
BRANCH  17  18
ATOM     18  N   UNL     1      37.105 -25.829 -12.755  0.00  0.00    +0.388 N 
ATOM     19  H   UNL     1      37.701 -25.392 -12.052  0.00  0.00    -0.089 HD
ATOM     20  H   UNL     1      37.234 -26.840 -12.728  0.00  0.00    -0.089 HD
ATOM     21  H   UNL     1      36.130 -25.603 -12.562  0.00  0.00    -0.089 HD
ENDBRANCH  17  18
BRANCH  17  22
ATOM     22  C   UNL     1      38.578 -26.202 -14.685  0.00  0.00    +0.101 C 
BRANCH  22  25
ATOM     23  O   UNL     1      40.650 -25.995 -15.783  0.00  0.00    -0.246 OA
ATOM     24  O   UNL     1      40.301 -24.757 -13.897  0.00  0.00    -0.246 OA
ATOM     25  C   UNL     1      39.977 -25.583 -14.794  0.00  0.00    +0.363 C 
ENDBRANCH  22  25
ENDBRANCH  17  22
ENDBRANCH   3  17
TORSDOF 9
ENDMDL
