MODEL 1
REMARK VINA RESULT:     -11.6      0.000      0.000
REMARK  Name = 60149
REMARK  5 active torsions:
REMARK  status: ('A' for Active; 'I' for Inactive)
REMARK    1  A    between atoms: N_2  and  C_12
REMARK    2  A    between atoms: C_3  and  C_19
REMARK    3  A    between atoms: N_18  and  C_25
REMARK    4  A    between atoms: C_25  and  C_26
REMARK    5  A    between atoms: C_26  and  N_28
REMARK                            x       y       z     vdW  Elec       q    Type
REMARK                         _______ _______ _______ _____ _____    ______ ____
ROOT
ATOM      1 CL   UNL     1      38.521 -23.395 -15.307  0.00  0.00    -0.082 Cl
ATOM      2  N   UNL     1      32.849 -23.266 -16.702  0.00  0.00    -0.265 N 
ATOM      3  C   UNL     1      34.195 -22.321 -18.185  0.00  0.00    -0.006 C 
ATOM      4  C   UNL     1      34.993 -22.808 -17.116  0.00  0.00    +0.012 C 
ATOM      5  C   UNL     1      32.884 -22.615 -17.906  0.00  0.00    +0.065 C 
ATOM      6  C   UNL     1      34.123 -23.398 -16.197  0.00  0.00    +0.055 C 
ATOM      7  C   UNL     1      36.375 -22.806 -16.838  0.00  0.00    +0.012 C 
ATOM      8  C   UNL     1      34.567 -23.989 -15.009  0.00  0.00    +0.016 C 
ATOM      9  C   UNL     1      36.832 -23.392 -15.653  0.00  0.00    +0.058 C 
ATOM     10  C   UNL     1      35.941 -23.974 -14.753  0.00  0.00    +0.013 C 
ENDROOT
BRANCH   2  12
ATOM     11  F   UNL     1      28.229 -25.073 -14.302  0.00  0.00    -0.204 F 
ATOM     12  C   UNL     1      31.677 -23.724 -16.094  0.00  0.00    +0.056 C 
ATOM     13  C   UNL     1      31.751 -24.731 -15.143  0.00  0.00    +0.017 C 
ATOM     14  C   UNL     1      30.459 -23.163 -16.450  0.00  0.00    +0.017 C 
ATOM     15  C   UNL     1      30.581 -25.190 -14.536  0.00  0.00    +0.031 C 
ATOM     16  C   UNL     1      29.290 -23.622 -15.843  0.00  0.00    +0.031 C 
ATOM     17  C   UNL     1      29.351 -24.634 -14.886  0.00  0.00    +0.140 C 
ENDBRANCH   2  12
BRANCH   3  19
ATOM     18  N   UNL     1      35.553 -19.211 -20.885  0.00  0.00    +0.388 N 
ATOM     19  C   UNL     1      34.693 -21.602 -19.419  0.00  0.00    +0.019 C 
ATOM     20  C   UNL     1      33.700 -20.547 -19.933  0.00  0.00    -0.018 C 
ATOM     21  C   UNL     1      36.075 -20.961 -19.216  0.00  0.00    -0.018 C 
ATOM     22  C   UNL     1      34.247 -19.824 -21.166  0.00  0.00    -0.077 C 
ATOM     23  C   UNL     1      36.536 -20.222 -20.474  0.00  0.00    -0.077 C 
ATOM     24  H   UNL     1      35.433 -18.556 -20.113  0.00  0.00    -0.080 HD
BRANCH  18  25
ATOM     25  C   UNL     1      36.034 -18.476 -22.056  0.00  0.00    -0.055 C 
BRANCH  25  26
ATOM     26  C   UNL     1      34.975 -18.470 -23.148  0.00  0.00    +0.077 C 
BRANCH  26  28
ATOM     27  O   UNL     1      34.671 -17.191 -25.851  0.00  0.00    -0.252 OA
ATOM     28  N   UNL     1      34.592 -17.127 -23.493  0.00  0.00    -0.243 N 
ATOM     29  N   UNL     1      34.042 -15.273 -24.665  0.00  0.00    -0.266 N 
ATOM     30  C   UNL     1      34.197 -16.150 -22.494  0.00  0.00    +0.085 C 
ATOM     31  C   UNL     1      33.943 -14.875 -23.283  0.00  0.00    +0.082 C 
ATOM     32  C   UNL     1      34.463 -16.606 -24.795  0.00  0.00    +0.311 C 
ATOM     33  H   UNL     1      33.840 -14.681 -25.425  0.00  0.00    +0.157 HD
ENDBRANCH  26  28
ENDBRANCH  25  26
ENDBRANCH  18  25
ENDBRANCH   3  19
TORSDOF 5
ENDMDL
MODEL 2
REMARK VINA RESULT:     -11.5      6.141     10.326
REMARK  Name = 60149
REMARK  5 active torsions:
REMARK  status: ('A' for Active; 'I' for Inactive)
REMARK    1  A    between atoms: N_2  and  C_12
REMARK    2  A    between atoms: C_3  and  C_19
REMARK    3  A    between atoms: N_18  and  C_25
REMARK    4  A    between atoms: C_25  and  C_26
REMARK    5  A    between atoms: C_26  and  N_28
REMARK                            x       y       z     vdW  Elec       q    Type
REMARK                         _______ _______ _______ _____ _____    ______ ____
ROOT
ATOM      1 CL   UNL     1      33.415 -14.016 -27.374  0.00  0.00    -0.082 Cl
ATOM      2  N   UNL     1      33.776 -16.435 -22.068  0.00  0.00    -0.265 N 
ATOM      3  C   UNL     1      32.815 -14.440 -22.120  0.00  0.00    -0.006 C 
ATOM      4  C   UNL     1      33.185 -14.783 -23.447  0.00  0.00    +0.012 C 
ATOM      5  C   UNL     1      33.188 -15.470 -21.294  0.00  0.00    +0.065 C 
ATOM      6  C   UNL     1      33.787 -16.041 -23.388  0.00  0.00    +0.055 C 
ATOM      7  C   UNL     1      33.068 -14.145 -24.698  0.00  0.00    +0.012 C 
ATOM      8  C   UNL     1      34.279 -16.697 -24.522  0.00  0.00    +0.016 C 
ATOM      9  C   UNL     1      33.556 -14.789 -25.840  0.00  0.00    +0.058 C 
ATOM     10  C   UNL     1      34.152 -16.045 -25.752  0.00  0.00    +0.013 C 
ENDROOT
BRANCH   2  12
ATOM     11  F   UNL     1      35.768 -21.184 -20.106  0.00  0.00    -0.204 F 
ATOM     12  C   UNL     1      34.281 -17.639 -21.570  0.00  0.00    +0.056 C 
ATOM     13  C   UNL     1      33.401 -18.633 -21.167  0.00  0.00    +0.017 C 
ATOM     14  C   UNL     1      35.654 -17.820 -21.489  0.00  0.00    +0.017 C 
ATOM     15  C   UNL     1      33.906 -19.835 -20.669  0.00  0.00    +0.031 C 
ATOM     16  C   UNL     1      36.158 -19.022 -20.990  0.00  0.00    +0.031 C 
ATOM     17  C   UNL     1      35.284 -20.030 -20.582  0.00  0.00    +0.140 C 
ENDBRANCH   2  12
BRANCH   3  19
ATOM     18  N   UNL     1      32.126 -10.423 -20.640  0.00  0.00    +0.388 N 
ATOM     19  C   UNL     1      32.130 -13.165 -21.682  0.00  0.00    +0.019 C 
ATOM     20  C   UNL     1      32.363 -12.845 -20.196  0.00  0.00    -0.018 C 
ATOM     21  C   UNL     1      32.524 -11.954 -22.543  0.00  0.00    -0.018 C 
ATOM     22  C   UNL     1      31.676 -11.538 -19.795  0.00  0.00    -0.077 C 
ATOM     23  C   UNL     1      31.832 -10.678 -22.056  0.00  0.00    -0.077 C 
ATOM     24  H   UNL     1      33.137 -10.338 -20.539  0.00  0.00    -0.080 HD
BRANCH  18  25
ATOM     25  C   UNL     1      31.504  -9.170 -20.207  0.00  0.00    -0.055 C 
BRANCH  25  26
ATOM     26  C   UNL     1      32.529  -8.046 -20.202  0.00  0.00    +0.077 C 
BRANCH  26  28
ATOM     27  O   UNL     1      34.042  -8.001 -22.799  0.00  0.00    -0.252 OA
ATOM     28  N   UNL     1      32.368  -7.190 -21.346  0.00  0.00    -0.243 N 
ATOM     29  N   UNL     1      32.605  -6.250 -23.389  0.00  0.00    -0.266 N 
ATOM     30  C   UNL     1      31.312  -6.197 -21.432  0.00  0.00    +0.085 C 
ATOM     31  C   UNL     1      31.554  -5.494 -22.758  0.00  0.00    +0.082 C 
ATOM     32  C   UNL     1      33.118  -7.241 -22.538  0.00  0.00    +0.311 C 
ATOM     33  H   UNL     1      32.926  -6.090 -24.306  0.00  0.00    +0.157 HD
ENDBRANCH  26  28
ENDBRANCH  25  26
ENDBRANCH  18  25
ENDBRANCH   3  19
TORSDOF 5
ENDMDL
MODEL 3
REMARK VINA RESULT:     -11.4      6.932     13.030
REMARK  Name = 60149
REMARK  5 active torsions:
REMARK  status: ('A' for Active; 'I' for Inactive)
REMARK    1  A    between atoms: N_2  and  C_12
REMARK    2  A    between atoms: C_3  and  C_19
REMARK    3  A    between atoms: N_18  and  C_25
REMARK    4  A    between atoms: C_25  and  C_26
REMARK    5  A    between atoms: C_26  and  N_28
REMARK                            x       y       z     vdW  Elec       q    Type
REMARK                         _______ _______ _______ _____ _____    ______ ____
ROOT
ATOM      1 CL   UNL     1      31.085 -11.323 -17.545  0.00  0.00    -0.082 Cl
ATOM      2  N   UNL     1      32.542  -9.627 -22.943  0.00  0.00    -0.265 N 
ATOM      3  C   UNL     1      32.562 -11.817 -22.617  0.00  0.00    -0.006 C 
ATOM      4  C   UNL     1      32.181 -11.196 -21.398  0.00  0.00    +0.012 C 
ATOM      5  C   UNL     1      32.777 -10.832 -23.548  0.00  0.00    +0.065 C 
ATOM      6  C   UNL     1      32.176  -9.819 -21.630  0.00  0.00    +0.055 C 
ATOM      7  C   UNL     1      31.839 -11.670 -20.116  0.00  0.00    +0.012 C 
ATOM      8  C   UNL     1      31.844  -8.888 -20.638  0.00  0.00    +0.016 C 
ATOM      9  C   UNL     1      31.506 -10.751 -19.115  0.00  0.00    +0.058 C 
ATOM     10  C   UNL     1      31.509  -9.381 -19.375  0.00  0.00    +0.013 C 
ENDROOT
BRANCH   2  12
ATOM     11  F   UNL     1      33.005  -4.756 -25.479  0.00  0.00    -0.204 F 
ATOM     12  C   UNL     1      32.659  -8.392 -23.586  0.00  0.00    +0.056 C 
ATOM     13  C   UNL     1      33.919  -7.905 -23.904  0.00  0.00    +0.017 C 
ATOM     14  C   UNL     1      31.514  -7.673 -23.896  0.00  0.00    +0.017 C 
ATOM     15  C   UNL     1      34.036  -6.671 -24.545  0.00  0.00    +0.031 C 
ATOM     16  C   UNL     1      31.632  -6.439 -24.537  0.00  0.00    +0.031 C 
ATOM     17  C   UNL     1      32.892  -5.939 -24.862  0.00  0.00    +0.140 C 
ENDBRANCH   2  12
BRANCH   3  19
ATOM     18  N   UNL     1      34.283 -15.750 -23.225  0.00  0.00    +0.388 N 
ATOM     19  C   UNL     1      32.708 -13.303 -22.858  0.00  0.00    +0.019 C 
ATOM     20  C   UNL     1      33.444 -13.623 -24.169  0.00  0.00    -0.018 C 
ATOM     21  C   UNL     1      33.391 -14.029 -21.688  0.00  0.00    -0.018 C 
ATOM     22  C   UNL     1      33.595 -15.133 -24.367  0.00  0.00    -0.077 C 
ATOM     23  C   UNL     1      33.546 -15.525 -21.976  0.00  0.00    -0.077 C 
ATOM     24  H   UNL     1      35.199 -15.311 -23.134  0.00  0.00    -0.080 HD
BRANCH  18  25
ATOM     25  C   UNL     1      34.471 -17.183 -23.456  0.00  0.00    -0.055 C 
BRANCH  25  26
ATOM     26  C   UNL     1      35.722 -17.674 -22.742  0.00  0.00    +0.077 C 
BRANCH  26  28
ATOM     27  O   UNL     1      37.531 -19.203 -20.892  0.00  0.00    -0.252 OA
ATOM     28  N   UNL     1      35.404 -18.689 -21.774  0.00  0.00    -0.243 N 
ATOM     29  N   UNL     1      35.573 -20.236 -20.134  0.00  0.00    -0.266 N 
ATOM     30  C   UNL     1      34.037 -19.090 -21.488  0.00  0.00    +0.085 C 
ATOM     31  C   UNL     1      34.172 -20.211 -20.470  0.00  0.00    +0.082 C 
ATOM     32  C   UNL     1      36.317 -19.354 -20.933  0.00  0.00    +0.311 C 
ATOM     33  H   UNL     1      35.961 -20.804 -19.429  0.00  0.00    +0.157 HD
ENDBRANCH  26  28
ENDBRANCH  25  26
ENDBRANCH  18  25
ENDBRANCH   3  19
TORSDOF 5
ENDMDL
MODEL 4
REMARK VINA RESULT:     -10.4      9.594     13.486
REMARK  Name = 60149
REMARK  5 active torsions:
REMARK  status: ('A' for Active; 'I' for Inactive)
REMARK    1  A    between atoms: N_2  and  C_12
REMARK    2  A    between atoms: C_3  and  C_19
REMARK    3  A    between atoms: N_18  and  C_25
REMARK    4  A    between atoms: C_25  and  C_26
REMARK    5  A    between atoms: C_26  and  N_28
REMARK                            x       y       z     vdW  Elec       q    Type
REMARK                         _______ _______ _______ _____ _____    ______ ____
ROOT
ATOM      1 CL   UNL     1      30.979 -10.863 -18.503  0.00  0.00    -0.082 Cl
ATOM      2  N   UNL     1      33.150 -12.703 -23.606  0.00  0.00    -0.265 N 
ATOM      3  C   UNL     1      32.722 -10.533 -23.504  0.00  0.00    -0.006 C 
ATOM      4  C   UNL     1      32.374 -11.108 -22.253  0.00  0.00    +0.012 C 
ATOM      5  C   UNL     1      33.195 -11.533 -24.315  0.00  0.00    +0.065 C 
ATOM      6  C   UNL     1      32.653 -12.473 -22.343  0.00  0.00    +0.055 C 
ATOM      7  C   UNL     1      31.848 -10.600 -21.048  0.00  0.00    +0.012 C 
ATOM      8  C   UNL     1      32.431 -13.360 -21.283  0.00  0.00    +0.016 C 
ATOM      9  C   UNL     1      31.621 -11.476 -19.981  0.00  0.00    +0.058 C 
ATOM     10  C   UNL     1      31.908 -12.835 -20.098  0.00  0.00    +0.013 C 
ENDROOT
BRANCH   2  12
ATOM     11  F   UNL     1      34.757 -17.585 -25.596  0.00  0.00    -0.204 F 
ATOM     12  C   UNL     1      33.557 -13.941 -24.110  0.00  0.00    +0.056 C 
ATOM     13  C   UNL     1      33.078 -14.368 -25.340  0.00  0.00    +0.017 C 
ATOM     14  C   UNL     1      34.435 -14.722 -23.373  0.00  0.00    +0.017 C 
ATOM     15  C   UNL     1      33.484 -15.605 -25.843  0.00  0.00    +0.031 C 
ATOM     16  C   UNL     1      34.841 -15.959 -23.876  0.00  0.00    +0.031 C 
ATOM     17  C   UNL     1      34.366 -16.399 -25.112  0.00  0.00    +0.140 C 
ENDBRANCH   2  12
BRANCH   3  19
ATOM     18  N   UNL     1      32.049  -6.254 -23.294  0.00  0.00    +0.388 N 
ATOM     19  C   UNL     1      32.596  -9.075 -23.885  0.00  0.00    +0.019 C 
ATOM     20  C   UNL     1      31.170  -8.532 -23.694  0.00  0.00    -0.018 C 
ATOM     21  C   UNL     1      33.598  -8.178 -23.142  0.00  0.00    -0.018 C 
ATOM     22  C   UNL     1      31.086  -7.050 -24.067  0.00  0.00    -0.077 C 
ATOM     23  C   UNL     1      33.425  -6.708 -23.533  0.00  0.00    -0.077 C 
ATOM     24  H   UNL     1      31.843  -6.384 -22.304  0.00  0.00    -0.080 HD
BRANCH  18  25
ATOM     25  C   UNL     1      31.916  -4.834 -23.620  0.00  0.00    -0.055 C 
BRANCH  25  26
ATOM     26  C   UNL     1      31.034  -4.654 -24.847  0.00  0.00    +0.077 C 
BRANCH  26  28
ATOM     27  O   UNL     1      33.251  -5.211 -26.799  0.00  0.00    -0.252 OA
ATOM     28  N   UNL     1      31.653  -3.784 -25.810  0.00  0.00    -0.243 N 
ATOM     29  N   UNL     1      32.961  -2.988 -27.474  0.00  0.00    -0.266 N 
ATOM     30  C   UNL     1      31.196  -2.423 -26.034  0.00  0.00    +0.085 C 
ATOM     31  C   UNL     1      32.157  -1.862 -27.071  0.00  0.00    +0.082 C 
ATOM     32  C   UNL     1      32.687  -4.128 -26.701  0.00  0.00    +0.311 C 
ATOM     33  H   UNL     1      33.622  -2.961 -28.203  0.00  0.00    +0.157 HD
ENDBRANCH  26  28
ENDBRANCH  25  26
ENDBRANCH  18  25
ENDBRANCH   3  19
TORSDOF 5
ENDMDL
MODEL 5
REMARK VINA RESULT:     -10.2      9.147     13.008
REMARK  Name = 60149
REMARK  5 active torsions:
REMARK  status: ('A' for Active; 'I' for Inactive)
REMARK    1  A    between atoms: N_2  and  C_12
REMARK    2  A    between atoms: C_3  and  C_19
REMARK    3  A    between atoms: N_18  and  C_25
REMARK    4  A    between atoms: C_25  and  C_26
REMARK    5  A    between atoms: C_26  and  N_28
REMARK                            x       y       z     vdW  Elec       q    Type
REMARK                         _______ _______ _______ _____ _____    ______ ____
ROOT
ATOM      1 CL   UNL     1      31.168 -11.171 -18.795  0.00  0.00    -0.082 Cl
ATOM      2  N   UNL     1      33.493 -13.459 -23.642  0.00  0.00    -0.265 N 
ATOM      3  C   UNL     1      33.143 -11.274 -23.718  0.00  0.00    -0.006 C 
ATOM      4  C   UNL     1      32.718 -11.741 -22.446  0.00  0.00    +0.012 C 
ATOM      5  C   UNL     1      33.614 -12.347 -24.431  0.00  0.00    +0.065 C 
ATOM      6  C   UNL     1      32.949 -13.118 -22.423  0.00  0.00    +0.055 C 
ATOM      7  C   UNL     1      32.158 -11.128 -21.307  0.00  0.00    +0.012 C 
ATOM      8  C   UNL     1      32.647 -13.916 -21.313  0.00  0.00    +0.016 C 
ATOM      9  C   UNL     1      31.851 -11.914 -20.191  0.00  0.00    +0.058 C 
ATOM     10  C   UNL     1      32.092 -13.287 -20.196  0.00  0.00    +0.013 C 
ENDROOT
BRANCH   2  12
ATOM     11  F   UNL     1      35.003 -18.528 -25.191  0.00  0.00    -0.204 F 
ATOM     12  C   UNL     1      33.876 -14.744 -24.035  0.00  0.00    +0.056 C 
ATOM     13  C   UNL     1      34.760 -15.464 -23.245  0.00  0.00    +0.017 C 
ATOM     14  C   UNL     1      33.365 -15.279 -25.208  0.00  0.00    +0.017 C 
ATOM     15  C   UNL     1      35.143 -16.747 -23.638  0.00  0.00    +0.031 C 
ATOM     16  C   UNL     1      33.748 -16.562 -25.601  0.00  0.00    +0.031 C 
ATOM     17  C   UNL     1      34.636 -17.296 -24.816  0.00  0.00    +0.140 C 
ENDBRANCH   2  12
BRANCH   3  19
ATOM     18  N   UNL     1      33.142  -6.938 -23.816  0.00  0.00    +0.388 N 
ATOM     19  C   UNL     1      33.089  -9.845 -24.210  0.00  0.00    +0.019 C 
ATOM     20  C   UNL     1      31.891  -9.066 -23.642  0.00  0.00    -0.018 C 
ATOM     21  C   UNL     1      34.389  -9.072 -23.936  0.00  0.00    -0.018 C 
ATOM     22  C   UNL     1      31.882  -7.620 -24.142  0.00  0.00    -0.077 C 
ATOM     23  C   UNL     1      34.289  -7.625 -24.424  0.00  0.00    -0.077 C 
ATOM     24  H   UNL     1      33.261  -6.963 -22.804  0.00  0.00    -0.080 HD
BRANCH  18  25
ATOM     25  C   UNL     1      33.095  -5.541 -24.249  0.00  0.00    -0.055 C 
BRANCH  25  26
ATOM     26  C   UNL     1      31.682  -5.168 -24.675  0.00  0.00    +0.077 C 
BRANCH  26  28
ATOM     27  O   UNL     1      30.215  -5.160 -22.052  0.00  0.00    -0.252 OA
ATOM     28  N   UNL     1      31.181  -4.063 -23.904  0.00  0.00    -0.243 N 
ATOM     29  N   UNL     1      30.230  -2.829 -22.265  0.00  0.00    -0.266 N 
ATOM     30  C   UNL     1      31.404  -2.680 -24.291  0.00  0.00    +0.085 C 
ATOM     31  C   UNL     1      30.660  -1.865 -23.246  0.00  0.00    +0.082 C 
ATOM     32  C   UNL     1      30.508  -4.144 -22.670  0.00  0.00    +0.311 C 
ATOM     33  H   UNL     1      29.793  -2.593 -21.415  0.00  0.00    +0.157 HD
ENDBRANCH  26  28
ENDBRANCH  25  26
ENDBRANCH  18  25
ENDBRANCH   3  19
TORSDOF 5
ENDMDL
MODEL 6
REMARK VINA RESULT:      -9.9      7.018     13.274
REMARK  Name = 60149
REMARK  5 active torsions:
REMARK  status: ('A' for Active; 'I' for Inactive)
REMARK    1  A    between atoms: N_2  and  C_12
REMARK    2  A    between atoms: C_3  and  C_19
REMARK    3  A    between atoms: N_18  and  C_25
REMARK    4  A    between atoms: C_25  and  C_26
REMARK    5  A    between atoms: C_26  and  N_28
REMARK                            x       y       z     vdW  Elec       q    Type
REMARK                         _______ _______ _______ _____ _____    ______ ____
ROOT
ATOM      1 CL   UNL     1      36.402 -10.808 -26.858  0.00  0.00    -0.082 Cl
ATOM      2  N   UNL     1      32.476  -9.350 -22.784  0.00  0.00    -0.265 N 
ATOM      3  C   UNL     1      32.819 -11.525 -23.011  0.00  0.00    -0.006 C 
ATOM      4  C   UNL     1      33.654 -10.851 -23.940  0.00  0.00    +0.012 C 
ATOM      5  C   UNL     1      32.107 -10.581 -22.315  0.00  0.00    +0.065 C 
ATOM      6  C   UNL     1      33.420  -9.484 -23.777  0.00  0.00    +0.055 C 
ATOM      7  C   UNL     1      34.590 -11.268 -24.908  0.00  0.00    +0.012 C 
ATOM      8  C   UNL     1      34.079  -8.509 -24.536  0.00  0.00    +0.016 C 
ATOM      9  C   UNL     1      35.255 -10.304 -25.674  0.00  0.00    +0.058 C 
ATOM     10  C   UNL     1      35.002  -8.947 -25.490  0.00  0.00    +0.013 C 
ENDROOT
BRANCH   2  12
ATOM     11  F   UNL     1      30.435  -4.589 -20.901  0.00  0.00    -0.204 F 
ATOM     12  C   UNL     1      31.959  -8.142 -22.306  0.00  0.00    +0.056 C 
ATOM     13  C   UNL     1      31.050  -7.436 -23.081  0.00  0.00    +0.017 C 
ATOM     14  C   UNL     1      32.362  -7.671 -21.066  0.00  0.00    +0.017 C 
ATOM     15  C   UNL     1      30.535  -6.230 -22.605  0.00  0.00    +0.031 C 
ATOM     16  C   UNL     1      31.846  -6.465 -20.590  0.00  0.00    +0.031 C 
ATOM     17  C   UNL     1      30.931  -5.745 -21.359  0.00  0.00    +0.140 C 
ENDBRANCH   2  12
BRANCH   3  19
ATOM     18  N   UNL     1      33.564 -15.564 -21.619  0.00  0.00    +0.388 N 
ATOM     19  C   UNL     1      32.722 -13.022 -22.816  0.00  0.00    +0.019 C 
ATOM     20  C   UNL     1      33.995 -13.762 -23.260  0.00  0.00    -0.018 C 
ATOM     21  C   UNL     1      32.370 -13.411 -21.372  0.00  0.00    -0.018 C 
ATOM     22  C   UNL     1      33.870 -15.269 -23.026  0.00  0.00    -0.077 C 
ATOM     23  C   UNL     1      32.305 -14.932 -21.206  0.00  0.00    -0.077 C 
ATOM     24  H   UNL     1      34.314 -15.177 -21.047  0.00  0.00    -0.080 HD
BRANCH  18  25
ATOM     25  C   UNL     1      33.506 -17.010 -21.401  0.00  0.00    -0.055 C 
BRANCH  25  26
ATOM     26  C   UNL     1      34.832 -17.655 -21.778  0.00  0.00    +0.077 C 
BRANCH  26  28
ATOM     27  O   UNL     1      37.343 -19.078 -20.942  0.00  0.00    -0.252 OA
ATOM     28  N   UNL     1      34.996 -18.926 -21.126  0.00  0.00    -0.243 N 
ATOM     29  N   UNL     1      35.907 -20.736 -20.125  0.00  0.00    -0.266 N 
ATOM     30  C   UNL     1      33.866 -19.724 -20.682  0.00  0.00    +0.085 C 
ATOM     31  C   UNL     1      34.489 -20.990 -20.116  0.00  0.00    +0.082 C 
ATOM     32  C   UNL     1      36.217 -19.522 -20.757  0.00  0.00    +0.311 C 
ATOM     33  H   UNL     1      36.578 -21.343 -19.734  0.00  0.00    +0.157 HD
ENDBRANCH  26  28
ENDBRANCH  25  26
ENDBRANCH  18  25
ENDBRANCH   3  19
TORSDOF 5
ENDMDL
MODEL 7
REMARK VINA RESULT:      -9.7      4.718     10.211
REMARK  Name = 60149
REMARK  5 active torsions:
REMARK  status: ('A' for Active; 'I' for Inactive)
REMARK    1  A    between atoms: N_2  and  C_12
REMARK    2  A    between atoms: C_3  and  C_19
REMARK    3  A    between atoms: N_18  and  C_25
REMARK    4  A    between atoms: C_25  and  C_26
REMARK    5  A    between atoms: C_26  and  N_28
REMARK                            x       y       z     vdW  Elec       q    Type
REMARK                         _______ _______ _______ _____ _____    ______ ____
ROOT
ATOM      1 CL   UNL     1      35.364 -20.588 -25.867  0.00  0.00    -0.082 Cl
ATOM      2  N   UNL     1      33.719 -16.296 -22.260  0.00  0.00    -0.265 N 
ATOM      3  C   UNL     1      34.002 -18.268 -21.293  0.00  0.00    -0.006 C 
ATOM      4  C   UNL     1      34.285 -18.414 -22.678  0.00  0.00    +0.012 C 
ATOM      5  C   UNL     1      33.658 -16.960 -21.065  0.00  0.00    +0.065 C 
ATOM      6  C   UNL     1      34.100 -17.160 -23.263  0.00  0.00    +0.055 C 
ATOM      7  C   UNL     1      34.681 -19.492 -23.494  0.00  0.00    +0.012 C 
ATOM      8  C   UNL     1      34.293 -16.929 -24.630  0.00  0.00    +0.016 C 
ATOM      9  C   UNL     1      34.877 -19.275 -24.862  0.00  0.00    +0.058 C 
ATOM     10  C   UNL     1      34.685 -18.012 -25.420  0.00  0.00    +0.013 C 
ENDROOT
BRANCH   2  12
ATOM     11  F   UNL     1      32.598 -10.936 -22.880  0.00  0.00    -0.204 F 
ATOM     12  C   UNL     1      33.435 -14.937 -22.417  0.00  0.00    +0.056 C 
ATOM     13  C   UNL     1      34.135 -14.198 -23.359  0.00  0.00    +0.017 C 
ATOM     14  C   UNL     1      32.457 -14.349 -21.628  0.00  0.00    +0.017 C 
ATOM     15  C   UNL     1      33.852 -12.840 -23.515  0.00  0.00    +0.031 C 
ATOM     16  C   UNL     1      32.174 -12.992 -21.784  0.00  0.00    +0.031 C 
ATOM     17  C   UNL     1      32.871 -12.238 -22.728  0.00  0.00    +0.140 C 
ENDBRANCH   2  12
BRANCH   3  19
ATOM     18  N   UNL     1      34.089 -22.163 -19.391  0.00  0.00    +0.388 N 
ATOM     19  C   UNL     1      34.066 -19.358 -20.247  0.00  0.00    +0.019 C 
ATOM     20  C   UNL     1      32.794 -20.221 -20.211  0.00  0.00    -0.018 C 
ATOM     21  C   UNL     1      35.302 -20.258 -20.402  0.00  0.00    -0.018 C 
ATOM     22  C   UNL     1      32.903 -21.327 -19.159  0.00  0.00    -0.077 C 
ATOM     23  C   UNL     1      35.320 -21.364 -19.343  0.00  0.00    -0.077 C 
ATOM     24  H   UNL     1      34.012 -22.568 -20.324  0.00  0.00    -0.080 HD
BRANCH  18  25
ATOM     25  C   UNL     1      34.147 -23.250 -18.412  0.00  0.00    -0.055 C 
BRANCH  25  26
ATOM     26  C   UNL     1      34.852 -22.783 -17.146  0.00  0.00    +0.077 C 
BRANCH  26  28
ATOM     27  O   UNL     1      36.292 -24.858 -15.517  0.00  0.00    -0.252 OA
ATOM     28  N   UNL     1      34.405 -23.525 -15.998  0.00  0.00    -0.243 N 
ATOM     29  N   UNL     1      34.341 -24.927 -14.226  0.00  0.00    -0.266 N 
ATOM     30  C   UNL     1      33.112 -23.294 -15.378  0.00  0.00    +0.085 C 
ATOM     31  C   UNL     1      33.034 -24.323 -14.261  0.00  0.00    +0.082 C 
ATOM     32  C   UNL     1      35.152 -24.480 -15.281  0.00  0.00    +0.311 C 
ATOM     33  H   UNL     1      34.631 -25.576 -13.544  0.00  0.00    +0.157 HD
ENDBRANCH  26  28
ENDBRANCH  25  26
ENDBRANCH  18  25
ENDBRANCH   3  19
TORSDOF 5
ENDMDL
MODEL 8
REMARK VINA RESULT:      -9.7      7.935     13.860
REMARK  Name = 60149
REMARK  5 active torsions:
REMARK  status: ('A' for Active; 'I' for Inactive)
REMARK    1  A    between atoms: N_2  and  C_12
REMARK    2  A    between atoms: C_3  and  C_19
REMARK    3  A    between atoms: N_18  and  C_25
REMARK    4  A    between atoms: C_25  and  C_26
REMARK    5  A    between atoms: C_26  and  N_28
REMARK                            x       y       z     vdW  Elec       q    Type
REMARK                         _______ _______ _______ _____ _____    ______ ____
ROOT
ATOM      1 CL   UNL     1      31.532 -10.759 -18.167  0.00  0.00    -0.082 Cl
ATOM      2  N   UNL     1      32.506  -8.454 -23.446  0.00  0.00    -0.265 N 
ATOM      3  C   UNL     1      32.970 -10.612 -23.272  0.00  0.00    -0.006 C 
ATOM      4  C   UNL     1      32.499 -10.162 -22.010  0.00  0.00    +0.012 C 
ATOM      5  C   UNL     1      32.964  -9.545 -24.134  0.00  0.00    +0.065 C 
ATOM      6  C   UNL     1      32.214  -8.802 -22.146  0.00  0.00    +0.055 C 
ATOM      7  C   UNL     1      32.286 -10.778 -20.761  0.00  0.00    +0.012 C 
ATOM      8  C   UNL     1      31.723  -8.024 -21.091  0.00  0.00    +0.016 C 
ATOM      9  C   UNL     1      31.797 -10.012 -19.697  0.00  0.00    +0.058 C 
ATOM     10  C   UNL     1      31.520  -8.656 -19.861  0.00  0.00    +0.013 C 
ENDROOT
BRANCH   2  12
ATOM     11  F   UNL     1      31.932  -3.432 -25.644  0.00  0.00    -0.204 F 
ATOM     12  C   UNL     1      32.361  -7.181 -24.003  0.00  0.00    +0.056 C 
ATOM     13  C   UNL     1      31.162  -6.501 -23.848  0.00  0.00    +0.017 C 
ATOM     14  C   UNL     1      33.418  -6.618 -24.703  0.00  0.00    +0.017 C 
ATOM     15  C   UNL     1      31.016  -5.230 -24.405  0.00  0.00    +0.031 C 
ATOM     16  C   UNL     1      33.272  -5.347 -25.260  0.00  0.00    +0.031 C 
ATOM     17  C   UNL     1      32.071  -4.652 -25.111  0.00  0.00    +0.140 C 
ENDBRANCH   2  12
BRANCH   3  19
ATOM     18  N   UNL     1      33.060 -14.616 -24.933  0.00  0.00    +0.388 N 
ATOM     19  C   UNL     1      33.406 -12.019 -23.615  0.00  0.00    +0.019 C 
ATOM     20  C   UNL     1      32.430 -13.087 -23.093  0.00  0.00    -0.018 C 
ATOM     21  C   UNL     1      33.639 -12.218 -25.121  0.00  0.00    -0.018 C 
ATOM     22  C   UNL     1      32.890 -14.494 -23.479  0.00  0.00    -0.077 C 
ATOM     23  C   UNL     1      34.053 -13.658 -25.433  0.00  0.00    -0.077 C 
ATOM     24  H   UNL     1      32.166 -14.402 -25.374  0.00  0.00    -0.080 HD
BRANCH  18  25
ATOM     25  C   UNL     1      33.443 -15.983 -25.290  0.00  0.00    -0.055 C 
BRANCH  25  26
ATOM     26  C   UNL     1      34.859 -16.275 -24.817  0.00  0.00    +0.077 C 
BRANCH  26  28
ATOM     27  O   UNL     1      34.421 -19.239 -25.051  0.00  0.00    -0.252 OA
ATOM     28  N   UNL     1      34.869 -17.290 -23.798  0.00  0.00    -0.243 N 
ATOM     29  N   UNL     1      34.789 -19.287 -22.740  0.00  0.00    -0.266 N 
ATOM     30  C   UNL     1      35.194 -16.999 -22.413  0.00  0.00    +0.085 C 
ATOM     31  C   UNL     1      35.022 -18.327 -21.692  0.00  0.00    +0.082 C 
ATOM     32  C   UNL     1      34.663 -18.670 -23.994  0.00  0.00    +0.311 C 
ATOM     33  H   UNL     1      34.725 -20.258 -22.594  0.00  0.00    +0.157 HD
ENDBRANCH  26  28
ENDBRANCH  25  26
ENDBRANCH  18  25
ENDBRANCH   3  19
TORSDOF 5
ENDMDL
MODEL 9
REMARK VINA RESULT:      -9.7      4.681     10.144
REMARK  Name = 60149
REMARK  5 active torsions:
REMARK  status: ('A' for Active; 'I' for Inactive)
REMARK    1  A    between atoms: N_2  and  C_12
REMARK    2  A    between atoms: C_3  and  C_19
REMARK    3  A    between atoms: N_18  and  C_25
REMARK    4  A    between atoms: C_25  and  C_26
REMARK    5  A    between atoms: C_26  and  N_28
REMARK                            x       y       z     vdW  Elec       q    Type
REMARK                         _______ _______ _______ _____ _____    ______ ____
ROOT
ATOM      1 CL   UNL     1      35.341 -20.557 -25.892  0.00  0.00    -0.082 Cl
ATOM      2  N   UNL     1      33.724 -16.272 -22.266  0.00  0.00    -0.265 N 
ATOM      3  C   UNL     1      34.035 -18.241 -21.301  0.00  0.00    -0.006 C 
ATOM      4  C   UNL     1      34.297 -18.386 -22.690  0.00  0.00    +0.012 C 
ATOM      5  C   UNL     1      33.686 -16.934 -21.069  0.00  0.00    +0.065 C 
ATOM      6  C   UNL     1      34.095 -17.134 -23.273  0.00  0.00    +0.055 C 
ATOM      7  C   UNL     1      34.688 -19.463 -23.511  0.00  0.00    +0.012 C 
ATOM      8  C   UNL     1      34.266 -16.903 -24.643  0.00  0.00    +0.016 C 
ATOM      9  C   UNL     1      34.862 -19.246 -24.882  0.00  0.00    +0.058 C 
ATOM     10  C   UNL     1      34.653 -17.985 -25.438  0.00  0.00    +0.013 C 
ENDROOT
BRANCH   2  12
ATOM     11  F   UNL     1      32.560 -10.919 -22.872  0.00  0.00    -0.204 F 
ATOM     12  C   UNL     1      33.429 -14.915 -22.419  0.00  0.00    +0.056 C 
ATOM     13  C   UNL     1      32.456 -14.333 -21.620  0.00  0.00    +0.017 C 
ATOM     14  C   UNL     1      34.114 -14.171 -23.369  0.00  0.00    +0.017 C 
ATOM     15  C   UNL     1      32.160 -12.978 -21.774  0.00  0.00    +0.031 C 
ATOM     16  C   UNL     1      33.819 -12.816 -23.523  0.00  0.00    +0.031 C 
ATOM     17  C   UNL     1      32.842 -12.219 -22.725  0.00  0.00    +0.140 C 
ENDBRANCH   2  12
BRANCH   3  19
ATOM     18  N   UNL     1      34.210 -22.134 -19.399  0.00  0.00    +0.388 N 
ATOM     19  C   UNL     1      34.121 -19.329 -20.255  0.00  0.00    +0.019 C 
ATOM     20  C   UNL     1      32.871 -20.224 -20.224  0.00  0.00    -0.018 C 
ATOM     21  C   UNL     1      35.380 -20.199 -20.405  0.00  0.00    -0.018 C 
ATOM     22  C   UNL     1      33.003 -21.327 -19.172  0.00  0.00    -0.077 C 
ATOM     23  C   UNL     1      35.421 -21.304 -19.347  0.00  0.00    -0.077 C 
ATOM     24  H   UNL     1      34.147 -22.539 -20.332  0.00  0.00    -0.080 HD
BRANCH  18  25
ATOM     25  C   UNL     1      34.291 -23.218 -18.420  0.00  0.00    -0.055 C 
BRANCH  25  26
ATOM     26  C   UNL     1      33.084 -23.186 -17.495  0.00  0.00    +0.077 C 
BRANCH  26  28
ATOM     27  O   UNL     1      31.485 -22.790 -14.981  0.00  0.00    -0.252 OA
ATOM     28  N   UNL     1      33.478 -23.337 -16.120  0.00  0.00    -0.243 N 
ATOM     29  N   UNL     1      33.439 -23.425 -13.861  0.00  0.00    -0.266 N 
ATOM     30  C   UNL     1      34.795 -23.813 -15.736  0.00  0.00    +0.085 C 
ATOM     31  C   UNL     1      34.796 -23.757 -14.217  0.00  0.00    +0.082 C 
ATOM     32  C   UNL     1      32.658 -23.140 -14.992  0.00  0.00    +0.311 C 
ATOM     33  H   UNL     1      33.102 -23.401 -12.936  0.00  0.00    +0.157 HD
ENDBRANCH  26  28
ENDBRANCH  25  26
ENDBRANCH  18  25
ENDBRANCH   3  19
TORSDOF 5
ENDMDL
