MODEL 1
REMARK VINA RESULT:      -4.7      0.000      0.000
REMARK  Name = 5951
REMARK  5 active torsions:
REMARK  status: ('A' for Active; 'I' for Inactive)
REMARK    1  A    between atoms: CA_1  and  N_2
REMARK    2  A    between atoms: CA_1  and  C_7
REMARK    3  A    between atoms: CA_1  and  CB_10
REMARK    4  A    between atoms: C_7  and  O_8
REMARK    5  A    between atoms: CB_10  and  OG_11
REMARK                            x       y       z     vdW  Elec       q    Type
REMARK                         _______ _______ _______ _____ _____    ______ ____
ROOT
ATOM      1  CA  SER A   1      38.686 -25.647 -14.625  0.00  0.00    +0.065 C 
ENDROOT
BRANCH   1   2
ATOM      2  N   SER A   1      38.563 -26.036 -13.222  0.00  0.00    +0.390 N 
ATOM      3  H1  SER A   1      38.962 -26.966 -13.090  0.00  0.00    -0.088 HD
ATOM      4  H2  SER A   1      37.578 -26.049 -12.958  0.00  0.00    -0.088 HD
ATOM      5  H3  SER A   1      39.062 -25.366 -12.637  0.00  0.00    -0.088 HD
ENDBRANCH   1   2
BRANCH   1   7
ATOM      6  OXT SER A   1      40.931 -24.767 -14.203  0.00  0.00    -0.253 OA
ATOM      7  C   SER A   1      40.158 -25.407 -14.902  0.00  0.00    +0.295 C 
BRANCH   7   8
ATOM      8  O   SER A   1      40.527 -26.003 -16.066  0.00  0.00    -0.482 OA
ATOM      9  H   SER A   1      39.874 -26.274 -16.681  0.00  0.00    +0.295 HD
ENDBRANCH   7   8
ENDBRANCH   1   7
BRANCH   1  10
ATOM     10  CB  SER A   1      37.877 -24.381 -14.884  0.00  0.00    +0.126 C 
BRANCH  10  11
ATOM     11  OG  SER A   1      38.606 -23.523 -15.756  0.00  0.00    -0.384 OA
ATOM     12  H   SER A   1      39.540 -23.788 -15.763  0.00  0.00    +0.210 HD
ENDBRANCH  10  11
ENDBRANCH   1  10
TORSDOF 5
ENDMDL
MODEL 2
REMARK VINA RESULT:      -4.6      1.798      1.968
REMARK  Name = 5951
REMARK  5 active torsions:
REMARK  status: ('A' for Active; 'I' for Inactive)
REMARK    1  A    between atoms: CA_1  and  N_2
REMARK    2  A    between atoms: CA_1  and  C_7
REMARK    3  A    between atoms: CA_1  and  CB_10
REMARK    4  A    between atoms: C_7  and  O_8
REMARK    5  A    between atoms: CB_10  and  OG_11
REMARK                            x       y       z     vdW  Elec       q    Type
REMARK                         _______ _______ _______ _____ _____    ______ ____
ROOT
ATOM      1  CA  SER A   1      38.860 -25.389 -14.418  0.00  0.00    +0.065 C 
ENDROOT
BRANCH   1   2
ATOM      2  N   SER A   1      38.591 -24.337 -15.396  0.00  0.00    +0.390 N 
ATOM      3  H1  SER A   1      38.449 -23.450 -14.912  0.00  0.00    -0.088 HD
ATOM      4  H2  SER A   1      37.752 -24.572 -15.926  0.00  0.00    -0.088 HD
ATOM      5  H3  SER A   1      39.383 -24.253 -16.033  0.00  0.00    -0.088 HD
ENDBRANCH   1   2
BRANCH   1   7
ATOM      6  OXT SER A   1      41.014 -26.464 -13.970  0.00  0.00    -0.253 OA
ATOM      7  C   SER A   1      40.208 -25.995 -14.762  0.00  0.00    +0.295 C 
BRANCH   7   8
ATOM      8  O   SER A   1      40.424 -25.945 -16.102  0.00  0.00    -0.482 OA
ATOM      9  H   SER A   1      41.170 -26.373 -16.472  0.00  0.00    +0.295 HD
ENDBRANCH   7   8
ENDBRANCH   1   7
BRANCH   1  10
ATOM     10  CB  SER A   1      37.763 -26.446 -14.480  0.00  0.00    +0.126 C 
BRANCH  10  11
ATOM     11  OG  SER A   1      37.451 -26.725 -15.842  0.00  0.00    -0.384 OA
ATOM     12  H   SER A   1      38.239 -26.580 -16.390  0.00  0.00    +0.210 HD
ENDBRANCH  10  11
ENDBRANCH   1  10
TORSDOF 5
ENDMDL
MODEL 3
REMARK VINA RESULT:      -4.3      4.569      5.278
REMARK  Name = 5951
REMARK  5 active torsions:
REMARK  status: ('A' for Active; 'I' for Inactive)
REMARK    1  A    between atoms: CA_1  and  N_2
REMARK    2  A    between atoms: CA_1  and  C_7
REMARK    3  A    between atoms: CA_1  and  CB_10
REMARK    4  A    between atoms: C_7  and  O_8
REMARK    5  A    between atoms: CB_10  and  OG_11
REMARK                            x       y       z     vdW  Elec       q    Type
REMARK                         _______ _______ _______ _____ _____    ______ ____
ROOT
ATOM      1  CA  SER A   1      36.679 -24.132 -12.057  0.00  0.00    +0.065 C 
ENDROOT
BRANCH   1   2
ATOM      2  N   SER A   1      37.280 -23.151 -11.156  0.00  0.00    +0.390 N 
ATOM      3  H1  SER A   1      36.752 -22.280 -11.199  0.00  0.00    -0.088 HD
ATOM      4  H2  SER A   1      38.245 -22.977 -11.438  0.00  0.00    -0.088 HD
ATOM      5  H3  SER A   1      37.266 -23.510 -10.202  0.00  0.00    -0.088 HD
ENDBRANCH   1   2
BRANCH   1   7
ATOM      6  OXT SER A   1      35.328 -24.914 -10.171  0.00  0.00    -0.253 OA
ATOM      7  C   SER A   1      35.447 -24.687 -11.368  0.00  0.00    +0.295 C 
BRANCH   7   8
ATOM      8  O   SER A   1      34.459 -24.917 -12.271  0.00  0.00    -0.482 OA
ATOM      9  H   SER A   1      34.416 -24.410 -13.057  0.00  0.00    +0.295 HD
ENDBRANCH   7   8
ENDBRANCH   1   7
BRANCH   1  10
ATOM     10  CB  SER A   1      37.679 -25.246 -12.351  0.00  0.00    +0.126 C 
BRANCH  10  11
ATOM     11  OG  SER A   1      37.117 -26.498 -11.972  0.00  0.00    -0.384 OA
ATOM     12  H   SER A   1      37.254 -26.639 -11.021  0.00  0.00    +0.210 HD
ENDBRANCH  10  11
ENDBRANCH   1  10
TORSDOF 5
ENDMDL
MODEL 4
REMARK VINA RESULT:      -4.2      1.015      2.453
REMARK  Name = 5951
REMARK  5 active torsions:
REMARK  status: ('A' for Active; 'I' for Inactive)
REMARK    1  A    between atoms: CA_1  and  N_2
REMARK    2  A    between atoms: CA_1  and  C_7
REMARK    3  A    between atoms: CA_1  and  CB_10
REMARK    4  A    between atoms: C_7  and  O_8
REMARK    5  A    between atoms: CB_10  and  OG_11
REMARK                            x       y       z     vdW  Elec       q    Type
REMARK                         _______ _______ _______ _____ _____    ______ ____
ROOT
ATOM      1  CA  SER A   1      39.155 -25.253 -13.944  0.00  0.00    +0.065 C 
ENDROOT
BRANCH   1   2
ATOM      2  N   SER A   1      38.314 -26.245 -13.278  0.00  0.00    +0.390 N 
ATOM      3  H1  SER A   1      38.064 -26.979 -13.940  0.00  0.00    -0.088 HD
ATOM      4  H2  SER A   1      37.465 -25.795 -12.934  0.00  0.00    -0.088 HD
ATOM      5  H3  SER A   1      38.823 -26.652 -12.494  0.00  0.00    -0.088 HD
ENDBRANCH   1   2
BRANCH   1   7
ATOM      6  OXT SER A   1      38.435 -23.449 -15.435  0.00  0.00    -0.253 OA
ATOM      7  C   SER A   1      38.314 -24.594 -15.021  0.00  0.00    +0.295 C 
BRANCH   7   8
ATOM      8  O   SER A   1      37.372 -25.457 -15.484  0.00  0.00    -0.482 OA
ATOM      9  H   SER A   1      36.524 -25.480 -15.087  0.00  0.00    +0.295 HD
ENDBRANCH   7   8
ENDBRANCH   1   7
BRANCH   1  10
ATOM     10  CB  SER A   1      40.375 -25.935 -14.556  0.00  0.00    +0.126 C 
BRANCH  10  11
ATOM     11  OG  SER A   1      40.317 -25.824 -15.974  0.00  0.00    -0.384 OA
ATOM     12  H   SER A   1      41.175 -26.075 -16.353  0.00  0.00    +0.210 HD
ENDBRANCH  10  11
ENDBRANCH   1  10
TORSDOF 5
ENDMDL
MODEL 5
REMARK VINA RESULT:      -4.2      4.508      5.217
REMARK  Name = 5951
REMARK  5 active torsions:
REMARK  status: ('A' for Active; 'I' for Inactive)
REMARK    1  A    between atoms: CA_1  and  N_2
REMARK    2  A    between atoms: CA_1  and  C_7
REMARK    3  A    between atoms: CA_1  and  CB_10
REMARK    4  A    between atoms: C_7  and  O_8
REMARK    5  A    between atoms: CB_10  and  OG_11
REMARK                            x       y       z     vdW  Elec       q    Type
REMARK                         _______ _______ _______ _____ _____    ______ ____
ROOT
ATOM      1  CA  SER A   1      36.659 -25.027 -12.012  0.00  0.00    +0.065 C 
ENDROOT
BRANCH   1   2
ATOM      2  N   SER A   1      36.113 -25.301 -13.340  0.00  0.00    +0.390 N 
ATOM      3  H1  SER A   1      36.290 -26.275 -13.586  0.00  0.00    -0.088 HD
ATOM      4  H2  SER A   1      36.561 -24.691 -14.024  0.00  0.00    -0.088 HD
ATOM      5  H3  SER A   1      35.108 -25.128 -13.338  0.00  0.00    -0.088 HD
ENDBRANCH   1   2
BRANCH   1   7
ATOM      6  OXT SER A   1      35.307 -24.788  -9.985  0.00  0.00    -0.253 OA
ATOM      7  C   SER A   1      35.524 -24.500 -11.154  0.00  0.00    +0.295 C 
BRANCH   7   8
ATOM      8  O   SER A   1      34.744 -23.647 -11.868  0.00  0.00    -0.482 OA
ATOM      9  H   SER A   1      35.100 -23.194 -12.607  0.00  0.00    +0.295 HD
ENDBRANCH   7   8
ENDBRANCH   1   7
BRANCH   1  10
ATOM     10  CB  SER A   1      37.778 -23.996 -12.115  0.00  0.00    +0.126 C 
BRANCH  10  11
ATOM     11  OG  SER A   1      37.544 -22.948 -11.179  0.00  0.00    -0.384 OA
ATOM     12  H   SER A   1      38.391 -22.645 -10.815  0.00  0.00    +0.210 HD
ENDBRANCH  10  11
ENDBRANCH   1  10
TORSDOF 5
ENDMDL
MODEL 6
REMARK VINA RESULT:      -4.2      2.360      2.710
REMARK  Name = 5951
REMARK  5 active torsions:
REMARK  status: ('A' for Active; 'I' for Inactive)
REMARK    1  A    between atoms: CA_1  and  N_2
REMARK    2  A    between atoms: CA_1  and  C_7
REMARK    3  A    between atoms: CA_1  and  CB_10
REMARK    4  A    between atoms: C_7  and  O_8
REMARK    5  A    between atoms: CB_10  and  OG_11
REMARK                            x       y       z     vdW  Elec       q    Type
REMARK                         _______ _______ _______ _____ _____    ______ ____
ROOT
ATOM      1  CA  SER A   1      36.677 -25.233 -14.935  0.00  0.00    +0.065 C 
ENDROOT
BRANCH   1   2
ATOM      2  N   SER A   1      35.706 -25.417 -13.858  0.00  0.00    +0.390 N 
ATOM      3  H1  SER A   1      34.904 -25.940 -14.209  0.00  0.00    -0.088 HD
ATOM      4  H2  SER A   1      35.395 -24.505 -13.521  0.00  0.00    -0.088 HD
ATOM      5  H3  SER A   1      36.139 -25.932 -13.093  0.00  0.00    -0.088 HD
ENDBRANCH   1   2
BRANCH   1   7
ATOM      6  OXT SER A   1      38.276 -27.044 -14.543  0.00  0.00    -0.253 OA
ATOM      7  C   SER A   1      37.343 -26.573 -15.179  0.00  0.00    +0.295 C 
BRANCH   7   8
ATOM      8  O   SER A   1      36.765 -27.207 -16.233  0.00  0.00    -0.482 OA
ATOM      9  H   SER A   1      36.503 -28.103 -16.154  0.00  0.00    +0.295 HD
ENDBRANCH   7   8
ENDBRANCH   1   7
BRANCH   1  10
ATOM     10  CB  SER A   1      37.709 -24.185 -14.528  0.00  0.00    +0.126 C 
BRANCH  10  11
ATOM     11  OG  SER A   1      38.803 -24.220 -15.439  0.00  0.00    -0.384 OA
ATOM     12  H   SER A   1      38.781 -25.052 -15.938  0.00  0.00    +0.210 HD
ENDBRANCH  10  11
ENDBRANCH   1  10
TORSDOF 5
ENDMDL
MODEL 7
REMARK VINA RESULT:      -4.1      3.204      3.671
REMARK  Name = 5951
REMARK  5 active torsions:
REMARK  status: ('A' for Active; 'I' for Inactive)
REMARK    1  A    between atoms: CA_1  and  N_2
REMARK    2  A    between atoms: CA_1  and  C_7
REMARK    3  A    between atoms: CA_1  and  CB_10
REMARK    4  A    between atoms: C_7  and  O_8
REMARK    5  A    between atoms: CB_10  and  OG_11
REMARK                            x       y       z     vdW  Elec       q    Type
REMARK                         _______ _______ _______ _____ _____    ______ ____
ROOT
ATOM      1  CA  SER A   1      36.860 -25.373 -14.166  0.00  0.00    +0.065 C 
ENDROOT
BRANCH   1   2
ATOM      2  N   SER A   1      35.414 -25.240 -13.997  0.00  0.00    +0.390 N 
ATOM      3  H1  SER A   1      35.213 -24.865 -13.070  0.00  0.00    -0.088 HD
ATOM      4  H2  SER A   1      34.975 -26.155 -14.096  0.00  0.00    -0.088 HD
ATOM      5  H3  SER A   1      35.044 -24.608 -14.707  0.00  0.00    -0.088 HD
ENDBRANCH   1   2
BRANCH   1   7
ATOM      6  OXT SER A   1      36.383 -26.999 -15.933  0.00  0.00    -0.253 OA
ATOM      7  C   SER A   1      37.105 -26.594 -15.032  0.00  0.00    +0.295 C 
BRANCH   7   8
ATOM      8  O   SER A   1      38.260 -27.210 -14.669  0.00  0.00    -0.482 OA
ATOM      9  H   SER A   1      39.086 -26.833 -14.902  0.00  0.00    +0.295 HD
ENDBRANCH   7   8
ENDBRANCH   1   7
BRANCH   1  10
ATOM     10  CB  SER A   1      37.527 -25.536 -12.805  0.00  0.00    +0.126 C 
BRANCH  10  11
ATOM     11  OG  SER A   1      36.856 -26.553 -12.068  0.00  0.00    -0.384 OA
ATOM     12  H   SER A   1      37.508 -27.174 -11.707  0.00  0.00    +0.210 HD
ENDBRANCH  10  11
ENDBRANCH   1  10
TORSDOF 5
ENDMDL
MODEL 8
REMARK VINA RESULT:      -4.1      9.698     11.066
REMARK  Name = 5951
REMARK  5 active torsions:
REMARK  status: ('A' for Active; 'I' for Inactive)
REMARK    1  A    between atoms: CA_1  and  N_2
REMARK    2  A    between atoms: CA_1  and  C_7
REMARK    3  A    between atoms: CA_1  and  CB_10
REMARK    4  A    between atoms: C_7  and  O_8
REMARK    5  A    between atoms: CB_10  and  OG_11
REMARK                            x       y       z     vdW  Elec       q    Type
REMARK                         _______ _______ _______ _____ _____    ______ ____
ROOT
ATOM      1  CA  SER A   1      28.949 -23.243 -15.609  0.00  0.00    +0.065 C 
ENDROOT
BRANCH   1   2
ATOM      2  N   SER A   1      28.757 -24.631 -15.194  0.00  0.00    +0.390 N 
ATOM      3  H1  SER A   1      29.519 -25.203 -15.556  0.00  0.00    -0.088 HD
ATOM      4  H2  SER A   1      27.870 -24.976 -15.562  0.00  0.00    -0.088 HD
ATOM      5  H3  SER A   1      28.745 -24.684 -14.176  0.00  0.00    -0.088 HD
ENDBRANCH   1   2
BRANCH   1   7
ATOM      6  OXT SER A   1      27.755 -23.845 -17.660  0.00  0.00    -0.253 OA
ATOM      7  C   SER A   1      28.076 -23.008 -16.827  0.00  0.00    +0.295 C 
BRANCH   7   8
ATOM      8  O   SER A   1      27.686 -21.708 -16.890  0.00  0.00    -0.482 OA
ATOM      9  H   SER A   1      27.499 -21.315 -17.720  0.00  0.00    +0.295 HD
ENDBRANCH   7   8
ENDBRANCH   1   7
BRANCH   1  10
ATOM     10  CB  SER A   1      30.417 -23.001 -15.945  0.00  0.00    +0.126 C 
BRANCH  10  11
ATOM     11  OG  SER A   1      30.511 -22.302 -17.181  0.00  0.00    -0.384 OA
ATOM     12  H   SER A   1      30.823 -21.397 -17.018  0.00  0.00    +0.210 HD
ENDBRANCH  10  11
ENDBRANCH   1  10
TORSDOF 5
ENDMDL
MODEL 9
REMARK VINA RESULT:      -4.1      2.968      3.288
REMARK  Name = 5951
REMARK  5 active torsions:
REMARK  status: ('A' for Active; 'I' for Inactive)
REMARK    1  A    between atoms: CA_1  and  N_2
REMARK    2  A    between atoms: CA_1  and  C_7
REMARK    3  A    between atoms: CA_1  and  CB_10
REMARK    4  A    between atoms: C_7  and  O_8
REMARK    5  A    between atoms: CB_10  and  OG_11
REMARK                            x       y       z     vdW  Elec       q    Type
REMARK                         _______ _______ _______ _____ _____    ______ ____
ROOT
ATOM      1  CA  SER A   1      37.213 -24.995 -14.354  0.00  0.00    +0.065 C 
ENDROOT
BRANCH   1   2
ATOM      2  N   SER A   1      38.263 -24.501 -15.243  0.00  0.00    +0.390 N 
ATOM      3  H1  SER A   1      38.349 -25.124 -16.046  0.00  0.00    -0.088 HD
ATOM      4  H2  SER A   1      39.149 -24.472 -14.740  0.00  0.00    -0.088 HD
ATOM      5  H3  SER A   1      38.024 -23.563 -15.565  0.00  0.00    -0.088 HD
ENDBRANCH   1   2
BRANCH   1   7
ATOM      6  OXT SER A   1      38.373 -27.143 -14.535  0.00  0.00    -0.253 OA
ATOM      7  C   SER A   1      37.586 -26.409 -13.953  0.00  0.00    +0.295 C 
BRANCH   7   8
ATOM      8  O   SER A   1      36.911 -26.780 -12.833  0.00  0.00    -0.482 OA
ATOM      9  H   SER A   1      37.371 -26.891 -12.025  0.00  0.00    +0.295 HD
ENDBRANCH   7   8
ENDBRANCH   1   7
BRANCH   1  10
ATOM     10  CB  SER A   1      35.871 -24.977 -15.078  0.00  0.00    +0.126 C 
BRANCH  10  11
ATOM     11  OG  SER A   1      35.550 -26.295 -15.512  0.00  0.00    -0.384 OA
ATOM     12  H   SER A   1      36.031 -26.491 -16.332  0.00  0.00    +0.210 HD
ENDBRANCH  10  11
ENDBRANCH   1  10
TORSDOF 5
ENDMDL
