MODEL 1
REMARK VINA RESULT:      -7.9      0.000      0.000
REMARK  Name = 46937111
REMARK  7 active torsions:
REMARK  status: ('A' for Active; 'I' for Inactive)
REMARK    1  A    between atoms: C_2  and  N_8
REMARK    2  A    between atoms: C_3  and  O_18
REMARK    3  A    between atoms: C_4  and  O_12
REMARK    4  A    between atoms: C_6  and  C_15
REMARK    5  A    between atoms: C_15  and  O_16
REMARK    6  A    between atoms: O_18  and  C_19
REMARK    7  A    between atoms: C_19  and  C_20
REMARK                            x       y       z     vdW  Elec       q    Type
REMARK                         _______ _______ _______ _____ _____    ______ ____
ROOT
ATOM      1  O   UNL     1      34.046 -15.678 -23.342  0.00  0.00    -0.445 OA
ATOM      2  C   UNL     1      34.879 -17.915 -22.740  0.00  0.00    +0.174 C 
ATOM      3  C   UNL     1      34.944 -16.402 -22.493  0.00  0.00    +0.309 C 
ATOM      4  C   UNL     1      35.174 -18.229 -24.213  0.00  0.00    +0.160 C 
ATOM      5  C   UNL     1      34.567 -17.210 -25.126  0.00  0.00    +0.048 C 
ATOM      6  C   UNL     1      34.049 -16.065 -24.660  0.00  0.00    +0.214 C 
ENDROOT
BRANCH   2   8
ATOM      7  O   UNL     1      34.265 -19.958 -20.771  0.00  0.00    -0.275 OA
ATOM      8  N   UNL     1      35.809 -18.618 -21.883  0.00  0.00    -0.298 N 
ATOM      9  C   UNL     1      35.416 -19.581 -20.971  0.00  0.00    +0.223 C 
ATOM     10  C   UNL     1      36.585 -20.169 -20.229  0.00  0.00    +0.095 C 
ATOM     11  H   UNL     1      36.767 -18.400 -21.953  0.00  0.00    +0.150 HD
ENDBRANCH   2   8
BRANCH   4  12
ATOM     12  O   UNL     1      34.629 -19.504 -24.545  0.00  0.00    -0.378 OA
ATOM     13  H   UNL     1      33.838 -19.667 -24.010  0.00  0.00    +0.211 HD
ENDBRANCH   4  12
BRANCH   6  15
ATOM     14  O   UNL     1      33.452 -15.305 -26.831  0.00  0.00    -0.242 OA
ATOM     15  C   UNL     1      33.427 -15.155 -25.623  0.00  0.00    +0.372 C 
BRANCH  15  16
ATOM     16  O   UNL     1      32.830 -14.138 -24.966  0.00  0.00    -0.475 OA
ATOM     17  H   UNL     1      32.688 -13.319 -25.400  0.00  0.00    +0.296 HD
ENDBRANCH  15  16
ENDBRANCH   6  15
BRANCH   3  18
ATOM     18  O   UNL     1      34.593 -16.158 -21.130  0.00  0.00    -0.319 OA
BRANCH  18  19
ATOM     19  C   UNL     1      34.399 -14.774 -20.889  0.00  0.00    +0.146 C 
BRANCH  19  20
ATOM     20  C   UNL     1      32.956 -14.519 -20.445  0.00  0.00    +0.030 C 
ATOM     21  C   UNL     1      32.145 -15.812 -20.500  0.00  0.00    +0.003 C 
ATOM     22  C   UNL     1      32.292 -13.439 -21.302  0.00  0.00    +0.003 C 
ENDBRANCH  19  20
ENDBRANCH  18  19
ENDBRANCH   3  18
TORSDOF 7
ENDMDL
MODEL 2
REMARK VINA RESULT:      -7.9      8.409     11.878
REMARK  Name = 46937111
REMARK  7 active torsions:
REMARK  status: ('A' for Active; 'I' for Inactive)
REMARK    1  A    between atoms: C_2  and  N_8
REMARK    2  A    between atoms: C_3  and  O_18
REMARK    3  A    between atoms: C_4  and  O_12
REMARK    4  A    between atoms: C_6  and  C_15
REMARK    5  A    between atoms: C_15  and  O_16
REMARK    6  A    between atoms: O_18  and  C_19
REMARK    7  A    between atoms: C_19  and  C_20
REMARK                            x       y       z     vdW  Elec       q    Type
REMARK                         _______ _______ _______ _____ _____    ______ ____
ROOT
ATOM      1  O   UNL     1      36.731 -24.563 -15.419  0.00  0.00    -0.445 OA
ATOM      2  C   UNL     1      34.677 -24.334 -14.081  0.00  0.00    +0.174 C 
ATOM      3  C   UNL     1      35.494 -23.852 -15.287  0.00  0.00    +0.309 C 
ATOM      4  C   UNL     1      35.501 -24.206 -12.792  0.00  0.00    +0.160 C 
ATOM      5  C   UNL     1      36.937 -24.560 -13.019  0.00  0.00    +0.048 C 
ATOM      6  C   UNL     1      37.436 -24.727 -14.251  0.00  0.00    +0.214 C 
ENDROOT
BRANCH   2   8
ATOM      7  O   UNL     1      31.981 -25.397 -13.898  0.00  0.00    -0.275 OA
ATOM      8  N   UNL     1      33.443 -23.587 -13.961  0.00  0.00    -0.298 N 
ATOM      9  C   UNL     1      32.200 -24.189 -13.881  0.00  0.00    +0.223 C 
ATOM     10  C   UNL     1      31.091 -23.182 -13.739  0.00  0.00    +0.095 C 
ATOM     11  H   UNL     1      33.491 -22.604 -13.937  0.00  0.00    +0.150 HD
ENDBRANCH   2   8
BRANCH   4  12
ATOM     12  O   UNL     1      34.976 -25.089 -11.803  0.00  0.00    -0.378 OA
ATOM     13  H   UNL     1      34.922 -24.626 -10.953  0.00  0.00    +0.211 HD
ENDBRANCH   4  12
BRANCH   6  15
ATOM     14  O   UNL     1      39.724 -24.781 -13.610  0.00  0.00    -0.242 OA
ATOM     15  C   UNL     1      38.839 -25.127 -14.372  0.00  0.00    +0.372 C 
BRANCH  15  16
ATOM     16  O   UNL     1      38.992 -25.930 -15.447  0.00  0.00    -0.475 OA
ATOM     17  H   UNL     1      39.773 -25.880 -15.962  0.00  0.00    +0.296 HD
ENDBRANCH  15  16
ENDBRANCH   6  15
BRANCH   3  18
ATOM     18  O   UNL     1      34.712 -24.058 -16.464  0.00  0.00    -0.319 OA
BRANCH  18  19
ATOM     19  C   UNL     1      34.663 -22.886 -17.261  0.00  0.00    +0.146 C 
BRANCH  19  20
ATOM     20  C   UNL     1      33.403 -22.898 -18.132  0.00  0.00    +0.030 C 
ATOM     21  C   UNL     1      33.463 -21.783 -19.173  0.00  0.00    +0.003 C 
ATOM     22  C   UNL     1      32.137 -22.765 -17.282  0.00  0.00    +0.003 C 
ENDBRANCH  19  20
ENDBRANCH  18  19
ENDBRANCH   3  18
TORSDOF 7
ENDMDL
MODEL 3
REMARK VINA RESULT:      -7.8      6.897      9.944
REMARK  Name = 46937111
REMARK  7 active torsions:
REMARK  status: ('A' for Active; 'I' for Inactive)
REMARK    1  A    between atoms: C_2  and  N_8
REMARK    2  A    between atoms: C_3  and  O_18
REMARK    3  A    between atoms: C_4  and  O_12
REMARK    4  A    between atoms: C_6  and  C_15
REMARK    5  A    between atoms: C_15  and  O_16
REMARK    6  A    between atoms: O_18  and  C_19
REMARK    7  A    between atoms: C_19  and  C_20
REMARK                            x       y       z     vdW  Elec       q    Type
REMARK                         _______ _______ _______ _____ _____    ______ ____
ROOT
ATOM      1  O   UNL     1      32.164 -22.870 -16.949  0.00  0.00    -0.445 OA
ATOM      2  C   UNL     1      33.990 -23.546 -15.441  0.00  0.00    +0.174 C 
ATOM      3  C   UNL     1      33.396 -23.597 -16.855  0.00  0.00    +0.309 C 
ATOM      4  C   UNL     1      32.980 -24.081 -14.417  0.00  0.00    +0.160 C 
ATOM      5  C   UNL     1      31.583 -23.658 -14.749  0.00  0.00    +0.048 C 
ATOM      6  C   UNL     1      31.277 -23.091 -15.923  0.00  0.00    +0.214 C 
ENDROOT
BRANCH   2   8
ATOM      7  O   UNL     1      36.259 -23.068 -13.695  0.00  0.00    -0.275 OA
ATOM      8  N   UNL     1      35.221 -24.303 -15.372  0.00  0.00    -0.298 N 
ATOM      9  C   UNL     1      36.250 -23.994 -14.501  0.00  0.00    +0.223 C 
ATOM     10  C   UNL     1      37.401 -24.956 -14.619  0.00  0.00    +0.095 C 
ATOM     11  H   UNL     1      35.331 -25.075 -15.974  0.00  0.00    +0.150 HD
ENDBRANCH   2   8
BRANCH   4  12
ATOM     12  O   UNL     1      33.302 -23.578 -13.123  0.00  0.00    -0.378 OA
ATOM     13  H   UNL     1      34.252 -23.687 -12.961  0.00  0.00    +0.211 HD
ENDBRANCH   4  12
BRANCH   6  15
ATOM     14  O   UNL     1      29.386 -22.484 -17.227  0.00  0.00    -0.242 OA
ATOM     15  C   UNL     1      29.895 -22.659 -16.135  0.00  0.00    +0.372 C 
BRANCH  15  16
ATOM     16  O   UNL     1      29.284 -22.490 -14.943  0.00  0.00    -0.475 OA
ATOM     17  H   UNL     1      28.352 -22.562 -14.879  0.00  0.00    +0.296 HD
ENDBRANCH  15  16
ENDBRANCH   6  15
BRANCH   3  18
ATOM     18  O   UNL     1      34.343 -23.024 -17.757  0.00  0.00    -0.319 OA
BRANCH  18  19
ATOM     19  C   UNL     1      33.695 -22.321 -18.805  0.00  0.00    +0.146 C 
BRANCH  19  20
ATOM     20  C   UNL     1      34.738 -21.687 -19.731  0.00  0.00    +0.030 C 
ATOM     21  C   UNL     1      36.053 -21.471 -18.984  0.00  0.00    +0.003 C 
ATOM     22  C   UNL     1      34.235 -20.366 -20.316  0.00  0.00    +0.003 C 
ENDBRANCH  19  20
ENDBRANCH  18  19
ENDBRANCH   3  18
TORSDOF 7
ENDMDL
MODEL 4
REMARK VINA RESULT:      -7.5      6.998      9.671
REMARK  Name = 46937111
REMARK  7 active torsions:
REMARK  status: ('A' for Active; 'I' for Inactive)
REMARK    1  A    between atoms: C_2  and  N_8
REMARK    2  A    between atoms: C_3  and  O_18
REMARK    3  A    between atoms: C_4  and  O_12
REMARK    4  A    between atoms: C_6  and  C_15
REMARK    5  A    between atoms: C_15  and  O_16
REMARK    6  A    between atoms: O_18  and  C_19
REMARK    7  A    between atoms: C_19  and  C_20
REMARK                            x       y       z     vdW  Elec       q    Type
REMARK                         _______ _______ _______ _____ _____    ______ ____
ROOT
ATOM      1  O   UNL     1      34.982 -22.580 -17.375  0.00  0.00    -0.445 OA
ATOM      2  C   UNL     1      36.178 -23.588 -15.474  0.00  0.00    +0.174 C 
ATOM      3  C   UNL     1      34.901 -22.905 -15.982  0.00  0.00    +0.309 C 
ATOM      4  C   UNL     1      37.401 -22.699 -15.739  0.00  0.00    +0.160 C 
ATOM      5  C   UNL     1      37.299 -22.003 -17.060  0.00  0.00    +0.048 C 
ATOM      6  C   UNL     1      36.163 -22.001 -17.771  0.00  0.00    +0.214 C 
ENDROOT
BRANCH   2   8
ATOM      7  O   UNL     1      37.311 -25.859 -14.064  0.00  0.00    -0.275 OA
ATOM      8  N   UNL     1      36.075 -23.887 -14.061  0.00  0.00    -0.298 N 
ATOM      9  C   UNL     1      36.653 -25.002 -13.481  0.00  0.00    +0.223 C 
ATOM     10  C   UNL     1      36.413 -25.058 -11.997  0.00  0.00    +0.095 C 
ATOM     11  H   UNL     1      35.569 -23.268 -13.486  0.00  0.00    +0.150 HD
ENDBRANCH   2   8
BRANCH   4  12
ATOM     12  O   UNL     1      38.579 -23.502 -15.749  0.00  0.00    -0.378 OA
ATOM     13  H   UNL     1      39.323 -22.989 -15.398  0.00  0.00    +0.211 HD
ENDBRANCH   4  12
BRANCH   6  15
ATOM     14  O   UNL     1      36.734 -20.284 -19.313  0.00  0.00    -0.242 OA
ATOM     15  C   UNL     1      36.176 -21.341 -19.077  0.00  0.00    +0.372 C 
BRANCH  15  16
ATOM     16  O   UNL     1      35.479 -22.080 -19.967  0.00  0.00    -0.475 OA
ATOM     17  H   UNL     1      35.374 -23.001 -19.829  0.00  0.00    +0.296 HD
ENDBRANCH  15  16
ENDBRANCH   6  15
BRANCH   3  18
ATOM     18  O   UNL     1      33.807 -23.800 -15.777  0.00  0.00    -0.319 OA
BRANCH  18  19
ATOM     19  C   UNL     1      32.667 -23.396 -16.519  0.00  0.00    +0.146 C 
BRANCH  19  20
ATOM     20  C   UNL     1      31.409 -23.527 -15.654  0.00  0.00    +0.030 C 
ATOM     21  C   UNL     1      30.201 -22.935 -16.378  0.00  0.00    +0.003 C 
ATOM     22  C   UNL     1      31.595 -22.853 -14.293  0.00  0.00    +0.003 C 
ENDBRANCH  19  20
ENDBRANCH  18  19
ENDBRANCH   3  18
TORSDOF 7
ENDMDL
MODEL 5
REMARK VINA RESULT:      -7.5      7.428     11.174
REMARK  Name = 46937111
REMARK  7 active torsions:
REMARK  status: ('A' for Active; 'I' for Inactive)
REMARK    1  A    between atoms: C_2  and  N_8
REMARK    2  A    between atoms: C_3  and  O_18
REMARK    3  A    between atoms: C_4  and  O_12
REMARK    4  A    between atoms: C_6  and  C_15
REMARK    5  A    between atoms: C_15  and  O_16
REMARK    6  A    between atoms: O_18  and  C_19
REMARK    7  A    between atoms: C_19  and  C_20
REMARK                            x       y       z     vdW  Elec       q    Type
REMARK                         _______ _______ _______ _____ _____    ______ ____
ROOT
ATOM      1  O   UNL     1      36.054 -23.971 -15.733  0.00  0.00    -0.445 OA
ATOM      2  C   UNL     1      33.664 -23.882 -15.152  0.00  0.00    +0.174 C 
ATOM      3  C   UNL     1      34.840 -23.228 -15.889  0.00  0.00    +0.309 C 
ATOM      4  C   UNL     1      33.993 -24.050 -13.662  0.00  0.00    +0.160 C 
ATOM      5  C   UNL     1      35.424 -24.437 -13.456  0.00  0.00    +0.048 C 
ATOM      6  C   UNL     1      36.318 -24.396 -14.453  0.00  0.00    +0.214 C 
ENDROOT
BRANCH   2   8
ATOM      7  O   UNL     1      30.923 -24.839 -15.107  0.00  0.00    -0.275 OA
ATOM      8  N   UNL     1      32.456 -23.101 -15.311  0.00  0.00    -0.298 N 
ATOM      9  C   UNL     1      31.188 -23.652 -15.275  0.00  0.00    +0.223 C 
ATOM     10  C   UNL     1      30.113 -22.614 -15.443  0.00  0.00    +0.095 C 
ATOM     11  H   UNL     1      32.541 -22.130 -15.453  0.00  0.00    +0.150 HD
ENDBRANCH   2   8
BRANCH   4  12
ATOM     12  O   UNL     1      33.170 -25.073 -13.106  0.00  0.00    -0.378 OA
ATOM     13  H   UNL     1      32.699 -25.531 -13.818  0.00  0.00    +0.211 HD
ENDBRANCH   4  12
BRANCH   6  15
ATOM     14  O   UNL     1      38.689 -24.255 -14.510  0.00  0.00    -0.242 OA
ATOM     15  C   UNL     1      37.681 -24.847 -14.169  0.00  0.00    +0.372 C 
BRANCH  15  16
ATOM     16  O   UNL     1      37.641 -26.007 -13.480  0.00  0.00    -0.475 OA
ATOM     17  H   UNL     1      38.417 -26.335 -13.069  0.00  0.00    +0.296 HD
ENDBRANCH  15  16
ENDBRANCH   6  15
BRANCH   3  18
ATOM     18  O   UNL     1      34.512 -23.160 -17.278  0.00  0.00    -0.319 OA
BRANCH  18  19
ATOM     19  C   UNL     1      35.348 -22.238 -17.959  0.00  0.00    +0.146 C 
BRANCH  19  20
ATOM     20  C   UNL     1      34.831 -22.019 -19.384  0.00  0.00    +0.030 C 
ATOM     21  C   UNL     1      35.739 -21.049 -20.137  0.00  0.00    +0.003 C 
ATOM     22  C   UNL     1      33.390 -21.506 -19.381  0.00  0.00    +0.003 C 
ENDBRANCH  19  20
ENDBRANCH  18  19
ENDBRANCH   3  18
TORSDOF 7
ENDMDL
MODEL 6
REMARK VINA RESULT:      -7.5      8.258     12.039
REMARK  Name = 46937111
REMARK  7 active torsions:
REMARK  status: ('A' for Active; 'I' for Inactive)
REMARK    1  A    between atoms: C_2  and  N_8
REMARK    2  A    between atoms: C_3  and  O_18
REMARK    3  A    between atoms: C_4  and  O_12
REMARK    4  A    between atoms: C_6  and  C_15
REMARK    5  A    between atoms: C_15  and  O_16
REMARK    6  A    between atoms: O_18  and  C_19
REMARK    7  A    between atoms: C_19  and  C_20
REMARK                            x       y       z     vdW  Elec       q    Type
REMARK                         _______ _______ _______ _____ _____    ______ ____
ROOT
ATOM      1  O   UNL     1      34.201 -23.840 -12.762  0.00  0.00    -0.445 OA
ATOM      2  C   UNL     1      34.629 -23.513 -15.164  0.00  0.00    +0.174 C 
ATOM      3  C   UNL     1      33.611 -23.855 -14.068  0.00  0.00    +0.309 C 
ATOM      4  C   UNL     1      35.819 -24.481 -15.110  0.00  0.00    +0.160 C 
ATOM      5  C   UNL     1      36.195 -24.812 -13.700  0.00  0.00    +0.048 C 
ATOM      6  C   UNL     1      35.416 -24.474 -12.664  0.00  0.00    +0.214 C 
ENDROOT
BRANCH   2   8
ATOM      7  O   UNL     1      35.492 -22.132 -17.568  0.00  0.00    -0.275 OA
ATOM      8  N   UNL     1      34.011 -23.554 -16.473  0.00  0.00    -0.298 N 
ATOM      9  C   UNL     1      34.500 -22.856 -17.562  0.00  0.00    +0.223 C 
ATOM     10  C   UNL     1      33.683 -23.095 -18.802  0.00  0.00    +0.095 C 
ATOM     11  H   UNL     1      33.203 -24.105 -16.592  0.00  0.00    +0.150 HD
ENDBRANCH   2   8
BRANCH   4  12
ATOM     12  O   UNL     1      36.948 -23.882 -15.743  0.00  0.00    -0.378 OA
ATOM     13  H   UNL     1      36.757 -22.950 -15.928  0.00  0.00    +0.211 HD
ENDBRANCH   4  12
BRANCH   6  15
ATOM     14  O   UNL     1      35.192 -25.220 -10.418  0.00  0.00    -0.242 OA
ATOM     15  C   UNL     1      35.894 -24.790 -11.316  0.00  0.00    +0.372 C 
BRANCH  15  16
ATOM     16  O   UNL     1      37.216 -24.533 -11.232  0.00  0.00    -0.475 OA
ATOM     17  H   UNL     1      37.793 -25.166 -10.850  0.00  0.00    +0.296 HD
ENDBRANCH  15  16
ENDBRANCH   6  15
BRANCH   3  18
ATOM     18  O   UNL     1      32.563 -22.886 -14.116  0.00  0.00    -0.319 OA
BRANCH  18  19
ATOM     19  C   UNL     1      31.296 -23.488 -13.904  0.00  0.00    +0.146 C 
BRANCH  19  20
ATOM     20  C   UNL     1      30.812 -24.152 -15.197  0.00  0.00    +0.030 C 
ATOM     21  C   UNL     1      30.227 -23.108 -16.146  0.00  0.00    +0.003 C 
ATOM     22  C   UNL     1      29.781 -25.246 -14.910  0.00  0.00    +0.003 C 
ENDBRANCH  19  20
ENDBRANCH  18  19
ENDBRANCH   3  18
TORSDOF 7
ENDMDL
MODEL 7
REMARK VINA RESULT:      -7.4      8.026     10.423
REMARK  Name = 46937111
REMARK  7 active torsions:
REMARK  status: ('A' for Active; 'I' for Inactive)
REMARK    1  A    between atoms: C_2  and  N_8
REMARK    2  A    between atoms: C_3  and  O_18
REMARK    3  A    between atoms: C_4  and  O_12
REMARK    4  A    between atoms: C_6  and  C_15
REMARK    5  A    between atoms: C_15  and  O_16
REMARK    6  A    between atoms: O_18  and  C_19
REMARK    7  A    between atoms: C_19  and  C_20
REMARK                            x       y       z     vdW  Elec       q    Type
REMARK                         _______ _______ _______ _____ _____    ______ ____
ROOT
ATOM      1  O   UNL     1      33.038 -23.484 -16.396  0.00  0.00    -0.445 OA
ATOM      2  C   UNL     1      34.823 -23.793 -14.728  0.00  0.00    +0.174 C 
ATOM      3  C   UNL     1      33.389 -23.326 -15.016  0.00  0.00    +0.309 C 
ATOM      4  C   UNL     1      35.820 -23.038 -15.618  0.00  0.00    +0.160 C 
ATOM      5  C   UNL     1      35.275 -22.824 -16.996  0.00  0.00    +0.048 C 
ATOM      6  C   UNL     1      33.991 -23.065 -17.292  0.00  0.00    +0.214 C 
ENDROOT
BRANCH   2   8
ATOM      7  O   UNL     1      36.514 -25.476 -13.074  0.00  0.00    -0.275 OA
ATOM      8  N   UNL     1      35.156 -23.604 -13.333  0.00  0.00    -0.298 N 
ATOM      9  C   UNL     1      35.975 -24.467 -12.627  0.00  0.00    +0.223 C 
ATOM     10  C   UNL     1      36.176 -24.022 -11.204  0.00  0.00    +0.095 C 
ATOM     11  H   UNL     1      34.781 -22.823 -12.863  0.00  0.00    +0.150 HD
ENDBRANCH   2   8
BRANCH   4  12
ATOM     12  O   UNL     1      37.024 -23.793 -15.728  0.00  0.00    -0.378 OA
ATOM     13  H   UNL     1      37.733 -23.341 -15.246  0.00  0.00    +0.211 HD
ENDBRANCH   4  12
BRANCH   6  15
ATOM     14  O   UNL     1      34.033 -23.476 -19.633  0.00  0.00    -0.242 OA
ATOM     15  C   UNL     1      33.563 -22.880 -18.680  0.00  0.00    +0.372 C 
BRANCH  15  16
ATOM     16  O   UNL     1      32.579 -21.957 -18.733  0.00  0.00    -0.475 OA
ATOM     17  H   UNL     1      32.716 -21.105 -18.368  0.00  0.00    +0.296 HD
ENDBRANCH  15  16
ENDBRANCH   6  15
BRANCH   3  18
ATOM     18  O   UNL     1      32.499 -24.105 -14.217  0.00  0.00    -0.319 OA
BRANCH  18  19
ATOM     19  C   UNL     1      31.413 -23.323 -13.746  0.00  0.00    +0.146 C 
BRANCH  19  20
ATOM     20  C   UNL     1      30.102 -23.829 -14.356  0.00  0.00    +0.030 C 
ATOM     21  C   UNL     1      30.231 -25.298 -14.753  0.00  0.00    +0.003 C 
ATOM     22  C   UNL     1      29.687 -22.986 -15.564  0.00  0.00    +0.003 C 
ENDBRANCH  19  20
ENDBRANCH  18  19
ENDBRANCH   3  18
TORSDOF 7
ENDMDL
MODEL 8
REMARK VINA RESULT:      -7.3      3.409      5.844
REMARK  Name = 46937111
REMARK  7 active torsions:
REMARK  status: ('A' for Active; 'I' for Inactive)
REMARK    1  A    between atoms: C_2  and  N_8
REMARK    2  A    between atoms: C_3  and  O_18
REMARK    3  A    between atoms: C_4  and  O_12
REMARK    4  A    between atoms: C_6  and  C_15
REMARK    5  A    between atoms: C_15  and  O_16
REMARK    6  A    between atoms: O_18  and  C_19
REMARK    7  A    between atoms: C_19  and  C_20
REMARK                            x       y       z     vdW  Elec       q    Type
REMARK                         _______ _______ _______ _____ _____    ______ ____
ROOT
ATOM      1  O   UNL     1      33.683 -13.789 -24.290  0.00  0.00    -0.445 OA
ATOM      2  C   UNL     1      32.598 -13.481 -22.102  0.00  0.00    +0.174 C 
ATOM      3  C   UNL     1      33.572 -12.928 -23.150  0.00  0.00    +0.309 C 
ATOM      4  C   UNL     1      33.027 -14.887 -21.662  0.00  0.00    +0.160 C 
ATOM      5  C   UNL     1      33.552 -15.687 -22.813  0.00  0.00    +0.048 C 
ATOM      6  C   UNL     1      33.817 -15.125 -24.000  0.00  0.00    +0.214 C 
ENDROOT
BRANCH   2   8
ATOM      7  O   UNL     1      30.502 -11.571 -21.480  0.00  0.00    -0.275 OA
ATOM      8  N   UNL     1      32.521 -12.601 -20.955  0.00  0.00    -0.298 N 
ATOM      9  C   UNL     1      31.475 -11.721 -20.746  0.00  0.00    +0.223 C 
ATOM     10  C   UNL     1      31.633 -10.945 -19.467  0.00  0.00    +0.095 C 
ATOM     11  H   UNL     1      33.249 -12.630 -20.292  0.00  0.00    +0.150 HD
ENDBRANCH   2   8
BRANCH   4  12
ATOM     12  O   UNL     1      31.905 -15.577 -21.116  0.00  0.00    -0.378 OA
ATOM     13  H   UNL     1      31.747 -15.270 -20.211  0.00  0.00    +0.211 HD
ENDBRANCH   4  12
BRANCH   6  15
ATOM     14  O   UNL     1      33.803 -16.011 -26.206  0.00  0.00    -0.242 OA
ATOM     15  C   UNL     1      34.274 -15.998 -25.083  0.00  0.00    +0.372 C 
BRANCH  15  16
ATOM     16  O   UNL     1      35.288 -16.774 -24.644  0.00  0.00    -0.475 OA
ATOM     17  H   UNL     1      36.103 -16.384 -24.395  0.00  0.00    +0.296 HD
ENDBRANCH  15  16
ENDBRANCH   6  15
BRANCH   3  18
ATOM     18  O   UNL     1      33.091 -11.653 -23.577  0.00  0.00    -0.319 OA
BRANCH  18  19
ATOM     19  C   UNL     1      33.612 -11.306 -24.849  0.00  0.00    +0.146 C 
BRANCH  19  20
ATOM     20  C   UNL     1      34.887 -10.473 -24.682  0.00  0.00    +0.030 C 
ATOM     21  C   UNL     1      34.560  -9.115 -24.064  0.00  0.00    +0.003 C 
ATOM     22  C   UNL     1      35.612 -10.288 -26.017  0.00  0.00    +0.003 C 
ENDBRANCH  19  20
ENDBRANCH  18  19
ENDBRANCH   3  18
TORSDOF 7
ENDMDL
MODEL 9
REMARK VINA RESULT:      -7.2      3.410      5.604
REMARK  Name = 46937111
REMARK  7 active torsions:
REMARK  status: ('A' for Active; 'I' for Inactive)
REMARK    1  A    between atoms: C_2  and  N_8
REMARK    2  A    between atoms: C_3  and  O_18
REMARK    3  A    between atoms: C_4  and  O_12
REMARK    4  A    between atoms: C_6  and  C_15
REMARK    5  A    between atoms: C_15  and  O_16
REMARK    6  A    between atoms: O_18  and  C_19
REMARK    7  A    between atoms: C_19  and  C_20
REMARK                            x       y       z     vdW  Elec       q    Type
REMARK                         _______ _______ _______ _____ _____    ______ ____
ROOT
ATOM      1  O   UNL     1      32.685 -12.082 -22.803  0.00  0.00    -0.445 OA
ATOM      2  C   UNL     1      33.582 -14.354 -23.107  0.00  0.00    +0.174 C 
ATOM      3  C   UNL     1      32.922 -13.128 -23.752  0.00  0.00    +0.309 C 
ATOM      4  C   UNL     1      32.722 -14.876 -21.949  0.00  0.00    +0.160 C 
ATOM      5  C   UNL     1      32.108 -13.755 -21.170  0.00  0.00    +0.048 C 
ATOM      6  C   UNL     1      32.141 -12.490 -21.609  0.00  0.00    +0.214 C 
ENDROOT
BRANCH   2   8
ATOM      7  O   UNL     1      35.635 -16.407 -23.081  0.00  0.00    -0.275 OA
ATOM      8  N   UNL     1      33.792 -15.400 -24.085  0.00  0.00    -0.298 N 
ATOM      9  C   UNL     1      34.805 -16.337 -23.984  0.00  0.00    +0.223 C 
ATOM     10  C   UNL     1      34.781 -17.323 -25.120  0.00  0.00    +0.095 C 
ATOM     11  H   UNL     1      33.186 -15.447 -24.859  0.00  0.00    +0.150 HD
ENDBRANCH   2   8
BRANCH   4  12
ATOM     12  O   UNL     1      33.534 -15.643 -21.062  0.00  0.00    -0.378 OA
ATOM     13  H   UNL     1      33.912 -16.396 -21.540  0.00  0.00    +0.211 HD
ENDBRANCH   4  12
BRANCH   6  15
ATOM     14  O   UNL     1      31.468 -11.534 -19.540  0.00  0.00    -0.242 OA
ATOM     15  C   UNL     1      31.564 -11.453 -20.751  0.00  0.00    +0.372 C 
BRANCH  15  16
ATOM     16  O   UNL     1      31.162 -10.410 -21.508  0.00  0.00    -0.475 OA
ATOM     17  H   UNL     1      31.523  -9.557 -21.360  0.00  0.00    +0.296 HD
ENDBRANCH  15  16
ENDBRANCH   6  15
BRANCH   3  18
ATOM     18  O   UNL     1      33.793 -12.639 -24.773  0.00  0.00    -0.319 OA
BRANCH  18  19
ATOM     19  C   UNL     1      33.619 -11.246 -24.975  0.00  0.00    +0.146 C 
BRANCH  19  20
ATOM     20  C   UNL     1      34.970 -10.531 -24.874  0.00  0.00    +0.030 C 
ATOM     21  C   UNL     1      34.804  -9.170 -24.200  0.00  0.00    +0.003 C 
ATOM     22  C   UNL     1      35.618 -10.368 -26.250  0.00  0.00    +0.003 C 
ENDBRANCH  19  20
ENDBRANCH  18  19
ENDBRANCH   3  18
TORSDOF 7
ENDMDL
