MODEL 1
REMARK VINA RESULT:      -5.5      0.000      0.000
REMARK  Name = 20811
REMARK  7 active torsions:
REMARK  status: ('A' for Active; 'I' for Inactive)
REMARK    1  A    between atoms: C_1  and  N_3
REMARK    2  A    between atoms: C_1  and  C_8
REMARK    3  A    between atoms: N_3  and  N_5
REMARK    4  A    between atoms: C_8  and  C_9
REMARK    5  A    between atoms: C_9  and  C_10
REMARK    6  A    between atoms: C_10  and  C_11
REMARK    7  A    between atoms: C_11  and  C_12
REMARK                            x       y       z     vdW  Elec       q    Type
REMARK                         _______ _______ _______ _____ _____    ______ ____
ROOT
ATOM      1  C   UNL     1      34.882 -17.835 -23.654  0.00  0.00    +0.068 C 
ATOM      2  C   UNL     1      34.545 -18.997 -24.587  0.00  0.00    +0.018 C 
ENDROOT
BRANCH   1   3
ATOM      3  N   UNL     1      35.298 -16.675 -24.444  0.00  0.00    -0.250 NA
ATOM      4  H   UNL     1      34.971 -15.818 -23.999  0.00  0.00    +0.141 HD
BRANCH   3   5
ATOM      5  N   UNL     1      34.723 -16.796 -25.742  0.00  0.00    -0.270 NA
ATOM      6  H   UNL     1      35.427 -17.137 -26.397  0.00  0.00    +0.137 HD
ATOM      7  H   UNL     1      34.385 -15.885 -26.051  0.00  0.00    +0.137 HD
ENDBRANCH   3   5
ENDBRANCH   1   3
BRANCH   1   8
ATOM      8  C   UNL     1      35.981 -18.242 -22.658  0.00  0.00    +0.017 C 
BRANCH   8   9
ATOM      9  C   UNL     1      35.477 -18.330 -21.211  0.00  0.00    +0.001 C 
BRANCH   9  10
ATOM     10  C   UNL     1      34.979 -19.740 -20.885  0.00  0.00    +0.000 C 
BRANCH  10  11
ATOM     11  C   UNL     1      33.460 -19.824 -20.708  0.00  0.00    +0.000 C 
BRANCH  11  12
ATOM     12  C   UNL     1      33.013 -20.993 -19.830  0.00  0.00    +0.000 C 
ATOM     13  C   UNL     1      34.206 -21.783 -19.312  0.00  0.00    +0.000 C 
ENDBRANCH  11  12
ENDBRANCH  10  11
ENDBRANCH   9  10
ENDBRANCH   8   9
ENDBRANCH   1   8
TORSDOF 7
ENDMDL
MODEL 2
REMARK VINA RESULT:      -5.5      1.032      1.588
REMARK  Name = 20811
REMARK  7 active torsions:
REMARK  status: ('A' for Active; 'I' for Inactive)
REMARK    1  A    between atoms: C_1  and  N_3
REMARK    2  A    between atoms: C_1  and  C_8
REMARK    3  A    between atoms: N_3  and  N_5
REMARK    4  A    between atoms: C_8  and  C_9
REMARK    5  A    between atoms: C_9  and  C_10
REMARK    6  A    between atoms: C_10  and  C_11
REMARK    7  A    between atoms: C_11  and  C_12
REMARK                            x       y       z     vdW  Elec       q    Type
REMARK                         _______ _______ _______ _____ _____    ______ ____
ROOT
ATOM      1  C   UNL     1      35.002 -16.922 -24.495  0.00  0.00    +0.068 C 
ATOM      2  C   UNL     1      34.163 -15.989 -23.622  0.00  0.00    +0.018 C 
ENDROOT
BRANCH   1   3
ATOM      3  N   UNL     1      34.500 -16.891 -25.870  0.00  0.00    -0.250 NA
ATOM      4  H   UNL     1      35.281 -16.926 -26.524  0.00  0.00    +0.141 HD
BRANCH   3   5
ATOM      5  N   UNL     1      33.774 -15.678 -26.048  0.00  0.00    -0.270 NA
ATOM      6  H   UNL     1      34.296 -14.905 -25.634  0.00  0.00    +0.137 HD
ATOM      7  H   UNL     1      32.865 -15.755 -25.594  0.00  0.00    +0.137 HD
ENDBRANCH   3   5
ENDBRANCH   1   3
BRANCH   1   8
ATOM      8  C   UNL     1      34.979 -18.354 -23.936  0.00  0.00    +0.017 C 
BRANCH   8   9
ATOM      9  C   UNL     1      35.726 -18.490 -22.603  0.00  0.00    +0.001 C 
BRANCH   9  10
ATOM     10  C   UNL     1      35.063 -19.537 -21.703  0.00  0.00    +0.000 C 
BRANCH  10  11
ATOM     11  C   UNL     1      33.794 -19.030 -21.012  0.00  0.00    +0.000 C 
BRANCH  11  12
ATOM     12  C   UNL     1      32.836 -20.149 -20.605  0.00  0.00    +0.000 C 
ATOM     13  C   UNL     1      33.523 -21.168 -19.708  0.00  0.00    +0.000 C 
ENDBRANCH  11  12
ENDBRANCH  10  11
ENDBRANCH   9  10
ENDBRANCH   8   9
ENDBRANCH   1   8
TORSDOF 7
ENDMDL
MODEL 3
REMARK VINA RESULT:      -5.5      3.773      5.715
REMARK  Name = 20811
REMARK  7 active torsions:
REMARK  status: ('A' for Active; 'I' for Inactive)
REMARK    1  A    between atoms: C_1  and  N_3
REMARK    2  A    between atoms: C_1  and  C_8
REMARK    3  A    between atoms: N_3  and  N_5
REMARK    4  A    between atoms: C_8  and  C_9
REMARK    5  A    between atoms: C_9  and  C_10
REMARK    6  A    between atoms: C_10  and  C_11
REMARK    7  A    between atoms: C_11  and  C_12
REMARK                            x       y       z     vdW  Elec       q    Type
REMARK                         _______ _______ _______ _____ _____    ______ ____
ROOT
ATOM      1  C   UNL     1      34.023 -21.169 -19.554  0.00  0.00    +0.068 C 
ATOM      2  C   UNL     1      35.477 -21.631 -19.635  0.00  0.00    +0.018 C 
ENDROOT
BRANCH   1   3
ATOM      3  N   UNL     1      33.133 -22.329 -19.636  0.00  0.00    -0.250 NA
ATOM      4  H   UNL     1      32.374 -22.231 -18.964  0.00  0.00    +0.141 HD
BRANCH   3   5
ATOM      5  N   UNL     1      33.898 -23.494 -19.336  0.00  0.00    -0.270 NA
ATOM      6  H   UNL     1      34.180 -23.949 -20.205  0.00  0.00    +0.137 HD
ATOM      7  H   UNL     1      33.333 -24.138 -18.783  0.00  0.00    +0.137 HD
ENDBRANCH   3   5
ENDBRANCH   1   3
BRANCH   1   8
ATOM      8  C   UNL     1      33.712 -20.160 -20.672  0.00  0.00    +0.017 C 
BRANCH   8   9
ATOM      9  C   UNL     1      34.972 -19.524 -21.274  0.00  0.00    +0.001 C 
BRANCH   9  10
ATOM     10  C   UNL     1      34.618 -18.591 -22.435  0.00  0.00    +0.000 C 
BRANCH  10  11
ATOM     11  C   UNL     1      34.859 -19.214 -23.813  0.00  0.00    +0.000 C 
BRANCH  11  12
ATOM     12  C   UNL     1      34.458 -18.301 -24.972  0.00  0.00    +0.000 C 
ATOM     13  C   UNL     1      34.756 -16.843 -24.656  0.00  0.00    +0.000 C 
ENDBRANCH  11  12
ENDBRANCH  10  11
ENDBRANCH   9  10
ENDBRANCH   8   9
ENDBRANCH   1   8
TORSDOF 7
ENDMDL
MODEL 4
REMARK VINA RESULT:      -5.4      1.239      1.854
REMARK  Name = 20811
REMARK  7 active torsions:
REMARK  status: ('A' for Active; 'I' for Inactive)
REMARK    1  A    between atoms: C_1  and  N_3
REMARK    2  A    between atoms: C_1  and  C_8
REMARK    3  A    between atoms: N_3  and  N_5
REMARK    4  A    between atoms: C_8  and  C_9
REMARK    5  A    between atoms: C_9  and  C_10
REMARK    6  A    between atoms: C_10  and  C_11
REMARK    7  A    between atoms: C_11  and  C_12
REMARK                            x       y       z     vdW  Elec       q    Type
REMARK                         _______ _______ _______ _____ _____    ______ ____
ROOT
ATOM      1  C   UNL     1      35.030 -17.399 -24.398  0.00  0.00    +0.068 C 
ATOM      2  C   UNL     1      34.371 -16.297 -23.568  0.00  0.00    +0.018 C 
ENDROOT
BRANCH   1   3
ATOM      3  N   UNL     1      34.631 -17.263 -25.799  0.00  0.00    -0.250 NA
ATOM      4  H   UNL     1      35.457 -17.270 -26.397  0.00  0.00    +0.141 HD
BRANCH   3   5
ATOM      5  N   UNL     1      33.938 -16.027 -25.944  0.00  0.00    -0.270 NA
ATOM      6  H   UNL     1      34.546 -15.348 -26.403  0.00  0.00    +0.137 HD
ATOM      7  H   UNL     1      33.672 -15.676 -25.024  0.00  0.00    +0.137 HD
ENDBRANCH   3   5
ENDBRANCH   1   3
BRANCH   1   8
ATOM      8  C   UNL     1      34.654 -18.786 -23.852  0.00  0.00    +0.017 C 
BRANCH   8   9
ATOM      9  C   UNL     1      35.122 -19.011 -22.408  0.00  0.00    +0.001 C 
BRANCH   9  10
ATOM     10  C   UNL     1      33.959 -19.447 -21.512  0.00  0.00    +0.000 C 
BRANCH  10  11
ATOM     11  C   UNL     1      34.382 -20.388 -20.380  0.00  0.00    +0.000 C 
BRANCH  11  12
ATOM     12  C   UNL     1      35.897 -20.568 -20.273  0.00  0.00    +0.000 C 
ATOM     13  C   UNL     1      36.267 -21.460 -19.097  0.00  0.00    +0.000 C 
ENDBRANCH  11  12
ENDBRANCH  10  11
ENDBRANCH   9  10
ENDBRANCH   8   9
ENDBRANCH   1   8
TORSDOF 7
ENDMDL
MODEL 5
REMARK VINA RESULT:      -5.3      3.962      5.561
REMARK  Name = 20811
REMARK  7 active torsions:
REMARK  status: ('A' for Active; 'I' for Inactive)
REMARK    1  A    between atoms: C_1  and  N_3
REMARK    2  A    between atoms: C_1  and  C_8
REMARK    3  A    between atoms: N_3  and  N_5
REMARK    4  A    between atoms: C_8  and  C_9
REMARK    5  A    between atoms: C_9  and  C_10
REMARK    6  A    between atoms: C_10  and  C_11
REMARK    7  A    between atoms: C_11  and  C_12
REMARK                            x       y       z     vdW  Elec       q    Type
REMARK                         _______ _______ _______ _____ _____    ______ ____
ROOT
ATOM      1  C   UNL     1      33.983 -21.247 -19.530  0.00  0.00    +0.068 C 
ATOM      2  C   UNL     1      35.452 -21.661 -19.596  0.00  0.00    +0.018 C 
ENDROOT
BRANCH   1   3
ATOM      3  N   UNL     1      33.132 -22.428 -19.685  0.00  0.00    -0.250 NA
ATOM      4  H   UNL     1      32.328 -22.360 -19.062  0.00  0.00    +0.141 HD
BRANCH   3   5
ATOM      5  N   UNL     1      33.907 -23.577 -19.353  0.00  0.00    -0.270 NA
ATOM      6  H   UNL     1      34.134 -24.093 -20.203  0.00  0.00    +0.137 HD
ATOM      7  H   UNL     1      33.373 -24.177 -18.725  0.00  0.00    +0.137 HD
ENDBRANCH   3   5
ENDBRANCH   1   3
BRANCH   1   8
ATOM      8  C   UNL     1      33.666 -20.198 -20.609  0.00  0.00    +0.017 C 
BRANCH   8   9
ATOM      9  C   UNL     1      34.900 -19.401 -21.052  0.00  0.00    +0.001 C 
BRANCH   9  10
ATOM     10  C   UNL     1      34.648 -18.686 -22.382  0.00  0.00    +0.000 C 
BRANCH  10  11
ATOM     11  C   UNL     1      34.829 -17.168 -22.301  0.00  0.00    +0.000 C 
BRANCH  11  12
ATOM     12  C   UNL     1      34.920 -16.641 -20.869  0.00  0.00    +0.000 C 
ATOM     13  C   UNL     1      34.437 -15.201 -20.776  0.00  0.00    +0.000 C 
ENDBRANCH  11  12
ENDBRANCH  10  11
ENDBRANCH   9  10
ENDBRANCH   8   9
ENDBRANCH   1   8
TORSDOF 7
ENDMDL
MODEL 6
REMARK VINA RESULT:      -5.3      8.730     10.079
REMARK  Name = 20811
REMARK  7 active torsions:
REMARK  status: ('A' for Active; 'I' for Inactive)
REMARK    1  A    between atoms: C_1  and  N_3
REMARK    2  A    between atoms: C_1  and  C_8
REMARK    3  A    between atoms: N_3  and  N_5
REMARK    4  A    between atoms: C_8  and  C_9
REMARK    5  A    between atoms: C_9  and  C_10
REMARK    6  A    between atoms: C_10  and  C_11
REMARK    7  A    between atoms: C_11  and  C_12
REMARK                            x       y       z     vdW  Elec       q    Type
REMARK                         _______ _______ _______ _____ _____    ______ ____
ROOT
ATOM      1  C   UNL     1      28.456 -23.064 -16.773  0.00  0.00    +0.068 C 
ATOM      2  C   UNL     1      28.006 -22.310 -15.523  0.00  0.00    +0.018 C 
ENDROOT
BRANCH   1   3
ATOM      3  N   UNL     1      27.466 -22.887 -17.837  0.00  0.00    -0.250 NA
ATOM      4  H   UNL     1      27.936 -22.822 -18.740  0.00  0.00    +0.141 HD
BRANCH   3   5
ATOM      5  N   UNL     1      26.749 -21.684 -17.577  0.00  0.00    -0.270 NA
ATOM      6  H   UNL     1      25.749 -21.852 -17.690  0.00  0.00    +0.137 HD
ATOM      7  H   UNL     1      27.048 -20.961 -18.231  0.00  0.00    +0.137 HD
ENDBRANCH   3   5
ENDBRANCH   1   3
BRANCH   1   8
ATOM      8  C   UNL     1      28.664 -24.555 -16.461  0.00  0.00    +0.017 C 
BRANCH   8   9
ATOM      9  C   UNL     1      28.905 -24.829 -14.970  0.00  0.00    +0.001 C 
BRANCH   9  10
ATOM     10  C   UNL     1      30.387 -25.090 -14.689  0.00  0.00    +0.000 C 
BRANCH  10  11
ATOM     11  C   UNL     1      31.036 -24.023 -13.802  0.00  0.00    +0.000 C 
BRANCH  11  12
ATOM     12  C   UNL     1      31.638 -22.861 -14.589  0.00  0.00    +0.000 C 
ATOM     13  C   UNL     1      32.174 -23.323 -15.937  0.00  0.00    +0.000 C 
ENDBRANCH  11  12
ENDBRANCH  10  11
ENDBRANCH   9  10
ENDBRANCH   8   9
ENDBRANCH   1   8
TORSDOF 7
ENDMDL
MODEL 7
REMARK VINA RESULT:      -5.3      1.672      2.446
REMARK  Name = 20811
REMARK  7 active torsions:
REMARK  status: ('A' for Active; 'I' for Inactive)
REMARK    1  A    between atoms: C_1  and  N_3
REMARK    2  A    between atoms: C_1  and  C_8
REMARK    3  A    between atoms: N_3  and  N_5
REMARK    4  A    between atoms: C_8  and  C_9
REMARK    5  A    between atoms: C_9  and  C_10
REMARK    6  A    between atoms: C_10  and  C_11
REMARK    7  A    between atoms: C_11  and  C_12
REMARK                            x       y       z     vdW  Elec       q    Type
REMARK                         _______ _______ _______ _____ _____    ______ ____
ROOT
ATOM      1  C   UNL     1      35.533 -17.987 -21.468  0.00  0.00    +0.068 C 
ATOM      2  C   UNL     1      34.369 -17.020 -21.255  0.00  0.00    +0.018 C 
ENDROOT
BRANCH   1   3
ATOM      3  N   UNL     1      36.091 -17.798 -22.808  0.00  0.00    -0.250 NA
ATOM      4  H   UNL     1      37.109 -17.820 -22.765  0.00  0.00    +0.141 HD
BRANCH   3   5
ATOM      5  N   UNL     1      35.654 -16.532 -23.294  0.00  0.00    -0.270 NA
ATOM      6  H   UNL     1      35.694 -16.526 -24.313  0.00  0.00    +0.137 HD
ATOM      7  H   UNL     1      36.259 -15.799 -22.926  0.00  0.00    +0.137 HD
ENDBRANCH   3   5
ENDBRANCH   1   3
BRANCH   1   8
ATOM      8  C   UNL     1      35.073 -19.440 -21.265  0.00  0.00    +0.017 C 
BRANCH   8   9
ATOM      9  C   UNL     1      33.549 -19.576 -21.141  0.00  0.00    +0.001 C 
BRANCH   9  10
ATOM     10  C   UNL     1      33.172 -20.648 -20.116  0.00  0.00    +0.000 C 
BRANCH  10  11
ATOM     11  C   UNL     1      34.358 -21.510 -19.672  0.00  0.00    +0.000 C 
BRANCH  11  12
ATOM     12  C   UNL     1      33.950 -22.898 -19.177  0.00  0.00    +0.000 C 
ATOM     13  C   UNL     1      33.037 -22.807 -17.963  0.00  0.00    +0.000 C 
ENDBRANCH  11  12
ENDBRANCH  10  11
ENDBRANCH   9  10
ENDBRANCH   8   9
ENDBRANCH   1   8
TORSDOF 7
ENDMDL
MODEL 8
REMARK VINA RESULT:      -5.1      2.541      4.129
REMARK  Name = 20811
REMARK  7 active torsions:
REMARK  status: ('A' for Active; 'I' for Inactive)
REMARK    1  A    between atoms: C_1  and  N_3
REMARK    2  A    between atoms: C_1  and  C_8
REMARK    3  A    between atoms: N_3  and  N_5
REMARK    4  A    between atoms: C_8  and  C_9
REMARK    5  A    between atoms: C_9  and  C_10
REMARK    6  A    between atoms: C_10  and  C_11
REMARK    7  A    between atoms: C_11  and  C_12
REMARK                            x       y       z     vdW  Elec       q    Type
REMARK                         _______ _______ _______ _____ _____    ______ ____
ROOT
ATOM      1  C   UNL     1      34.716 -17.612 -23.638  0.00  0.00    +0.068 C 
ATOM      2  C   UNL     1      34.818 -19.074 -24.073  0.00  0.00    +0.018 C 
ENDROOT
BRANCH   1   3
ATOM      3  N   UNL     1      35.327 -16.753 -24.653  0.00  0.00    -0.250 NA
ATOM      4  H   UNL     1      35.479 -15.820 -24.270  0.00  0.00    +0.141 HD
BRANCH   3   5
ATOM      5  N   UNL     1      34.438 -16.681 -25.764  0.00  0.00    -0.270 NA
ATOM      6  H   UNL     1      34.550 -15.782 -26.232  0.00  0.00    +0.137 HD
ATOM      7  H   UNL     1      33.476 -16.777 -25.438  0.00  0.00    +0.137 HD
ENDBRANCH   3   5
ENDBRANCH   1   3
BRANCH   1   8
ATOM      8  C   UNL     1      35.387 -17.407 -22.269  0.00  0.00    +0.017 C 
BRANCH   8   9
ATOM      9  C   UNL     1      34.388 -17.071 -21.154  0.00  0.00    +0.001 C 
BRANCH   9  10
ATOM     10  C   UNL     1      34.584 -15.638 -20.651  0.00  0.00    +0.000 C 
BRANCH  10  11
ATOM     11  C   UNL     1      33.327 -14.771 -20.775  0.00  0.00    +0.000 C 
BRANCH  11  12
ATOM     12  C   UNL     1      32.827 -14.628 -22.212  0.00  0.00    +0.000 C 
ATOM     13  C   UNL     1      33.819 -13.854 -23.069  0.00  0.00    +0.000 C 
ENDBRANCH  11  12
ENDBRANCH  10  11
ENDBRANCH   9  10
ENDBRANCH   8   9
ENDBRANCH   1   8
TORSDOF 7
ENDMDL
MODEL 9
REMARK VINA RESULT:      -5.1      7.495      9.744
REMARK  Name = 20811
REMARK  7 active torsions:
REMARK  status: ('A' for Active; 'I' for Inactive)
REMARK    1  A    between atoms: C_1  and  N_3
REMARK    2  A    between atoms: C_1  and  C_8
REMARK    3  A    between atoms: N_3  and  N_5
REMARK    4  A    between atoms: C_8  and  C_9
REMARK    5  A    between atoms: C_9  and  C_10
REMARK    6  A    between atoms: C_10  and  C_11
REMARK    7  A    between atoms: C_11  and  C_12
REMARK                            x       y       z     vdW  Elec       q    Type
REMARK                         _______ _______ _______ _____ _____    ______ ____
ROOT
ATOM      1  C   UNL     1      36.524 -25.828 -14.771  0.00  0.00    +0.068 C 
ATOM      2  C   UNL     1      37.075 -25.908 -13.348  0.00  0.00    +0.018 C 
ENDROOT
BRANCH   1   3
ATOM      3  N   UNL     1      37.437 -26.508 -15.691  0.00  0.00    -0.250 NA
ATOM      4  H   UNL     1      37.894 -25.824 -16.293  0.00  0.00    +0.141 HD
BRANCH   3   5
ATOM      5  N   UNL     1      36.674 -27.415 -16.481  0.00  0.00    -0.270 NA
ATOM      6  H   UNL     1      36.326 -28.172 -15.891  0.00  0.00    +0.137 HD
ATOM      7  H   UNL     1      37.262 -27.803 -17.218  0.00  0.00    +0.137 HD
ENDBRANCH   3   5
ENDBRANCH   1   3
BRANCH   1   8
ATOM      8  C   UNL     1      36.315 -24.363 -15.189  0.00  0.00    +0.017 C 
BRANCH   8   9
ATOM      9  C   UNL     1      37.603 -23.531 -15.127  0.00  0.00    +0.001 C 
BRANCH   9  10
ATOM     10  C   UNL     1      37.510 -22.302 -16.036  0.00  0.00    +0.000 C 
BRANCH  10  11
ATOM     11  C   UNL     1      36.299 -22.327 -16.973  0.00  0.00    +0.000 C 
BRANCH  11  12
ATOM     12  C   UNL     1      36.556 -21.649 -18.318  0.00  0.00    +0.000 C 
ATOM     13  C   UNL     1      35.331 -21.719 -19.217  0.00  0.00    +0.000 C 
ENDBRANCH  11  12
ENDBRANCH  10  11
ENDBRANCH   9  10
ENDBRANCH   8   9
ENDBRANCH   1   8
TORSDOF 7
ENDMDL
