MODEL 1
REMARK VINA RESULT:      -6.7      0.000      0.000
REMARK  Name = 440901
REMARK  10 active torsions:
REMARK  status: ('A' for Active; 'I' for Inactive)
REMARK    1  A    between atoms: C_1  and  O_2
REMARK    2  A    between atoms: C_1  and  CA_4
REMARK    3  A    between atoms: C_1  and  C_13
REMARK    4  A    between atoms: CA_4  and  N_5
REMARK    5  A    between atoms: CA_4  and  C_10
REMARK    6  A    between atoms: C_10  and  O_11
REMARK    7  A    between atoms: C_13  and  O_14
REMARK    8  A    between atoms: O_14  and  P_15
REMARK    9  A    between atoms: P_15  and  O_17
REMARK   10  A    between atoms: P_15  and  O_19
REMARK                            x       y       z     vdW  Elec       q    Type
REMARK                         _______ _______ _______ _____ _____    ______ ____
ROOT
ATOM      1  C   UNL     1      36.702 -25.744 -13.490  0.00  0.00    +0.131 C 
ENDROOT
BRANCH   1   2
ATOM      2  O   UNL     1      36.875 -26.874 -12.630  0.00  0.00    -0.383 OA
ATOM      3  H   UNL     1      36.196 -26.861 -11.938  0.00  0.00    +0.210 HD
ENDBRANCH   1   2
BRANCH   1   4
ATOM      4  CA  UNL     1      36.731 -24.478 -12.620  0.00  0.00    +0.066 C 
BRANCH   4   5
ATOM      5  N   UNL     1      37.967 -24.419 -11.839  0.00  0.00    +0.390 N 
ATOM      6  H1  UNL     1      37.756 -24.586 -10.855  0.00  0.00    -0.088 HD
ATOM      7  H2  UNL     1      38.391 -23.498 -11.943  0.00  0.00    -0.088 HD
ATOM      8  H3  UNL     1      38.615 -25.132 -12.173  0.00  0.00    -0.088 HD
ENDBRANCH   4   5
BRANCH   4  10
ATOM      9  OXT UNL     1      35.470 -25.056 -10.605  0.00  0.00    -0.253 OA
ATOM     10  C   UNL     1      35.566 -24.410 -11.640  0.00  0.00    +0.295 C 
BRANCH  10  11
ATOM     11  O   UNL     1      34.614 -23.530 -12.045  0.00  0.00    -0.482 OA
ATOM     12  H   UNL     1      34.392 -22.797 -11.506  0.00  0.00    +0.295 HD
ENDBRANCH  10  11
ENDBRANCH   4  10
ENDBRANCH   1   4
BRANCH   1  13
ATOM     13  C   UNL     1      37.762 -25.780 -14.592  0.00  0.00    +0.181 C 
BRANCH  13  14
ATOM     14  O   UNL     1      38.915 -26.482 -14.133  0.00  0.00    -0.271 OA
BRANCH  14  15
ATOM     15  P   UNL     1      40.369 -25.867 -14.472  0.00  0.00    +0.473 P 
ATOM     16  O   UNL     1      40.649 -24.523 -13.866  0.00  0.00    -0.227 OA
BRANCH  15  17
ATOM     17  O   UNL     1      40.448 -25.929 -16.086  0.00  0.00    -0.303 OA
ATOM     18  H   UNL     1      41.319 -26.261 -16.355  0.00  0.00    +0.222 HD
ENDBRANCH  15  17
BRANCH  15  19
ATOM     19  O   UNL     1      41.371 -27.048 -14.006  0.00  0.00    -0.303 OA
ATOM     20  H   UNL     1      41.135 -27.872 -14.462  0.00  0.00    +0.222 HD
ENDBRANCH  15  19
ENDBRANCH  14  15
ENDBRANCH  13  14
ENDBRANCH   1  13
TORSDOF 10
ENDMDL
MODEL 2
REMARK VINA RESULT:      -6.6      1.415      2.050
REMARK  Name = 440901
REMARK  10 active torsions:
REMARK  status: ('A' for Active; 'I' for Inactive)
REMARK    1  A    between atoms: C_1  and  O_2
REMARK    2  A    between atoms: C_1  and  CA_4
REMARK    3  A    between atoms: C_1  and  C_13
REMARK    4  A    between atoms: CA_4  and  N_5
REMARK    5  A    between atoms: CA_4  and  C_10
REMARK    6  A    between atoms: C_10  and  O_11
REMARK    7  A    between atoms: C_13  and  O_14
REMARK    8  A    between atoms: O_14  and  P_15
REMARK    9  A    between atoms: P_15  and  O_17
REMARK   10  A    between atoms: P_15  and  O_19
REMARK                            x       y       z     vdW  Elec       q    Type
REMARK                         _______ _______ _______ _____ _____    ______ ____
ROOT
ATOM      1  C   UNL     1      36.931 -25.616 -13.184  0.00  0.00    +0.131 C 
ENDROOT
BRANCH   1   2
ATOM      2  O   UNL     1      37.738 -26.133 -12.122  0.00  0.00    -0.383 OA
ATOM      3  H   UNL     1      37.229 -26.127 -11.297  0.00  0.00    +0.210 HD
ENDBRANCH   1   2
BRANCH   1   4
ATOM      4  CA  UNL     1      36.712 -24.117 -12.924  0.00  0.00    +0.066 C 
BRANCH   4   5
ATOM      5  N   UNL     1      37.194 -23.324 -14.056  0.00  0.00    +0.390 N 
ATOM      6  H1  UNL     1      37.296 -22.350 -13.770  0.00  0.00    -0.088 HD
ATOM      7  H2  UNL     1      36.526 -23.385 -14.823  0.00  0.00    -0.088 HD
ATOM      8  H3  UNL     1      38.098 -23.684 -14.363  0.00  0.00    -0.088 HD
ENDBRANCH   4   5
BRANCH   4  10
ATOM      9  OXT UNL     1      38.515 -23.050 -11.663  0.00  0.00    -0.253 OA
ATOM     10  C   UNL     1      37.433 -23.623 -11.678  0.00  0.00    +0.295 C 
BRANCH  10  11
ATOM     11  O   UNL     1      36.731 -23.891 -10.546  0.00  0.00    -0.482 OA
ATOM     12  H   UNL     1      37.178 -23.986  -9.728  0.00  0.00    +0.295 HD
ENDBRANCH  10  11
ENDBRANCH   4  10
ENDBRANCH   1   4
BRANCH   1  13
ATOM     13  C   UNL     1      37.593 -25.937 -14.525  0.00  0.00    +0.181 C 
BRANCH  13  14
ATOM     14  O   UNL     1      38.748 -26.746 -14.314  0.00  0.00    -0.271 OA
BRANCH  14  15
ATOM     15  P   UNL     1      40.201 -26.066 -14.498  0.00  0.00    +0.473 P 
ATOM     16  O   UNL     1      41.354 -26.878 -13.985  0.00  0.00    -0.227 OA
BRANCH  15  17
ATOM     17  O   UNL     1      40.031 -24.604 -13.827  0.00  0.00    -0.303 OA
ATOM     18  H   UNL     1      39.107 -24.475 -13.563  0.00  0.00    +0.222 HD
ENDBRANCH  15  17
BRANCH  15  19
ATOM     19  O   UNL     1      40.245 -25.743 -16.082  0.00  0.00    -0.303 OA
ATOM     20  H   UNL     1      40.664 -26.482 -16.552  0.00  0.00    +0.222 HD
ENDBRANCH  15  19
ENDBRANCH  14  15
ENDBRANCH  13  14
ENDBRANCH   1  13
TORSDOF 10
ENDMDL
MODEL 3
REMARK VINA RESULT:      -6.6      2.339      5.077
REMARK  Name = 440901
REMARK  10 active torsions:
REMARK  status: ('A' for Active; 'I' for Inactive)
REMARK    1  A    between atoms: C_1  and  O_2
REMARK    2  A    between atoms: C_1  and  CA_4
REMARK    3  A    between atoms: C_1  and  C_13
REMARK    4  A    between atoms: CA_4  and  N_5
REMARK    5  A    between atoms: CA_4  and  C_10
REMARK    6  A    between atoms: C_10  and  O_11
REMARK    7  A    between atoms: C_13  and  O_14
REMARK    8  A    between atoms: O_14  and  P_15
REMARK    9  A    between atoms: P_15  and  O_17
REMARK   10  A    between atoms: P_15  and  O_19
REMARK                            x       y       z     vdW  Elec       q    Type
REMARK                         _______ _______ _______ _____ _____    ______ ____
ROOT
ATOM      1  C   UNL     1      37.688 -26.015 -14.475  0.00  0.00    +0.131 C 
ENDROOT
BRANCH   1   2
ATOM      2  O   UNL     1      37.501 -26.598 -15.768  0.00  0.00    -0.383 OA
ATOM      3  H   UNL     1      36.792 -26.129 -16.235  0.00  0.00    +0.210 HD
ENDBRANCH   1   2
BRANCH   1   4
ATOM      4  CA  UNL     1      38.929 -25.110 -14.539  0.00  0.00    +0.066 C 
BRANCH   4   5
ATOM      5  N   UNL     1      38.784 -24.113 -15.600  0.00  0.00    +0.390 N 
ATOM      6  H1  UNL     1      37.944 -23.560 -15.435  0.00  0.00    -0.088 HD
ATOM      7  H2  UNL     1      38.710 -24.585 -16.501  0.00  0.00    -0.088 HD
ATOM      8  H3  UNL     1      39.600 -23.500 -15.604  0.00  0.00    -0.088 HD
ENDBRANCH   4   5
BRANCH   4  10
ATOM      9  OXT UNL     1      40.925 -26.399 -13.958  0.00  0.00    -0.253 OA
ATOM     10  C   UNL     1      40.210 -25.887 -14.810  0.00  0.00    +0.295 C 
BRANCH  10  11
ATOM     11  O   UNL     1      40.490 -25.956 -16.138  0.00  0.00    -0.482 OA
ATOM     12  H   UNL     1      41.368 -25.840 -16.440  0.00  0.00    +0.295 HD
ENDBRANCH  10  11
ENDBRANCH   4  10
ENDBRANCH   1   4
BRANCH   1  13
ATOM     13  C   UNL     1      36.403 -25.300 -14.053  0.00  0.00    +0.181 C 
BRANCH  13  14
ATOM     14  O   UNL     1      36.723 -24.083 -13.383  0.00  0.00    -0.271 OA
BRANCH  14  15
ATOM     15  P   UNL     1      36.294 -23.928 -11.834  0.00  0.00    +0.473 P 
ATOM     16  O   UNL     1      37.143 -22.987 -11.030  0.00  0.00    -0.227 OA
BRANCH  15  17
ATOM     17  O   UNL     1      36.245 -25.451 -11.292  0.00  0.00    -0.303 OA
ATOM     18  H   UNL     1      35.450 -25.576 -10.752  0.00  0.00    +0.222 HD
ENDBRANCH  15  17
BRANCH  15  19
ATOM     19  O   UNL     1      34.733 -23.520 -11.937  0.00  0.00    -0.303 OA
ATOM     20  H   UNL     1      34.275 -24.136 -12.532  0.00  0.00    +0.222 HD
ENDBRANCH  15  19
ENDBRANCH  14  15
ENDBRANCH  13  14
ENDBRANCH   1  13
TORSDOF 10
ENDMDL
MODEL 4
REMARK VINA RESULT:      -6.6      1.420      2.185
REMARK  Name = 440901
REMARK  10 active torsions:
REMARK  status: ('A' for Active; 'I' for Inactive)
REMARK    1  A    between atoms: C_1  and  O_2
REMARK    2  A    between atoms: C_1  and  CA_4
REMARK    3  A    between atoms: C_1  and  C_13
REMARK    4  A    between atoms: CA_4  and  N_5
REMARK    5  A    between atoms: CA_4  and  C_10
REMARK    6  A    between atoms: C_10  and  O_11
REMARK    7  A    between atoms: C_13  and  O_14
REMARK    8  A    between atoms: O_14  and  P_15
REMARK    9  A    between atoms: P_15  and  O_17
REMARK   10  A    between atoms: P_15  and  O_19
REMARK                            x       y       z     vdW  Elec       q    Type
REMARK                         _______ _______ _______ _____ _____    ______ ____
ROOT
ATOM      1  C   UNL     1      37.975 -24.435 -12.117  0.00  0.00    +0.131 C 
ENDROOT
BRANCH   1   2
ATOM      2  O   UNL     1      37.860 -23.201 -11.404  0.00  0.00    -0.383 OA
ATOM      3  H   UNL     1      37.867 -23.376 -10.450  0.00  0.00    +0.210 HD
ENDBRANCH   1   2
BRANCH   1   4
ATOM      4  CA  UNL     1      36.654 -25.203 -11.950  0.00  0.00    +0.066 C 
BRANCH   4   5
ATOM      5  N   UNL     1      36.067 -25.505 -13.256  0.00  0.00    +0.390 N 
ATOM      6  H1  UNL     1      36.533 -26.318 -13.659  0.00  0.00    -0.088 HD
ATOM      7  H2  UNL     1      36.185 -24.704 -13.876  0.00  0.00    -0.088 HD
ATOM      8  H3  UNL     1      35.073 -25.705 -13.144  0.00  0.00    -0.088 HD
ENDBRANCH   4   5
BRANCH   4  10
ATOM      9  OXT UNL     1      35.461 -24.488  -9.939  0.00  0.00    -0.253 OA
ATOM     10  C   UNL     1      35.617 -24.424 -11.151  0.00  0.00    +0.295 C 
BRANCH  10  11
ATOM     11  O   UNL     1      34.859 -23.625 -11.946  0.00  0.00    -0.482 OA
ATOM     12  H   UNL     1      34.396 -23.990 -12.674  0.00  0.00    +0.295 HD
ENDBRANCH  10  11
ENDBRANCH   4  10
ENDBRANCH   1   4
BRANCH   1  13
ATOM     13  C   UNL     1      38.361 -24.147 -13.569  0.00  0.00    +0.181 C 
BRANCH  13  14
ATOM     14  O   UNL     1      39.679 -24.628 -13.824  0.00  0.00    -0.271 OA
BRANCH  14  15
ATOM     15  P   UNL     1      39.841 -26.034 -14.602  0.00  0.00    +0.473 P 
ATOM     16  O   UNL     1      38.650 -26.944 -14.527  0.00  0.00    -0.227 OA
BRANCH  15  17
ATOM     17  O   UNL     1      41.217 -26.645 -14.013  0.00  0.00    -0.303 OA
ATOM     18  H   UNL     1      41.949 -26.429 -14.611  0.00  0.00    +0.222 HD
ENDBRANCH  15  17
BRANCH  15  19
ATOM     19  O   UNL     1      40.251 -25.569 -16.096  0.00  0.00    -0.303 OA
ATOM     20  H   UNL     1      40.425 -26.351 -16.643  0.00  0.00    +0.222 HD
ENDBRANCH  15  19
ENDBRANCH  14  15
ENDBRANCH  13  14
ENDBRANCH   1  13
TORSDOF 10
ENDMDL
MODEL 5
REMARK VINA RESULT:      -6.6      2.246      5.125
REMARK  Name = 440901
REMARK  10 active torsions:
REMARK  status: ('A' for Active; 'I' for Inactive)
REMARK    1  A    between atoms: C_1  and  O_2
REMARK    2  A    between atoms: C_1  and  CA_4
REMARK    3  A    between atoms: C_1  and  C_13
REMARK    4  A    between atoms: CA_4  and  N_5
REMARK    5  A    between atoms: CA_4  and  C_10
REMARK    6  A    between atoms: C_10  and  O_11
REMARK    7  A    between atoms: C_13  and  O_14
REMARK    8  A    between atoms: O_14  and  P_15
REMARK    9  A    between atoms: P_15  and  O_17
REMARK   10  A    between atoms: P_15  and  O_19
REMARK                            x       y       z     vdW  Elec       q    Type
REMARK                         _______ _______ _______ _____ _____    ______ ____
ROOT
ATOM      1  C   UNL     1      37.677 -25.080 -15.067  0.00  0.00    +0.131 C 
ENDROOT
BRANCH   1   2
ATOM      2  O   UNL     1      38.261 -23.816 -15.393  0.00  0.00    -0.383 OA
ATOM      3  H   UNL     1      38.528 -23.814 -16.326  0.00  0.00    +0.210 HD
ENDBRANCH   1   2
BRANCH   1   4
ATOM      4  CA  UNL     1      38.789 -25.986 -14.515  0.00  0.00    +0.066 C 
BRANCH   4   5
ATOM      5  N   UNL     1      38.739 -26.028 -13.053  0.00  0.00    +0.390 N 
ATOM      6  H1  UNL     1      38.723 -27.000 -12.741  0.00  0.00    -0.088 HD
ATOM      7  H2  UNL     1      37.899 -25.552 -12.727  0.00  0.00    -0.088 HD
ATOM      8  H3  UNL     1      39.563 -25.563 -12.671  0.00  0.00    -0.088 HD
ENDBRANCH   4   5
BRANCH   4  10
ATOM      9  OXT UNL     1      40.919 -24.821 -14.229  0.00  0.00    -0.253 OA
ATOM     10  C   UNL     1      40.182 -25.519 -14.913  0.00  0.00    +0.295 C 
BRANCH  10  11
ATOM     11  O   UNL     1      40.537 -25.969 -16.144  0.00  0.00    -0.482 OA
ATOM     12  H   UNL     1      40.675 -26.885 -16.287  0.00  0.00    +0.295 HD
ENDBRANCH  10  11
ENDBRANCH   4  10
ENDBRANCH   1   4
BRANCH   1  13
ATOM     13  C   UNL     1      36.503 -24.863 -14.111  0.00  0.00    +0.181 C 
BRANCH  13  14
ATOM     14  O   UNL     1      36.767 -23.747 -13.264  0.00  0.00    -0.271 OA
BRANCH  14  15
ATOM     15  P   UNL     1      36.286 -23.827 -11.724  0.00  0.00    +0.473 P 
ATOM     16  O   UNL     1      37.048 -22.951 -10.773  0.00  0.00    -0.227 OA
BRANCH  15  17
ATOM     17  O   UNL     1      36.322 -25.408 -11.389  0.00  0.00    -0.303 OA
ATOM     18  H   UNL     1      37.199 -25.764 -11.601  0.00  0.00    +0.222 HD
ENDBRANCH  15  17
BRANCH  15  19
ATOM     19  O   UNL     1      34.705 -23.505 -11.829  0.00  0.00    -0.303 OA
ATOM     20  H   UNL     1      34.197 -24.281 -11.541  0.00  0.00    +0.222 HD
ENDBRANCH  15  19
ENDBRANCH  14  15
ENDBRANCH  13  14
ENDBRANCH   1  13
TORSDOF 10
ENDMDL
MODEL 6
REMARK VINA RESULT:      -6.5      2.567      5.012
REMARK  Name = 440901
REMARK  10 active torsions:
REMARK  status: ('A' for Active; 'I' for Inactive)
REMARK    1  A    between atoms: C_1  and  O_2
REMARK    2  A    between atoms: C_1  and  CA_4
REMARK    3  A    between atoms: C_1  and  C_13
REMARK    4  A    between atoms: CA_4  and  N_5
REMARK    5  A    between atoms: CA_4  and  C_10
REMARK    6  A    between atoms: C_10  and  O_11
REMARK    7  A    between atoms: C_13  and  O_14
REMARK    8  A    between atoms: O_14  and  P_15
REMARK    9  A    between atoms: P_15  and  O_17
REMARK   10  A    between atoms: P_15  and  O_19
REMARK                            x       y       z     vdW  Elec       q    Type
REMARK                         _______ _______ _______ _____ _____    ______ ____
ROOT
ATOM      1  C   UNL     1      37.644 -24.680 -13.743  0.00  0.00    +0.131 C 
ENDROOT
BRANCH   1   2
ATOM      2  O   UNL     1      38.963 -24.455 -14.250  0.00  0.00    -0.383 OA
ATOM      3  H   UNL     1      39.516 -25.231 -14.067  0.00  0.00    +0.210 HD
ENDBRANCH   1   2
BRANCH   1   4
ATOM      4  CA  UNL     1      36.819 -25.354 -14.851  0.00  0.00    +0.066 C 
BRANCH   4   5
ATOM      5  N   UNL     1      35.440 -25.565 -14.409  0.00  0.00    +0.390 N 
ATOM      6  H1  UNL     1      35.051 -24.682 -14.077  0.00  0.00    -0.088 HD
ATOM      7  H2  UNL     1      35.427 -26.248 -13.654  0.00  0.00    -0.088 HD
ATOM      8  H3  UNL     1      34.882 -25.909 -15.190  0.00  0.00    -0.088 HD
ENDBRANCH   4   5
BRANCH   4  10
ATOM      9  OXT UNL     1      38.346 -27.262 -14.751  0.00  0.00    -0.253 OA
ATOM     10  C   UNL     1      37.381 -26.708 -15.262  0.00  0.00    +0.295 C 
BRANCH  10  11
ATOM     11  O   UNL     1      36.679 -27.259 -16.287  0.00  0.00    -0.482 OA
ATOM     12  H   UNL     1      36.565 -28.187 -16.332  0.00  0.00    +0.295 HD
ENDBRANCH  10  11
ENDBRANCH   4  10
ENDBRANCH   1   4
BRANCH   1  13
ATOM     13  C   UNL     1      37.732 -25.479 -12.443  0.00  0.00    +0.181 C 
BRANCH  13  14
ATOM     14  O   UNL     1      36.475 -25.450 -11.770  0.00  0.00    -0.271 OA
BRANCH  14  15
ATOM     15  P   UNL     1      36.025 -24.076 -11.051  0.00  0.00    +0.473 P 
ATOM     16  O   UNL     1      37.119 -23.067 -10.864  0.00  0.00    -0.227 OA
BRANCH  15  17
ATOM     17  O   UNL     1      35.299 -24.570  -9.694  0.00  0.00    -0.303 OA
ATOM     18  H   UNL     1      35.907 -25.129  -9.186  0.00  0.00    +0.222 HD
ENDBRANCH  15  17
BRANCH  15  19
ATOM     19  O   UNL     1      34.791 -23.582 -11.973  0.00  0.00    -0.303 OA
ATOM     20  H   UNL     1      34.642 -24.223 -12.686  0.00  0.00    +0.222 HD
ENDBRANCH  15  19
ENDBRANCH  14  15
ENDBRANCH  13  14
ENDBRANCH   1  13
TORSDOF 10
ENDMDL
MODEL 7
REMARK VINA RESULT:      -6.5      2.183      5.011
REMARK  Name = 440901
REMARK  10 active torsions:
REMARK  status: ('A' for Active; 'I' for Inactive)
REMARK    1  A    between atoms: C_1  and  O_2
REMARK    2  A    between atoms: C_1  and  CA_4
REMARK    3  A    between atoms: C_1  and  C_13
REMARK    4  A    between atoms: CA_4  and  N_5
REMARK    5  A    between atoms: CA_4  and  C_10
REMARK    6  A    between atoms: C_10  and  O_11
REMARK    7  A    between atoms: C_13  and  O_14
REMARK    8  A    between atoms: O_14  and  P_15
REMARK    9  A    between atoms: P_15  and  O_17
REMARK   10  A    between atoms: P_15  and  O_19
REMARK                            x       y       z     vdW  Elec       q    Type
REMARK                         _______ _______ _______ _____ _____    ______ ____
ROOT
ATOM      1  C   UNL     1      37.597 -26.224 -14.037  0.00  0.00    +0.131 C 
ENDROOT
BRANCH   1   2
ATOM      2  O   UNL     1      37.408 -26.306 -15.452  0.00  0.00    -0.383 OA
ATOM      3  H   UNL     1      38.109 -26.853 -15.840  0.00  0.00    +0.210 HD
ENDBRANCH   1   2
BRANCH   1   4
ATOM      4  CA  UNL     1      39.040 -25.761 -13.777  0.00  0.00    +0.066 C 
BRANCH   4   5
ATOM      5  N   UNL     1      39.054 -24.592 -12.896  0.00  0.00    +0.390 N 
ATOM      6  H1  UNL     1      39.913 -24.591 -12.346  0.00  0.00    -0.088 HD
ATOM      7  H2  UNL     1      38.250 -24.629 -12.270  0.00  0.00    -0.088 HD
ATOM      8  H3  UNL     1      39.009 -23.742 -13.458  0.00  0.00    -0.088 HD
ENDBRANCH   4   5
BRANCH   4  10
ATOM      9  OXT UNL     1      40.619 -26.063 -15.620  0.00  0.00    -0.253 OA
ATOM     10  C   UNL     1      39.774 -25.379 -15.055  0.00  0.00    +0.295 C 
BRANCH  10  11
ATOM     11  O   UNL     1      39.385 -24.164 -15.521  0.00  0.00    -0.482 OA
ATOM     12  H   UNL     1      39.658 -23.383 -15.082  0.00  0.00    +0.295 HD
ENDBRANCH  10  11
ENDBRANCH   4  10
ENDBRANCH   1   4
BRANCH   1  13
ATOM     13  C   UNL     1      36.522 -25.316 -13.435  0.00  0.00    +0.181 C 
BRANCH  13  14
ATOM     14  O   UNL     1      36.476 -25.490 -12.021  0.00  0.00    -0.271 OA
BRANCH  14  15
ATOM     15  P   UNL     1      35.878 -24.289 -11.123  0.00  0.00    +0.473 P 
ATOM     16  O   UNL     1      35.331 -24.704  -9.788  0.00  0.00    -0.227 OA
BRANCH  15  17
ATOM     17  O   UNL     1      34.822 -23.559 -12.106  0.00  0.00    -0.303 OA
ATOM     18  H   UNL     1      34.857 -23.973 -12.983  0.00  0.00    +0.222 HD
ENDBRANCH  15  17
BRANCH  15  19
ATOM     19  O   UNL     1      37.111 -23.245 -11.060  0.00  0.00    -0.303 OA
ATOM     20  H   UNL     1      37.067 -22.741 -10.231  0.00  0.00    +0.222 HD
ENDBRANCH  15  19
ENDBRANCH  14  15
ENDBRANCH  13  14
ENDBRANCH   1  13
TORSDOF 10
ENDMDL
MODEL 8
REMARK VINA RESULT:      -6.4      1.996      3.000
REMARK  Name = 440901
REMARK  10 active torsions:
REMARK  status: ('A' for Active; 'I' for Inactive)
REMARK    1  A    between atoms: C_1  and  O_2
REMARK    2  A    between atoms: C_1  and  CA_4
REMARK    3  A    between atoms: C_1  and  C_13
REMARK    4  A    between atoms: CA_4  and  N_5
REMARK    5  A    between atoms: CA_4  and  C_10
REMARK    6  A    between atoms: C_10  and  O_11
REMARK    7  A    between atoms: C_13  and  O_14
REMARK    8  A    between atoms: O_14  and  P_15
REMARK    9  A    between atoms: P_15  and  O_17
REMARK   10  A    between atoms: P_15  and  O_19
REMARK                            x       y       z     vdW  Elec       q    Type
REMARK                         _______ _______ _______ _____ _____    ______ ____
ROOT
ATOM      1  C   UNL     1      36.769 -23.178 -13.359  0.00  0.00    +0.131 C 
ENDROOT
BRANCH   1   2
ATOM      2  O   UNL     1      35.356 -23.269 -13.158  0.00  0.00    -0.383 OA
ATOM      3  H   UNL     1      35.176 -23.562 -12.252  0.00  0.00    +0.210 HD
ENDBRANCH   1   2
BRANCH   1   4
ATOM      4  CA  UNL     1      37.461 -23.708 -12.093  0.00  0.00    +0.066 C 
BRANCH   4   5
ATOM      5  N   UNL     1      38.512 -24.665 -12.443  0.00  0.00    +0.390 N 
ATOM      6  H1  UNL     1      39.386 -24.165 -12.609  0.00  0.00    -0.088 HD
ATOM      7  H2  UNL     1      38.244 -25.169 -13.288  0.00  0.00    -0.088 HD
ATOM      8  H3  UNL     1      38.639 -25.326 -11.677  0.00  0.00    -0.088 HD
ENDBRANCH   4   5
BRANCH   4  10
ATOM      9  OXT UNL     1      36.156 -23.998 -10.045  0.00  0.00    -0.253 OA
ATOM     10  C   UNL     1      36.499 -24.411 -11.145  0.00  0.00    +0.295 C 
BRANCH  10  11
ATOM     11  O   UNL     1      36.043 -25.583 -11.662  0.00  0.00    -0.482 OA
ATOM     12  H   UNL     1      35.645 -26.219 -11.102  0.00  0.00    +0.295 HD
ENDBRANCH  10  11
ENDBRANCH   4  10
ENDBRANCH   1   4
BRANCH   1  13
ATOM     13  C   UNL     1      37.146 -23.918 -14.644  0.00  0.00    +0.181 C 
BRANCH  13  14
ATOM     14  O   UNL     1      36.349 -25.092 -14.779  0.00  0.00    -0.271 OA
BRANCH  14  15
ATOM     15  P   UNL     1      37.098 -26.495 -15.061  0.00  0.00    +0.473 P 
ATOM     16  O   UNL     1      36.541 -27.296 -16.201  0.00  0.00    -0.227 OA
BRANCH  15  17
ATOM     17  O   UNL     1      37.086 -27.235 -13.623  0.00  0.00    -0.303 OA
ATOM     18  H   UNL     1      37.902 -27.749 -13.517  0.00  0.00    +0.222 HD
ENDBRANCH  15  17
BRANCH  15  19
ATOM     19  O   UNL     1      38.642 -26.045 -15.233  0.00  0.00    -0.303 OA
ATOM     20  H   UNL     1      39.056 -26.568 -15.939  0.00  0.00    +0.222 HD
ENDBRANCH  15  19
ENDBRANCH  14  15
ENDBRANCH  13  14
ENDBRANCH   1  13
TORSDOF 10
ENDMDL
MODEL 9
REMARK VINA RESULT:      -6.4      1.454      2.124
REMARK  Name = 440901
REMARK  10 active torsions:
REMARK  status: ('A' for Active; 'I' for Inactive)
REMARK    1  A    between atoms: C_1  and  O_2
REMARK    2  A    between atoms: C_1  and  CA_4
REMARK    3  A    between atoms: C_1  and  C_13
REMARK    4  A    between atoms: CA_4  and  N_5
REMARK    5  A    between atoms: CA_4  and  C_10
REMARK    6  A    between atoms: C_10  and  O_11
REMARK    7  A    between atoms: C_13  and  O_14
REMARK    8  A    between atoms: O_14  and  P_15
REMARK    9  A    between atoms: P_15  and  O_17
REMARK   10  A    between atoms: P_15  and  O_19
REMARK                            x       y       z     vdW  Elec       q    Type
REMARK                         _______ _______ _______ _____ _____    ______ ____
ROOT
ATOM      1  C   UNL     1      36.584 -23.109 -13.607  0.00  0.00    +0.131 C 
ENDROOT
BRANCH   1   2
ATOM      2  O   UNL     1      35.220 -22.874 -13.965  0.00  0.00    -0.383 OA
ATOM      3  H   UNL     1      34.666 -23.590 -13.618  0.00  0.00    +0.210 HD
ENDBRANCH   1   2
BRANCH   1   4
ATOM      4  CA  UNL     1      36.619 -23.544 -12.133  0.00  0.00    +0.066 C 
BRANCH   4   5
ATOM      5  N   UNL     1      37.994 -23.556 -11.633  0.00  0.00    +0.390 N 
ATOM      6  H1  UNL     1      38.618 -23.903 -12.361  0.00  0.00    -0.088 HD
ATOM      7  H2  UNL     1      38.053 -24.164 -10.816  0.00  0.00    -0.088 HD
ATOM      8  H3  UNL     1      38.270 -22.609 -11.372  0.00  0.00    -0.088 HD
ENDBRANCH   4   5
BRANCH   4  10
ATOM      9  OXT UNL     1      36.689 -25.946 -11.683  0.00  0.00    -0.253 OA
ATOM     10  C   UNL     1      36.039 -24.935 -11.916  0.00  0.00    +0.295 C 
BRANCH  10  11
ATOM     11  O   UNL     1      34.684 -24.941 -12.008  0.00  0.00    -0.482 OA
ATOM     12  H   UNL     1      34.271 -24.916 -12.848  0.00  0.00    +0.295 HD
ENDBRANCH  10  11
ENDBRANCH   4  10
ENDBRANCH   1   4
BRANCH   1  13
ATOM     13  C   UNL     1      37.196 -24.118 -14.580  0.00  0.00    +0.181 C 
BRANCH  13  14
ATOM     14  O   UNL     1      38.617 -24.086 -14.482  0.00  0.00    -0.271 OA
BRANCH  14  15
ATOM     15  P   UNL     1      39.419 -25.487 -14.536  0.00  0.00    +0.473 P 
ATOM     16  O   UNL     1      40.847 -25.387 -14.988  0.00  0.00    -0.227 OA
BRANCH  15  17
ATOM     17  O   UNL     1      38.473 -26.440 -15.437  0.00  0.00    -0.303 OA
ATOM     18  H   UNL     1      38.164 -27.188 -14.903  0.00  0.00    +0.222 HD
ENDBRANCH  15  17
BRANCH  15  19
ATOM     19  O   UNL     1      39.216 -26.069 -13.041  0.00  0.00    -0.303 OA
ATOM     20  H   UNL     1      39.594 -26.962 -12.986  0.00  0.00    +0.222 HD
ENDBRANCH  15  19
ENDBRANCH  14  15
ENDBRANCH  13  14
ENDBRANCH   1  13
TORSDOF 10
ENDMDL
