MODEL 1
REMARK VINA RESULT:     -10.6      0.000      0.000
REMARK  Name = 1700
REMARK  5 active torsions:
REMARK  status: ('A' for Active; 'I' for Inactive)
REMARK    1  A    between atoms: N_2  and  C_17
REMARK    2  A    between atoms: C_3  and  C_5
REMARK    3  A    between atoms: C_6  and  S_11
REMARK    4  A    between atoms: S_11  and  N_14
REMARK    5  A    between atoms: C_17  and  C_20
REMARK                            x       y       z     vdW  Elec       q    Type
REMARK                         _______ _______ _______ _____ _____    ______ ____
ROOT
ATOM      1  O   UNL     1      32.389 -23.413 -16.609  0.00  0.00    -0.270 OA
ATOM      2  N   UNL     1      34.337 -22.743 -17.675  0.00  0.00    -0.297 N 
ATOM      3  C   UNL     1      33.616 -23.213 -16.571  0.00  0.00    +0.246 C 
ATOM      4  H   UNL     1      35.306 -22.607 -17.575  0.00  0.00    +0.150 HD
ENDROOT
BRANCH   3   5
ATOM      5  C   UNL     1      34.362 -23.442 -15.344  0.00  0.00    +0.053 C 
ATOM      6  C   UNL     1      35.795 -23.884 -12.991  0.00  0.00    +0.122 C 
ATOM      7  C   UNL     1      35.705 -23.073 -15.265  0.00  0.00    +0.006 C 
ATOM      8  C   UNL     1      33.736 -24.032 -14.246  0.00  0.00    +0.006 C 
ATOM      9  C   UNL     1      36.422 -23.294 -14.090  0.00  0.00    +0.020 C 
ATOM     10  C   UNL     1      34.452 -24.253 -13.069  0.00  0.00    +0.020 C 
BRANCH   6  11
ATOM     11  S   UNL     1      36.692 -24.159 -11.519  0.00  0.00    +0.057 S 
ATOM     12  O   UNL     1      37.655 -25.226 -11.759  0.00  0.00    -0.153 OA
ATOM     13  O   UNL     1      37.149 -22.874 -11.009  0.00  0.00    -0.153 OA
BRANCH  11  14
ATOM     14  N   UNL     1      35.460 -24.749 -10.492  0.00  0.00    -0.203 NA
ATOM     15  H   UNL     1      34.621 -24.179 -10.606  0.00  0.00    +0.144 HD
ATOM     16  H   UNL     1      35.774 -24.702  -9.522  0.00  0.00    +0.144 HD
ENDBRANCH  11  14
ENDBRANCH   6  11
ENDBRANCH   3   5
BRANCH   2  17
ATOM     17  C   UNL     1      33.733 -22.447 -18.954  0.00  0.00    +0.119 C 
BRANCH  17  20
ATOM     18  F   UNL     1      32.502 -20.351 -20.395  0.00  0.00    -0.202 F 
ATOM     19  F   UNL     1      33.928 -18.383 -21.632  0.00  0.00    -0.202 F 
ATOM     20  C   UNL     1      34.510 -21.363 -19.637  0.00  0.00    +0.027 C 
ATOM     21  C   UNL     1      33.840 -20.360 -20.330  0.00  0.00    +0.165 C 
ATOM     22  C   UNL     1      35.900 -21.368 -19.571  0.00  0.00    -0.000 C 
ATOM     23  C   UNL     1      34.567 -19.352 -20.964  0.00  0.00    +0.167 C 
ATOM     24  C   UNL     1      36.628 -20.361 -20.205  0.00  0.00    +0.002 C 
ATOM     25  C   UNL     1      35.961 -19.352 -20.901  0.00  0.00    +0.032 C 
ENDBRANCH  17  20
ENDBRANCH   2  17
TORSDOF 5
ENDMDL
MODEL 2
REMARK VINA RESULT:     -10.5      4.815      7.252
REMARK  Name = 1700
REMARK  5 active torsions:
REMARK  status: ('A' for Active; 'I' for Inactive)
REMARK    1  A    between atoms: N_2  and  C_17
REMARK    2  A    between atoms: C_3  and  C_5
REMARK    3  A    between atoms: C_6  and  S_11
REMARK    4  A    between atoms: S_11  and  N_14
REMARK    5  A    between atoms: C_17  and  C_20
REMARK                            x       y       z     vdW  Elec       q    Type
REMARK                         _______ _______ _______ _____ _____    ______ ____
ROOT
ATOM      1  O   UNL     1      36.848 -18.333 -22.128  0.00  0.00    -0.270 OA
ATOM      2  N   UNL     1      34.733 -17.382 -22.115  0.00  0.00    -0.297 N 
ATOM      3  C   UNL     1      35.659 -18.371 -21.764  0.00  0.00    +0.246 C 
ATOM      4  H   UNL     1      33.808 -17.475 -21.793  0.00  0.00    +0.150 HD
ENDROOT
BRANCH   3   5
ATOM      5  C   UNL     1      35.168 -19.481 -20.963  0.00  0.00    +0.053 C 
ATOM      6  C   UNL     1      34.225 -21.611 -19.427  0.00  0.00    +0.122 C 
ATOM      7  C   UNL     1      36.069 -20.349 -20.347  0.00  0.00    +0.006 C 
ATOM      8  C   UNL     1      33.795 -19.677 -20.809  0.00  0.00    +0.006 C 
ATOM      9  C   UNL     1      35.598 -21.414 -19.580  0.00  0.00    +0.020 C 
ATOM     10  C   UNL     1      33.323 -20.742 -20.041  0.00  0.00    +0.020 C 
BRANCH   6  11
ATOM     11  S   UNL     1      33.636 -22.943 -18.464  0.00  0.00    +0.057 S 
ATOM     12  O   UNL     1      32.315 -22.596 -17.957  0.00  0.00    -0.153 OA
ATOM     13  O   UNL     1      33.820 -24.175 -19.218  0.00  0.00    -0.153 OA
BRANCH  11  14
ATOM     14  N   UNL     1      34.748 -22.924 -17.167  0.00  0.00    -0.203 NA
ATOM     15  H   UNL     1      35.660 -22.614 -17.505  0.00  0.00    +0.144 HD
ATOM     16  H   UNL     1      34.830 -23.863 -16.775  0.00  0.00    +0.144 HD
ENDBRANCH  11  14
ENDBRANCH   6  11
ENDBRANCH   3   5
BRANCH   2  17
ATOM     17  C   UNL     1      35.062 -16.232 -22.926  0.00  0.00    +0.119 C 
BRANCH  17  20
ATOM     18  F   UNL     1      34.194 -15.474 -20.346  0.00  0.00    -0.202 F 
ATOM     19  F   UNL     1      32.362 -13.497 -19.935  0.00  0.00    -0.202 F 
ATOM     20  C   UNL     1      34.056 -15.148 -22.693  0.00  0.00    +0.027 C 
ATOM     21  C   UNL     1      33.672 -14.824 -21.395  0.00  0.00    +0.165 C 
ATOM     22  C   UNL     1      33.511 -14.470 -23.779  0.00  0.00    -0.000 C 
ATOM     23  C   UNL     1      32.735 -13.814 -21.181  0.00  0.00    +0.167 C 
ATOM     24  C   UNL     1      32.574 -13.459 -23.566  0.00  0.00    +0.002 C 
ATOM     25  C   UNL     1      32.185 -13.130 -22.267  0.00  0.00    +0.032 C 
ENDBRANCH  17  20
ENDBRANCH   2  17
TORSDOF 5
ENDMDL
MODEL 3
REMARK VINA RESULT:     -10.5      5.045      7.557
REMARK  Name = 1700
REMARK  5 active torsions:
REMARK  status: ('A' for Active; 'I' for Inactive)
REMARK    1  A    between atoms: N_2  and  C_17
REMARK    2  A    between atoms: C_3  and  C_5
REMARK    3  A    between atoms: C_6  and  S_11
REMARK    4  A    between atoms: S_11  and  N_14
REMARK    5  A    between atoms: C_17  and  C_20
REMARK                            x       y       z     vdW  Elec       q    Type
REMARK                         _______ _______ _______ _____ _____    ______ ____
ROOT
ATOM      1  O   UNL     1      36.078 -18.350 -22.991  0.00  0.00    -0.270 OA
ATOM      2  N   UNL     1      34.545 -17.025 -21.862  0.00  0.00    -0.297 N 
ATOM      3  C   UNL     1      35.235 -18.223 -22.085  0.00  0.00    +0.246 C 
ATOM      4  H   UNL     1      33.891 -16.994 -21.127  0.00  0.00    +0.150 HD
ENDROOT
BRANCH   3   5
ATOM      5  C   UNL     1      34.911 -19.343 -21.217  0.00  0.00    +0.053 C 
ATOM      6  C   UNL     1      34.290 -21.491 -19.548  0.00  0.00    +0.122 C 
ATOM      7  C   UNL     1      33.579 -19.677 -20.976  0.00  0.00    +0.006 C 
ATOM      8  C   UNL     1      35.934 -20.084 -20.623  0.00  0.00    +0.006 C 
ATOM      9  C   UNL     1      33.268 -20.750 -20.141  0.00  0.00    +0.020 C 
ATOM     10  C   UNL     1      35.624 -21.159 -19.789  0.00  0.00    +0.020 C 
BRANCH   6  11
ATOM     11  S   UNL     1      33.901 -22.836 -18.505  0.00  0.00    +0.057 S 
ATOM     12  O   UNL     1      33.867 -24.049 -19.312  0.00  0.00    -0.153 OA
ATOM     13  O   UNL     1      34.758 -22.773 -17.330  0.00  0.00    -0.153 OA
BRANCH  11  14
ATOM     14  N   UNL     1      32.306 -22.438 -18.042  0.00  0.00    -0.203 NA
ATOM     15  H   UNL     1      32.332 -21.818 -17.231  0.00  0.00    +0.144 HD
ATOM     16  H   UNL     1      31.798 -23.290 -17.803  0.00  0.00    +0.144 HD
ENDBRANCH  11  14
ENDBRANCH   6  11
ENDBRANCH   3   5
BRANCH   2  17
ATOM     17  C   UNL     1      34.738 -15.833 -22.655  0.00  0.00    +0.119 C 
BRANCH  17  20
ATOM     18  F   UNL     1      34.163 -13.522 -24.177  0.00  0.00    -0.202 F 
ATOM     19  F   UNL     1      32.465 -11.575 -23.306  0.00  0.00    -0.202 F 
ATOM     20  C   UNL     1      33.808 -14.759 -22.183  0.00  0.00    +0.027 C 
ATOM     21  C   UNL     1      33.568 -13.647 -22.983  0.00  0.00    +0.165 C 
ATOM     22  C   UNL     1      33.187 -14.883 -20.943  0.00  0.00    -0.000 C 
ATOM     23  C   UNL     1      32.700 -12.648 -22.540  0.00  0.00    +0.167 C 
ATOM     24  C   UNL     1      32.319 -13.885 -20.499  0.00  0.00    +0.002 C 
ATOM     25  C   UNL     1      32.075 -12.768 -21.297  0.00  0.00    +0.032 C 
ENDBRANCH  17  20
ENDBRANCH   2  17
TORSDOF 5
ENDMDL
MODEL 4
REMARK VINA RESULT:     -10.2      1.579      2.178
REMARK  Name = 1700
REMARK  5 active torsions:
REMARK  status: ('A' for Active; 'I' for Inactive)
REMARK    1  A    between atoms: N_2  and  C_17
REMARK    2  A    between atoms: C_3  and  C_5
REMARK    3  A    between atoms: C_6  and  S_11
REMARK    4  A    between atoms: S_11  and  N_14
REMARK    5  A    between atoms: C_17  and  C_20
REMARK                            x       y       z     vdW  Elec       q    Type
REMARK                         _______ _______ _______ _____ _____    ______ ____
ROOT
ATOM      1  O   UNL     1      32.654 -23.369 -16.624  0.00  0.00    -0.270 OA
ATOM      2  N   UNL     1      34.437 -22.699 -17.945  0.00  0.00    -0.297 N 
ATOM      3  C   UNL     1      33.872 -23.150 -16.747  0.00  0.00    +0.246 C 
ATOM      4  H   UNL     1      35.409 -22.546 -17.973  0.00  0.00    +0.150 HD
ENDROOT
BRANCH   3   5
ATOM      5  C   UNL     1      34.772 -23.335 -15.620  0.00  0.00    +0.053 C 
ATOM      6  C   UNL     1      36.500 -23.687 -13.458  0.00  0.00    +0.122 C 
ATOM      7  C   UNL     1      34.279 -23.803 -14.402  0.00  0.00    +0.006 C 
ATOM      8  C   UNL     1      36.130 -23.044 -15.757  0.00  0.00    +0.006 C 
ATOM      9  C   UNL     1      35.143 -23.978 -13.322  0.00  0.00    +0.020 C 
ATOM     10  C   UNL     1      36.995 -23.220 -14.676  0.00  0.00    +0.020 C 
BRANCH   6  11
ATOM     11  S   UNL     1      37.581 -23.910 -12.105  0.00  0.00    +0.057 S 
ATOM     12  O   UNL     1      37.046 -24.966 -11.258  0.00  0.00    -0.153 OA
ATOM     13  O   UNL     1      38.942 -24.010 -12.613  0.00  0.00    -0.153 OA
BRANCH  11  14
ATOM     14  N   UNL     1      37.406 -22.414 -11.299  0.00  0.00    -0.203 NA
ATOM     15  H   UNL     1      38.254 -22.212 -10.768  0.00  0.00    +0.144 HD
ATOM     16  H   UNL     1      36.609 -22.462 -10.663  0.00  0.00    +0.144 HD
ENDBRANCH  11  14
ENDBRANCH   6  11
ENDBRANCH   3   5
BRANCH   2  17
ATOM     17  C   UNL     1      33.671 -22.446 -19.144  0.00  0.00    +0.119 C 
BRANCH  17  20
ATOM     18  F   UNL     1      36.428 -21.867 -19.372  0.00  0.00    -0.202 F 
ATOM     19  F   UNL     1      37.360 -19.624 -20.609  0.00  0.00    -0.202 F 
ATOM     20  C   UNL     1      34.190 -21.215 -19.821  0.00  0.00    +0.027 C 
ATOM     21  C   UNL     1      35.561 -20.991 -19.899  0.00  0.00    +0.165 C 
ATOM     22  C   UNL     1      33.294 -20.301 -20.370  0.00  0.00    -0.000 C 
ATOM     23  C   UNL     1      36.041 -19.844 -20.531  0.00  0.00    +0.167 C 
ATOM     24  C   UNL     1      33.774 -19.155 -21.002  0.00  0.00    +0.002 C 
ATOM     25  C   UNL     1      35.147 -18.925 -21.083  0.00  0.00    +0.032 C 
ENDBRANCH  17  20
ENDBRANCH   2  17
TORSDOF 5
ENDMDL
MODEL 5
REMARK VINA RESULT:     -10.1      5.113      8.404
REMARK  Name = 1700
REMARK  5 active torsions:
REMARK  status: ('A' for Active; 'I' for Inactive)
REMARK    1  A    between atoms: N_2  and  C_17
REMARK    2  A    between atoms: C_3  and  C_5
REMARK    3  A    between atoms: C_6  and  S_11
REMARK    4  A    between atoms: S_11  and  N_14
REMARK    5  A    between atoms: C_17  and  C_20
REMARK                            x       y       z     vdW  Elec       q    Type
REMARK                         _______ _______ _______ _____ _____    ______ ____
ROOT
ATOM      1  O   UNL     1      33.863 -23.897 -19.209  0.00  0.00    -0.270 OA
ATOM      2  N   UNL     1      34.034 -22.601 -17.293  0.00  0.00    -0.297 N 
ATOM      3  C   UNL     1      34.059 -22.788 -18.681  0.00  0.00    +0.246 C 
ATOM      4  H   UNL     1      34.198 -21.697 -16.942  0.00  0.00    +0.150 HD
ENDROOT
BRANCH   3   5
ATOM      5  C   UNL     1      34.349 -21.621 -19.499  0.00  0.00    +0.053 C 
ATOM      6  C   UNL     1      34.906 -19.385 -21.071  0.00  0.00    +0.122 C 
ATOM      7  C   UNL     1      33.305 -20.856 -20.019  0.00  0.00    +0.006 C 
ATOM      8  C   UNL     1      35.672 -21.267 -19.765  0.00  0.00    +0.006 C 
ATOM      9  C   UNL     1      33.583 -19.739 -20.805  0.00  0.00    +0.020 C 
ATOM     10  C   UNL     1      35.951 -20.149 -20.551  0.00  0.00    +0.020 C 
BRANCH   6  11
ATOM     11  S   UNL     1      35.254 -17.984 -22.053  0.00  0.00    +0.057 S 
ATOM     12  O   UNL     1      34.486 -18.085 -23.287  0.00  0.00    -0.153 OA
ATOM     13  O   UNL     1      35.134 -16.795 -21.222  0.00  0.00    -0.153 OA
BRANCH  11  14
ATOM     14  N   UNL     1      36.906 -18.239 -22.410  0.00  0.00    -0.203 NA
ATOM     15  H   UNL     1      37.269 -18.990 -21.823  0.00  0.00    +0.144 HD
ATOM     16  H   UNL     1      37.429 -17.381 -22.229  0.00  0.00    +0.144 HD
ENDBRANCH  11  14
ENDBRANCH   6  11
ENDBRANCH   3   5
BRANCH   2  17
ATOM     17  C   UNL     1      33.784 -23.666 -16.349  0.00  0.00    +0.119 C 
BRANCH  17  20
ATOM     18  F   UNL     1      33.020 -24.615 -13.799  0.00  0.00    -0.202 F 
ATOM     19  F   UNL     1      30.470 -24.405 -12.858  0.00  0.00    -0.202 F 
ATOM     20  C   UNL     1      32.385 -23.555 -15.826  0.00  0.00    +0.027 C 
ATOM     21  C   UNL     1      32.077 -24.043 -14.560  0.00  0.00    +0.165 C 
ATOM     22  C   UNL     1      31.402 -22.962 -16.613  0.00  0.00    -0.000 C 
ATOM     23  C   UNL     1      30.773 -23.938 -14.076  0.00  0.00    +0.167 C 
ATOM     24  C   UNL     1      30.098 -22.856 -16.129  0.00  0.00    +0.002 C 
ATOM     25  C   UNL     1      29.783 -23.344 -14.861  0.00  0.00    +0.032 C 
ENDBRANCH  17  20
ENDBRANCH   2  17
TORSDOF 5
ENDMDL
MODEL 6
REMARK VINA RESULT:      -9.9      4.999      7.241
REMARK  Name = 1700
REMARK  5 active torsions:
REMARK  status: ('A' for Active; 'I' for Inactive)
REMARK    1  A    between atoms: N_2  and  C_17
REMARK    2  A    between atoms: C_3  and  C_5
REMARK    3  A    between atoms: C_6  and  S_11
REMARK    4  A    between atoms: S_11  and  N_14
REMARK    5  A    between atoms: C_17  and  C_20
REMARK                            x       y       z     vdW  Elec       q    Type
REMARK                         _______ _______ _______ _____ _____    ______ ____
ROOT
ATOM      1  O   UNL     1      36.710 -18.380 -22.197  0.00  0.00    -0.270 OA
ATOM      2  N   UNL     1      34.851 -17.149 -21.558  0.00  0.00    -0.297 N 
ATOM      3  C   UNL     1      35.640 -18.306 -21.568  0.00  0.00    +0.246 C 
ATOM      4  H   UNL     1      34.016 -17.159 -21.038  0.00  0.00    +0.150 HD
ENDROOT
BRANCH   3   5
ATOM      5  C   UNL     1      35.143 -19.450 -20.820  0.00  0.00    +0.053 C 
ATOM      6  C   UNL     1      34.191 -21.643 -19.381  0.00  0.00    +0.122 C 
ATOM      7  C   UNL     1      33.770 -19.675 -20.719  0.00  0.00    +0.006 C 
ATOM      8  C   UNL     1      36.040 -20.322 -20.201  0.00  0.00    +0.006 C 
ATOM      9  C   UNL     1      33.294 -20.770 -20.000  0.00  0.00    +0.020 C 
ATOM     10  C   UNL     1      35.564 -21.418 -19.482  0.00  0.00    +0.020 C 
BRANCH   6  11
ATOM     11  S   UNL     1      33.594 -23.016 -18.483  0.00  0.00    +0.057 S 
ATOM     12  O   UNL     1      32.257 -22.702 -17.997  0.00  0.00    -0.153 OA
ATOM     13  O   UNL     1      33.811 -24.217 -19.277  0.00  0.00    -0.153 OA
BRANCH  11  14
ATOM     14  N   UNL     1      34.673 -23.032 -17.159  0.00  0.00    -0.203 NA
ATOM     15  H   UNL     1      35.374 -22.301 -17.282  0.00  0.00    +0.144 HD
ATOM     16  H   UNL     1      35.133 -23.941 -17.107  0.00  0.00    +0.144 HD
ENDBRANCH  11  14
ENDBRANCH   6  11
ENDBRANCH   3   5
BRANCH   2  17
ATOM     17  C   UNL     1      35.198 -15.941 -22.271  0.00  0.00    +0.119 C 
BRANCH  17  20
ATOM     18  F   UNL     1      33.848 -13.681 -23.299  0.00  0.00    -0.202 F 
ATOM     19  F   UNL     1      32.623 -13.684 -25.735  0.00  0.00    -0.202 F 
ATOM     20  C   UNL     1      34.522 -15.936 -23.608  0.00  0.00    +0.027 C 
ATOM     21  C   UNL     1      33.875 -14.788 -24.054  0.00  0.00    +0.165 C 
ATOM     22  C   UNL     1      34.548 -17.083 -24.396  0.00  0.00    -0.000 C 
ATOM     23  C   UNL     1      33.247 -14.786 -25.300  0.00  0.00    +0.167 C 
ATOM     24  C   UNL     1      33.921 -17.082 -25.642  0.00  0.00    +0.002 C 
ATOM     25  C   UNL     1      33.270 -15.934 -26.094  0.00  0.00    +0.032 C 
ENDBRANCH  17  20
ENDBRANCH   2  17
TORSDOF 5
ENDMDL
MODEL 7
REMARK VINA RESULT:      -9.8      7.750     10.757
REMARK  Name = 1700
REMARK  5 active torsions:
REMARK  status: ('A' for Active; 'I' for Inactive)
REMARK    1  A    between atoms: N_2  and  C_17
REMARK    2  A    between atoms: C_3  and  C_5
REMARK    3  A    between atoms: C_6  and  S_11
REMARK    4  A    between atoms: S_11  and  N_14
REMARK    5  A    between atoms: C_17  and  C_20
REMARK                            x       y       z     vdW  Elec       q    Type
REMARK                         _______ _______ _______ _____ _____    ______ ____
ROOT
ATOM      1  O   UNL     1      34.445 -16.684 -23.851  0.00  0.00    -0.270 OA
ATOM      2  N   UNL     1      34.870 -17.104 -21.610  0.00  0.00    -0.297 N 
ATOM      3  C   UNL     1      34.330 -16.350 -22.659  0.00  0.00    +0.246 C 
ATOM      4  H   UNL     1      34.741 -16.781 -20.690  0.00  0.00    +0.150 HD
ENDROOT
BRANCH   3   5
ATOM      5  C   UNL     1      33.634 -15.124 -22.300  0.00  0.00    +0.053 C 
ATOM      6  C   UNL     1      32.302 -12.772 -21.610  0.00  0.00    +0.122 C 
ATOM      7  C   UNL     1      33.415 -14.139 -23.262  0.00  0.00    +0.006 C 
ATOM      8  C   UNL     1      33.186 -14.933 -20.992  0.00  0.00    +0.006 C 
ATOM      9  C   UNL     1      32.750 -12.963 -22.918  0.00  0.00    +0.020 C 
ATOM     10  C   UNL     1      32.520 -13.757 -20.647  0.00  0.00    +0.020 C 
BRANCH   6  11
ATOM     11  S   UNL     1      31.467 -11.300 -21.180  0.00  0.00    +0.057 S 
ATOM     12  O   UNL     1      32.139 -10.183 -21.830  0.00  0.00    -0.153 OA
ATOM     13  O   UNL     1      30.039 -11.503 -21.384  0.00  0.00    -0.153 OA
BRANCH  11  14
ATOM     14  N   UNL     1      31.776 -11.229 -19.501  0.00  0.00    -0.203 NA
ATOM     15  H   UNL     1      32.507 -10.541 -19.319  0.00  0.00    +0.144 HD
ATOM     16  H   UNL     1      32.081 -12.146 -19.173  0.00  0.00    +0.144 HD
ENDBRANCH  11  14
ENDBRANCH   6  11
ENDBRANCH   3   5
BRANCH   2  17
ATOM     17  C   UNL     1      35.608 -18.331 -21.808  0.00  0.00    +0.119 C 
BRANCH  17  20
ATOM     18  F   UNL     1      37.106 -20.224 -20.339  0.00  0.00    -0.202 F 
ATOM     19  F   UNL     1      35.938 -22.223 -18.899  0.00  0.00    -0.202 F 
ATOM     20  C   UNL     1      34.973 -19.432 -21.015  0.00  0.00    +0.027 C 
ATOM     21  C   UNL     1      35.770 -20.331 -20.314  0.00  0.00    +0.165 C 
ATOM     22  C   UNL     1      33.586 -19.547 -20.985  0.00  0.00    -0.000 C 
ATOM     23  C   UNL     1      35.176 -21.355 -19.576  0.00  0.00    +0.167 C 
ATOM     24  C   UNL     1      32.991 -20.570 -20.248  0.00  0.00    +0.002 C 
ATOM     25  C   UNL     1      33.786 -21.474 -19.543  0.00  0.00    +0.032 C 
ENDBRANCH  17  20
ENDBRANCH   2  17
TORSDOF 5
ENDMDL
MODEL 8
REMARK VINA RESULT:      -9.7      4.525      5.892
REMARK  Name = 1700
REMARK  5 active torsions:
REMARK  status: ('A' for Active; 'I' for Inactive)
REMARK    1  A    between atoms: N_2  and  C_17
REMARK    2  A    between atoms: C_3  and  C_5
REMARK    3  A    between atoms: C_6  and  S_11
REMARK    4  A    between atoms: S_11  and  N_14
REMARK    5  A    between atoms: C_17  and  C_20
REMARK                            x       y       z     vdW  Elec       q    Type
REMARK                         _______ _______ _______ _____ _____    ______ ____
ROOT
ATOM      1  O   UNL     1      34.570 -23.944 -11.745  0.00  0.00    -0.270 OA
ATOM      2  N   UNL     1      33.804 -24.934 -13.698  0.00  0.00    -0.297 N 
ATOM      3  C   UNL     1      34.814 -24.520 -12.820  0.00  0.00    +0.246 C 
ATOM      4  H   UNL     1      34.068 -25.384 -14.532  0.00  0.00    +0.150 HD
ENDROOT
BRANCH   3   5
ATOM      5  C   UNL     1      36.187 -24.771 -13.228  0.00  0.00    +0.053 C 
ATOM      6  C   UNL     1      38.822 -25.250 -14.010  0.00  0.00    +0.122 C 
ATOM      7  C   UNL     1      37.069 -25.405 -12.354  0.00  0.00    +0.006 C 
ATOM      8  C   UNL     1      36.622 -24.377 -14.494  0.00  0.00    +0.006 C 
ATOM      9  C   UNL     1      38.387 -25.644 -12.744  0.00  0.00    +0.020 C 
ATOM     10  C   UNL     1      37.939 -24.616 -14.885  0.00  0.00    +0.020 C 
BRANCH   6  11
ATOM     11  S   UNL     1      40.471 -25.551 -14.499  0.00  0.00    +0.057 S 
ATOM     12  O   UNL     1      41.214 -24.302 -14.405  0.00  0.00    -0.153 OA
ATOM     13  O   UNL     1      40.951 -26.733 -13.798  0.00  0.00    -0.153 OA
BRANCH  11  14
ATOM     14  N   UNL     1      40.255 -25.942 -16.148  0.00  0.00    -0.203 NA
ATOM     15  H   UNL     1      41.166 -26.034 -16.598  0.00  0.00    +0.144 HD
ATOM     16  H   UNL     1      39.721 -25.202 -16.606  0.00  0.00    +0.144 HD
ENDBRANCH  11  14
ENDBRANCH   6  11
ENDBRANCH   3   5
BRANCH   2  17
ATOM     17  C   UNL     1      32.396 -24.734 -13.445  0.00  0.00    +0.119 C 
BRANCH  17  20
ATOM     18  F   UNL     1      29.598 -24.628 -13.833  0.00  0.00    -0.202 F 
ATOM     19  F   UNL     1      28.460 -23.405 -15.987  0.00  0.00    -0.202 F 
ATOM     20  C   UNL     1      31.763 -24.064 -14.626  0.00  0.00    +0.027 C 
ATOM     21  C   UNL     1      30.378 -24.048 -14.756  0.00  0.00    +0.165 C 
ATOM     22  C   UNL     1      32.569 -23.461 -15.588  0.00  0.00    -0.000 C 
ATOM     23  C   UNL     1      29.793 -23.424 -15.857  0.00  0.00    +0.167 C 
ATOM     24  C   UNL     1      31.984 -22.837 -16.689  0.00  0.00    +0.002 C 
ATOM     25  C   UNL     1      30.596 -22.817 -16.824  0.00  0.00    +0.032 C 
ENDBRANCH  17  20
ENDBRANCH   2  17
TORSDOF 5
ENDMDL
MODEL 9
REMARK VINA RESULT:      -9.6      4.946      8.278
REMARK  Name = 1700
REMARK  5 active torsions:
REMARK  status: ('A' for Active; 'I' for Inactive)
REMARK    1  A    between atoms: N_2  and  C_17
REMARK    2  A    between atoms: C_3  and  C_5
REMARK    3  A    between atoms: C_6  and  S_11
REMARK    4  A    between atoms: S_11  and  N_14
REMARK    5  A    between atoms: C_17  and  C_20
REMARK                            x       y       z     vdW  Elec       q    Type
REMARK                         _______ _______ _______ _____ _____    ______ ____
ROOT
ATOM      1  O   UNL     1      33.849 -23.894 -19.257  0.00  0.00    -0.270 OA
ATOM      2  N   UNL     1      33.686 -22.559 -17.368  0.00  0.00    -0.297 N 
ATOM      3  C   UNL     1      33.900 -22.766 -18.736  0.00  0.00    +0.246 C 
ATOM      4  H   UNL     1      33.742 -21.640 -17.021  0.00  0.00    +0.150 HD
ENDROOT
BRANCH   3   5
ATOM      5  C   UNL     1      34.213 -21.595 -19.539  0.00  0.00    +0.053 C 
ATOM      6  C   UNL     1      34.813 -19.347 -21.079  0.00  0.00    +0.122 C 
ATOM      7  C   UNL     1      35.542 -21.266 -19.805  0.00  0.00    +0.006 C 
ATOM      8  C   UNL     1      33.184 -20.800 -20.044  0.00  0.00    +0.006 C 
ATOM      9  C   UNL     1      35.842 -20.143 -20.574  0.00  0.00    +0.020 C 
ATOM     10  C   UNL     1      33.483 -19.676 -20.814  0.00  0.00    +0.020 C 
BRANCH   6  11
ATOM     11  S   UNL     1      35.189 -17.941 -22.044  0.00  0.00    +0.057 S 
ATOM     12  O   UNL     1      34.396 -17.996 -23.265  0.00  0.00    -0.153 OA
ATOM     13  O   UNL     1      35.123 -16.764 -21.190  0.00  0.00    -0.153 OA
BRANCH  11  14
ATOM     14  N   UNL     1      36.825 -18.243 -22.435  0.00  0.00    -0.203 NA
ATOM     15  H   UNL     1      37.403 -18.108 -21.605  0.00  0.00    +0.144 HD
ATOM     16  H   UNL     1      37.124 -17.599 -23.168  0.00  0.00    +0.144 HD
ENDBRANCH  11  14
ENDBRANCH   6  11
ENDBRANCH   3   5
BRANCH   2  17
ATOM     17  C   UNL     1      33.390 -23.624 -16.437  0.00  0.00    +0.119 C 
BRANCH  17  20
ATOM     18  F   UNL     1      32.953 -24.828 -13.918  0.00  0.00    -0.202 F 
ATOM     19  F   UNL     1      34.851 -24.869 -11.960  0.00  0.00    -0.202 F 
ATOM     20  C   UNL     1      34.428 -23.649 -15.356  0.00  0.00    +0.027 C 
ATOM     21  C   UNL     1      34.147 -24.260 -14.138  0.00  0.00    +0.165 C 
ATOM     22  C   UNL     1      35.669 -23.061 -15.581  0.00  0.00    -0.000 C 
ATOM     23  C   UNL     1      35.115 -24.282 -13.135  0.00  0.00    +0.167 C 
ATOM     24  C   UNL     1      36.638 -23.082 -14.578  0.00  0.00    +0.002 C 
ATOM     25  C   UNL     1      36.361 -23.693 -13.355  0.00  0.00    +0.032 C 
ENDBRANCH  17  20
ENDBRANCH   2  17
TORSDOF 5
ENDMDL
