MODEL 1
REMARK VINA RESULT:      -5.8      0.000      0.000
REMARK  Name = 5256512
REMARK  8 active torsions:
REMARK  status: ('A' for Active; 'I' for Inactive)
REMARK    1  A    between atoms: N_1  and  C_3
REMARK    2  A    between atoms: N_1  and  C_7
REMARK    3  A    between atoms: N_1  and  C_11
REMARK    4  A    between atoms: C_3  and  C_4
REMARK    5  A    between atoms: C_4  and  O_5
REMARK    6  A    between atoms: C_7  and  C_8
REMARK    7  A    between atoms: C_8  and  O_9
REMARK    8  A    between atoms: C_11  and  C_14
REMARK                            x       y       z     vdW  Elec       q    Type
REMARK                         _______ _______ _______ _____ _____    ______ ____
ROOT
ATOM      1  N   UNL     1      38.063 -25.431 -13.534  0.00  0.00    +0.398 N 
ATOM      2  H   UNL     1      38.664 -25.703 -12.756  0.00  0.00    -0.079 HD
ENDROOT
BRANCH   1   3
ATOM      3  C   UNL     1      37.328 -26.668 -13.969  0.00  0.00    -0.044 C 
BRANCH   3   4
ATOM      4  C   UNL     1      36.512 -26.355 -15.207  0.00  0.00    +0.115 C 
BRANCH   4   5
ATOM      5  O   UNL     1      36.857 -27.263 -16.246  0.00  0.00    -0.384 OA
ATOM      6  H   UNL     1      37.131 -26.765 -17.032  0.00  0.00    +0.210 HD
ENDBRANCH   4   5
ENDBRANCH   3   4
ENDBRANCH   1   3
BRANCH   1   7
ATOM      7  C   UNL     1      38.962 -24.903 -14.615  0.00  0.00    -0.044 C 
BRANCH   7   8
ATOM      8  C   UNL     1      40.206 -25.764 -14.695  0.00  0.00    +0.115 C 
BRANCH   8   9
ATOM      9  O   UNL     1      40.532 -26.006 -16.057  0.00  0.00    -0.384 OA
ATOM     10  H   UNL     1      39.742 -26.312 -16.529  0.00  0.00    +0.210 HD
ENDBRANCH   8   9
ENDBRANCH   7   8
ENDBRANCH   1   7
BRANCH   1  11
ATOM     11  C   UNL     1      37.129 -24.376 -13.014  0.00  0.00    +0.040 C 
BRANCH  11  14
ATOM     12  O   UNL     1      36.788 -24.173 -10.679  0.00  0.00    -0.248 OA
ATOM     13  O   UNL     1      38.447 -22.966 -11.683  0.00  0.00    -0.248 OA
ATOM     14  C   UNL     1      37.485 -23.785 -11.656  0.00  0.00    +0.344 C 
ENDBRANCH  11  14
ENDBRANCH   1  11
TORSDOF 8
ENDMDL
MODEL 2
REMARK VINA RESULT:      -5.7      1.105      3.505
REMARK  Name = 5256512
REMARK  8 active torsions:
REMARK  status: ('A' for Active; 'I' for Inactive)
REMARK    1  A    between atoms: N_1  and  C_3
REMARK    2  A    between atoms: N_1  and  C_7
REMARK    3  A    between atoms: N_1  and  C_11
REMARK    4  A    between atoms: C_3  and  C_4
REMARK    5  A    between atoms: C_4  and  O_5
REMARK    6  A    between atoms: C_7  and  C_8
REMARK    7  A    between atoms: C_8  and  O_9
REMARK    8  A    between atoms: C_11  and  C_14
REMARK                            x       y       z     vdW  Elec       q    Type
REMARK                         _______ _______ _______ _____ _____    ______ ____
ROOT
ATOM      1  N   UNL     1      37.785 -24.710 -14.479  0.00  0.00    +0.398 N 
ATOM      2  H   UNL     1      38.191 -24.123 -15.208  0.00  0.00    -0.079 HD
ENDROOT
BRANCH   1   3
ATOM      3  C   UNL     1      36.603 -25.407 -15.091  0.00  0.00    -0.044 C 
BRANCH   3   4
ATOM      4  C   UNL     1      36.862 -26.900 -15.120  0.00  0.00    +0.115 C 
BRANCH   4   5
ATOM      5  O   UNL     1      36.780 -27.372 -16.459  0.00  0.00    -0.384 OA
ATOM      6  H   UNL     1      35.890 -27.205 -16.806  0.00  0.00    +0.210 HD
ENDBRANCH   4   5
ENDBRANCH   3   4
ENDBRANCH   1   3
BRANCH   1   7
ATOM      7  C   UNL     1      37.381 -23.796 -13.358  0.00  0.00    -0.044 C 
BRANCH   7   8
ATOM      8  C   UNL     1      38.065 -24.239 -12.081  0.00  0.00    +0.115 C 
BRANCH   8   9
ATOM      9  O   UNL     1      39.045 -23.281 -11.707  0.00  0.00    -0.384 OA
ATOM     10  H   UNL     1      38.608 -22.480 -11.382  0.00  0.00    +0.210 HD
ENDBRANCH   8   9
ENDBRANCH   7   8
ENDBRANCH   1   7
BRANCH   1  11
ATOM     11  C   UNL     1      38.852 -25.680 -14.057  0.00  0.00    +0.040 C 
BRANCH  11  14
ATOM     12  O   UNL     1      40.529 -26.148 -15.664  0.00  0.00    -0.248 OA
ATOM     13  O   UNL     1      40.919 -24.573 -14.056  0.00  0.00    -0.248 OA
ATOM     14  C   UNL     1      40.233 -25.449 -14.656  0.00  0.00    +0.344 C 
ENDBRANCH  11  14
ENDBRANCH   1  11
TORSDOF 8
ENDMDL
MODEL 3
REMARK VINA RESULT:      -5.7      0.556      2.612
REMARK  Name = 5256512
REMARK  8 active torsions:
REMARK  status: ('A' for Active; 'I' for Inactive)
REMARK    1  A    between atoms: N_1  and  C_3
REMARK    2  A    between atoms: N_1  and  C_7
REMARK    3  A    between atoms: N_1  and  C_11
REMARK    4  A    between atoms: C_3  and  C_4
REMARK    5  A    between atoms: C_4  and  O_5
REMARK    6  A    between atoms: C_7  and  C_8
REMARK    7  A    between atoms: C_8  and  O_9
REMARK    8  A    between atoms: C_11  and  C_14
REMARK                            x       y       z     vdW  Elec       q    Type
REMARK                         _______ _______ _______ _____ _____    ______ ____
ROOT
ATOM      1  N   UNL     1      37.856 -25.162 -13.864  0.00  0.00    +0.398 N 
ATOM      2  H   UNL     1      37.043 -24.547 -13.886  0.00  0.00    -0.079 HD
ENDROOT
BRANCH   1   3
ATOM      3  C   UNL     1      38.804 -24.668 -14.920  0.00  0.00    -0.044 C 
BRANCH   3   4
ATOM      4  C   UNL     1      40.120 -25.411 -14.798  0.00  0.00    +0.115 C 
BRANCH   4   5
ATOM      5  O   UNL     1      40.464 -25.977 -16.056  0.00  0.00    -0.384 OA
ATOM      6  H   UNL     1      40.593 -25.268 -16.705  0.00  0.00    +0.210 HD
ENDBRANCH   4   5
ENDBRANCH   3   4
ENDBRANCH   1   3
BRANCH   1   7
ATOM      7  C   UNL     1      37.362 -26.550 -14.156  0.00  0.00    -0.044 C 
BRANCH   7   8
ATOM      8  C   UNL     1      36.407 -26.503 -15.331  0.00  0.00    +0.115 C 
BRANCH   8   9
ATOM      9  O   UNL     1      36.873 -27.365 -16.360  0.00  0.00    -0.384 OA
ATOM     10  H   UNL     1      37.790 -27.141 -16.579  0.00  0.00    +0.210 HD
ENDBRANCH   8   9
ENDBRANCH   7   8
ENDBRANCH   1   7
BRANCH   1  11
ATOM     11  C   UNL     1      38.445 -25.054 -12.486  0.00  0.00    +0.040 C 
BRANCH  11  14
ATOM     12  O   UNL     1      36.873 -24.253 -10.904  0.00  0.00    -0.248 OA
ATOM     13  O   UNL     1      38.491 -22.847 -11.695  0.00  0.00    -0.248 OA
ATOM     14  C   UNL     1      37.877 -23.948 -11.606  0.00  0.00    +0.344 C 
ENDBRANCH  11  14
ENDBRANCH   1  11
TORSDOF 8
ENDMDL
MODEL 4
REMARK VINA RESULT:      -5.6      0.820      4.254
REMARK  Name = 5256512
REMARK  8 active torsions:
REMARK  status: ('A' for Active; 'I' for Inactive)
REMARK    1  A    between atoms: N_1  and  C_3
REMARK    2  A    between atoms: N_1  and  C_7
REMARK    3  A    between atoms: N_1  and  C_11
REMARK    4  A    between atoms: C_3  and  C_4
REMARK    5  A    between atoms: C_4  and  O_5
REMARK    6  A    between atoms: C_7  and  C_8
REMARK    7  A    between atoms: C_8  and  O_9
REMARK    8  A    between atoms: C_11  and  C_14
REMARK                            x       y       z     vdW  Elec       q    Type
REMARK                         _______ _______ _______ _____ _____    ______ ____
ROOT
ATOM      1  N   UNL     1      38.152 -25.663 -13.491  0.00  0.00    +0.398 N 
ATOM      2  H   UNL     1      38.738 -26.039 -12.745  0.00  0.00    -0.079 HD
ENDROOT
BRANCH   1   3
ATOM      3  C   UNL     1      37.323 -24.567 -12.883  0.00  0.00    -0.044 C 
BRANCH   3   4
ATOM      4  C   UNL     1      38.101 -23.920 -11.753  0.00  0.00    +0.115 C 
BRANCH   4   5
ATOM      5  O   UNL     1      38.159 -22.515 -11.960  0.00  0.00    -0.384 OA
ATOM      6  H   UNL     1      37.948 -22.315 -12.885  0.00  0.00    +0.210 HD
ENDBRANCH   4   5
ENDBRANCH   3   4
ENDBRANCH   1   3
BRANCH   1   7
ATOM      7  C   UNL     1      37.305 -26.797 -13.993  0.00  0.00    -0.044 C 
BRANCH   7   8
ATOM      8  C   UNL     1      36.579 -26.361 -15.250  0.00  0.00    +0.115 C 
BRANCH   8   9
ATOM      9  O   UNL     1      36.818 -27.301 -16.289  0.00  0.00    -0.384 OA
ATOM     10  H   UNL     1      37.169 -28.120 -15.910  0.00  0.00    +0.210 HD
ENDBRANCH   8   9
ENDBRANCH   7   8
ENDBRANCH   1   7
BRANCH   1  11
ATOM     11  C   UNL     1      39.080 -25.143 -14.552  0.00  0.00    +0.040 C 
BRANCH  11  14
ATOM     12  O   UNL     1      40.913 -26.421 -13.763  0.00  0.00    -0.248 OA
ATOM     13  O   UNL     1      40.661 -26.080 -16.008  0.00  0.00    -0.248 OA
ATOM     14  C   UNL     1      40.341 -25.963 -14.791  0.00  0.00    +0.344 C 
ENDBRANCH  11  14
ENDBRANCH   1  11
TORSDOF 8
ENDMDL
MODEL 5
REMARK VINA RESULT:      -5.4      1.725      2.968
REMARK  Name = 5256512
REMARK  8 active torsions:
REMARK  status: ('A' for Active; 'I' for Inactive)
REMARK    1  A    between atoms: N_1  and  C_3
REMARK    2  A    between atoms: N_1  and  C_7
REMARK    3  A    between atoms: N_1  and  C_11
REMARK    4  A    between atoms: C_3  and  C_4
REMARK    5  A    between atoms: C_4  and  O_5
REMARK    6  A    between atoms: C_7  and  C_8
REMARK    7  A    between atoms: C_8  and  O_9
REMARK    8  A    between atoms: C_11  and  C_14
REMARK                            x       y       z     vdW  Elec       q    Type
REMARK                         _______ _______ _______ _____ _____    ______ ____
ROOT
ATOM      1  N   UNL     1      36.529 -24.723 -13.822  0.00  0.00    +0.398 N 
ATOM      2  H   UNL     1      36.377 -25.357 -13.037  0.00  0.00    -0.079 HD
ENDROOT
BRANCH   1   3
ATOM      3  C   UNL     1      35.175 -24.397 -14.386  0.00  0.00    -0.044 C 
BRANCH   3   4
ATOM      4  C   UNL     1      34.219 -24.095 -13.249  0.00  0.00    +0.115 C 
BRANCH   4   5
ATOM      5  O   UNL     1      34.439 -25.014 -12.186  0.00  0.00    -0.384 OA
ATOM      6  H   UNL     1      33.621 -25.118 -11.675  0.00  0.00    +0.210 HD
ENDBRANCH   4   5
ENDBRANCH   3   4
ENDBRANCH   1   3
BRANCH   1   7
ATOM      7  C   UNL     1      37.389 -25.455 -14.812  0.00  0.00    -0.044 C 
BRANCH   7   8
ATOM      8  C   UNL     1      36.910 -26.888 -14.928  0.00  0.00    +0.115 C 
BRANCH   8   9
ATOM      9  O   UNL     1      36.781 -27.239 -16.299  0.00  0.00    -0.384 OA
ATOM     10  H   UNL     1      36.899 -26.449 -16.848  0.00  0.00    +0.210 HD
ENDBRANCH   8   9
ENDBRANCH   7   8
ENDBRANCH   1   7
BRANCH   1  11
ATOM     11  C   UNL     1      37.216 -23.506 -13.272  0.00  0.00    +0.040 C 
BRANCH  11  14
ATOM     12  O   UNL     1      38.874 -22.998 -11.658  0.00  0.00    -0.248 OA
ATOM     13  O   UNL     1      37.181 -24.435 -11.120  0.00  0.00    -0.248 OA
ATOM     14  C   UNL     1      37.821 -23.656 -11.883  0.00  0.00    +0.344 C 
ENDBRANCH  11  14
ENDBRANCH   1  11
TORSDOF 8
ENDMDL
MODEL 6
REMARK VINA RESULT:      -5.2      2.256      5.299
REMARK  Name = 5256512
REMARK  8 active torsions:
REMARK  status: ('A' for Active; 'I' for Inactive)
REMARK    1  A    between atoms: N_1  and  C_3
REMARK    2  A    between atoms: N_1  and  C_7
REMARK    3  A    between atoms: N_1  and  C_11
REMARK    4  A    between atoms: C_3  and  C_4
REMARK    5  A    between atoms: C_4  and  O_5
REMARK    6  A    between atoms: C_7  and  C_8
REMARK    7  A    between atoms: C_8  and  O_9
REMARK    8  A    between atoms: C_11  and  C_14
REMARK                            x       y       z     vdW  Elec       q    Type
REMARK                         _______ _______ _______ _____ _____    ______ ____
ROOT
ATOM      1  N   UNL     1      35.893 -25.076 -13.406  0.00  0.00    +0.398 N 
ATOM      2  H   UNL     1      35.261 -25.873 -13.480  0.00  0.00    -0.079 HD
ENDROOT
BRANCH   1   3
ATOM      3  C   UNL     1      36.594 -25.199 -12.082  0.00  0.00    -0.044 C 
BRANCH   3   4
ATOM      4  C   UNL     1      36.423 -23.910 -11.304  0.00  0.00    +0.115 C 
BRANCH   4   5
ATOM      5  O   UNL     1      36.113 -24.210  -9.949  0.00  0.00    -0.384 OA
ATOM      6  H   UNL     1      35.647 -25.059  -9.904  0.00  0.00    +0.210 HD
ENDBRANCH   4   5
ENDBRANCH   3   4
ENDBRANCH   1   3
BRANCH   1   7
ATOM      7  C   UNL     1      35.045 -23.839 -13.480  0.00  0.00    -0.044 C 
BRANCH   7   8
ATOM      8  C   UNL     1      33.595 -24.237 -13.671  0.00  0.00    +0.115 C 
BRANCH   8   9
ATOM      9  O   UNL     1      32.756 -23.340 -12.956  0.00  0.00    -0.384 OA
ATOM     10  H   UNL     1      33.238 -22.518 -12.778  0.00  0.00    +0.210 HD
ENDBRANCH   8   9
ENDBRANCH   7   8
ENDBRANCH   1   7
BRANCH   1  11
ATOM     11  C   UNL     1      36.850 -25.172 -14.559  0.00  0.00    +0.040 C 
BRANCH  11  14
ATOM     12  O   UNL     1      36.276 -27.003 -15.948  0.00  0.00    -0.248 OA
ATOM     13  O   UNL     1      38.125 -27.139 -14.613  0.00  0.00    -0.248 OA
ATOM     14  C   UNL     1      37.103 -26.574 -15.097  0.00  0.00    +0.344 C 
ENDBRANCH  11  14
ENDBRANCH   1  11
TORSDOF 8
ENDMDL
MODEL 7
REMARK VINA RESULT:      -5.2      2.126      3.949
REMARK  Name = 5256512
REMARK  8 active torsions:
REMARK  status: ('A' for Active; 'I' for Inactive)
REMARK    1  A    between atoms: N_1  and  C_3
REMARK    2  A    between atoms: N_1  and  C_7
REMARK    3  A    between atoms: N_1  and  C_11
REMARK    4  A    between atoms: C_3  and  C_4
REMARK    5  A    between atoms: C_4  and  O_5
REMARK    6  A    between atoms: C_7  and  C_8
REMARK    7  A    between atoms: C_8  and  O_9
REMARK    8  A    between atoms: C_11  and  C_14
REMARK                            x       y       z     vdW  Elec       q    Type
REMARK                         _______ _______ _______ _____ _____    ______ ____
ROOT
ATOM      1  N   UNL     1      37.614 -24.891 -13.430  0.00  0.00    +0.398 N 
ATOM      2  H   UNL     1      37.365 -25.381 -14.290  0.00  0.00    -0.079 HD
ENDROOT
BRANCH   1   3
ATOM      3  C   UNL     1      36.868 -25.567 -12.314  0.00  0.00    -0.044 C 
BRANCH   3   4
ATOM      4  C   UNL     1      35.792 -24.633 -11.795  0.00  0.00    +0.115 C 
BRANCH   4   5
ATOM      5  O   UNL     1      35.302 -25.117 -10.551  0.00  0.00    -0.384 OA
ATOM      6  H   UNL     1      34.392 -24.810 -10.421  0.00  0.00    +0.210 HD
ENDBRANCH   4   5
ENDBRANCH   3   4
ENDBRANCH   1   3
BRANCH   1   7
ATOM      7  C   UNL     1      37.189 -23.461 -13.606  0.00  0.00    -0.044 C 
BRANCH   7   8
ATOM      8  C   UNL     1      37.041 -23.162 -15.084  0.00  0.00    +0.115 C 
BRANCH   8   9
ATOM      9  O   UNL     1      36.749 -24.362 -15.787  0.00  0.00    -0.384 OA
ATOM     10  H   UNL     1      35.985 -24.798 -15.381  0.00  0.00    +0.210 HD
ENDBRANCH   8   9
ENDBRANCH   7   8
ENDBRANCH   1   7
BRANCH   1  11
ATOM     11  C   UNL     1      39.102 -25.021 -13.270  0.00  0.00    +0.040 C 
BRANCH  11  14
ATOM     12  O   UNL     1      39.227 -26.797 -14.833  0.00  0.00    -0.248 OA
ATOM     13  O   UNL     1      40.949 -25.302 -14.687  0.00  0.00    -0.248 OA
ATOM     14  C   UNL     1      39.823 -25.785 -14.372  0.00  0.00    +0.344 C 
ENDBRANCH  11  14
ENDBRANCH   1  11
TORSDOF 8
ENDMDL
MODEL 8
REMARK VINA RESULT:      -5.1      2.000      4.509
REMARK  Name = 5256512
REMARK  8 active torsions:
REMARK  status: ('A' for Active; 'I' for Inactive)
REMARK    1  A    between atoms: N_1  and  C_3
REMARK    2  A    between atoms: N_1  and  C_7
REMARK    3  A    between atoms: N_1  and  C_11
REMARK    4  A    between atoms: C_3  and  C_4
REMARK    5  A    between atoms: C_4  and  O_5
REMARK    6  A    between atoms: C_7  and  C_8
REMARK    7  A    between atoms: C_8  and  O_9
REMARK    8  A    between atoms: C_11  and  C_14
REMARK                            x       y       z     vdW  Elec       q    Type
REMARK                         _______ _______ _______ _____ _____    ______ ____
ROOT
ATOM      1  N   UNL     1      36.357 -24.321 -13.901  0.00  0.00    +0.398 N 
ATOM      2  H   UNL     1      35.525 -24.426 -14.481  0.00  0.00    -0.079 HD
ENDROOT
BRANCH   1   3
ATOM      3  C   UNL     1      35.927 -23.605 -12.651  0.00  0.00    -0.044 C 
BRANCH   3   4
ATOM      4  C   UNL     1      37.048 -23.661 -11.632  0.00  0.00    +0.115 C 
BRANCH   4   5
ATOM      5  O   UNL     1      37.389 -22.342 -11.226  0.00  0.00    -0.384 OA
ATOM      6  H   UNL     1      38.196 -22.367 -10.689  0.00  0.00    +0.210 HD
ENDBRANCH   4   5
ENDBRANCH   3   4
ENDBRANCH   1   3
BRANCH   1   7
ATOM      7  C   UNL     1      37.345 -23.518 -14.697  0.00  0.00    -0.044 C 
BRANCH   7   8
ATOM      8  C   UNL     1      36.644 -22.902 -15.890  0.00  0.00    +0.115 C 
BRANCH   8   9
ATOM      9  O   UNL     1      35.537 -23.711 -16.263  0.00  0.00    -0.384 OA
ATOM     10  H   UNL     1      35.857 -24.551 -16.626  0.00  0.00    +0.210 HD
ENDBRANCH   8   9
ENDBRANCH   7   8
ENDBRANCH   1   7
BRANCH   1  11
ATOM     11  C   UNL     1      36.862 -25.705 -13.609  0.00  0.00    +0.040 C 
BRANCH  11  14
ATOM     12  O   UNL     1      36.204 -26.639 -15.685  0.00  0.00    -0.248 OA
ATOM     13  O   UNL     1      38.251 -27.160 -14.814  0.00  0.00    -0.248 OA
ATOM     14  C   UNL     1      37.125 -26.585 -14.824  0.00  0.00    +0.344 C 
ENDBRANCH  11  14
ENDBRANCH   1  11
TORSDOF 8
ENDMDL
MODEL 9
REMARK VINA RESULT:      -5.1      8.692      9.672
REMARK  Name = 5256512
REMARK  8 active torsions:
REMARK  status: ('A' for Active; 'I' for Inactive)
REMARK    1  A    between atoms: N_1  and  C_3
REMARK    2  A    between atoms: N_1  and  C_7
REMARK    3  A    between atoms: N_1  and  C_11
REMARK    4  A    between atoms: C_3  and  C_4
REMARK    5  A    between atoms: C_4  and  O_5
REMARK    6  A    between atoms: C_7  and  C_8
REMARK    7  A    between atoms: C_8  and  O_9
REMARK    8  A    between atoms: C_11  and  C_14
REMARK                            x       y       z     vdW  Elec       q    Type
REMARK                         _______ _______ _______ _____ _____    ______ ____
ROOT
ATOM      1  N   UNL     1      35.232 -19.556 -20.524  0.00  0.00    +0.398 N 
ATOM      2  H   UNL     1      34.970 -19.246 -19.588  0.00  0.00    -0.079 HD
ENDROOT
BRANCH   1   3
ATOM      3  C   UNL     1      35.957 -18.412 -21.175  0.00  0.00    -0.044 C 
BRANCH   3   4
ATOM      4  C   UNL     1      35.008 -17.240 -21.327  0.00  0.00    +0.115 C 
BRANCH   4   5
ATOM      5  O   UNL     1      35.133 -16.378 -20.203  0.00  0.00    -0.384 OA
ATOM      6  H   UNL     1      36.066 -16.314 -19.948  0.00  0.00    +0.210 HD
ENDBRANCH   4   5
ENDBRANCH   3   4
ENDBRANCH   1   3
BRANCH   1   7
ATOM      7  C   UNL     1      33.958 -19.897 -21.243  0.00  0.00    -0.044 C 
BRANCH   7   8
ATOM      8  C   UNL     1      32.874 -20.193 -20.226  0.00  0.00    +0.115 C 
BRANCH   8   9
ATOM      9  O   UNL     1      32.709 -21.599 -20.100  0.00  0.00    -0.384 OA
ATOM     10  H   UNL     1      32.705 -22.005 -20.980  0.00  0.00    +0.210 HD
ENDBRANCH   8   9
ENDBRANCH   7   8
ENDBRANCH   1   7
BRANCH   1  11
ATOM     11  C   UNL     1      36.118 -20.757 -20.351  0.00  0.00    +0.040 C 
BRANCH  11  14
ATOM     12  O   UNL     1      35.342 -22.414 -18.846  0.00  0.00    -0.248 OA
ATOM     13  O   UNL     1      36.837 -20.846 -18.121  0.00  0.00    -0.248 OA
ATOM     14  C   UNL     1      36.093 -21.408 -18.974  0.00  0.00    +0.344 C 
ENDBRANCH  11  14
ENDBRANCH   1  11
TORSDOF 8
ENDMDL
