MODEL 1
REMARK VINA RESULT:     -11.8      0.000      0.000
REMARK  Name = 54726191
REMARK  4 active torsions:
REMARK  status: ('A' for Active; 'I' for Inactive)
REMARK    1  A    between atoms: C_15  and  O_31
REMARK    2  A    between atoms: C_16  and  C_20
REMARK    3  A    between atoms: N_19  and  C_22
REMARK    4  A    between atoms: C_22  and  C_25
REMARK                            x       y       z     vdW  Elec       q    Type
REMARK                         _______ _______ _______ _____ _____    ______ ____
ROOT
ATOM      1  O   UNL     1      37.625 -22.744 -15.725  0.00  0.00    -0.336 OA
ATOM      2  O   UNL     1      33.603 -23.732 -17.943  0.00  0.00    -0.268 OA
ATOM      3  O   UNL     1      33.371 -19.982 -21.377  0.00  0.00    -0.283 OA
ATOM      4  N   UNL     1      35.448 -23.108 -16.690  0.00  0.00    -0.253 N 
ATOM      5  N   UNL     1      36.144 -21.290 -18.726  0.00  0.00    -0.275 N 
ATOM      6  C   UNL     1      36.561 -22.173 -16.495  0.00  0.00    +0.215 C 
ATOM      7  C   UNL     1      35.040 -23.947 -15.549  0.00  0.00    +0.080 C 
ATOM      8  C   UNL     1      36.249 -24.425 -14.743  0.00  0.00    +0.052 C 
ATOM      9  C   UNL     1      37.176 -21.796 -17.833  0.00  0.00    +0.147 C 
ATOM     10  C   UNL     1      37.203 -23.278 -14.477  0.00  0.00    +0.146 C 
ATOM     11  C   UNL     1      34.575 -22.994 -17.781  0.00  0.00    +0.267 C 
ATOM     12  C   UNL     1      34.879 -21.882 -18.759  0.00  0.00    +0.143 C 
ATOM     13  C   UNL     1      34.032 -23.201 -14.666  0.00  0.00    +0.022 C 
ATOM     14  C   UNL     1      36.435 -20.276 -19.628  0.00  0.00    +0.074 C 
ATOM     15  C   UNL     1      33.913 -21.488 -19.619  0.00  0.00    +0.191 C 
ATOM     16  C   UNL     1      35.579 -19.788 -20.534  0.00  0.00    +0.110 C 
ATOM     17  C   UNL     1      34.217 -20.380 -20.581  0.00  0.00    +0.236 C 
ENDROOT
BRANCH  16  20
ATOM     18  O   UNL     1      37.182 -18.684 -21.848  0.00  0.00    -0.270 OA
ATOM     19  N   UNL     1      35.037 -17.784 -21.690  0.00  0.00    -0.297 N 
ATOM     20  C   UNL     1      36.028 -18.713 -21.417  0.00  0.00    +0.251 C 
ATOM     21  H   UNL     1      34.150 -17.917 -21.284  0.00  0.00    +0.150 HD
BRANCH  19  22
ATOM     22  C   UNL     1      35.238 -16.630 -22.536  0.00  0.00    +0.119 C 
BRANCH  22  25
ATOM     23  F   UNL     1      33.892 -15.214 -24.583  0.00  0.00    -0.204 F 
ATOM     24  F   UNL     1      31.481 -12.569 -21.488  0.00  0.00    -0.204 F 
ATOM     25  C   UNL     1      34.236 -15.547 -22.258  0.00  0.00    +0.025 C 
ATOM     26  C   UNL     1      33.608 -14.888 -23.315  0.00  0.00    +0.140 C 
ATOM     27  C   UNL     1      33.933 -15.201 -20.941  0.00  0.00    +0.002 C 
ATOM     28  C   UNL     1      32.677 -13.882 -23.054  0.00  0.00    +0.059 C 
ATOM     29  C   UNL     1      33.002 -14.195 -20.681  0.00  0.00    +0.030 C 
ATOM     30  C   UNL     1      32.374 -13.535 -21.737  0.00  0.00    +0.142 C 
ENDBRANCH  22  25
ENDBRANCH  19  22
ENDBRANCH  16  20
BRANCH  15  31
ATOM     31  O   UNL     1      32.648 -22.030 -19.662  0.00  0.00    -0.502 OA
ATOM     32  H   UNL     1      31.929 -21.572 -19.274  0.00  0.00    +0.292 HD
ENDBRANCH  15  31
TORSDOF 4
ENDMDL
MODEL 2
REMARK VINA RESULT:     -11.0      4.163      9.358
REMARK  Name = 54726191
REMARK  4 active torsions:
REMARK  status: ('A' for Active; 'I' for Inactive)
REMARK    1  A    between atoms: C_15  and  O_31
REMARK    2  A    between atoms: C_16  and  C_20
REMARK    3  A    between atoms: N_19  and  C_22
REMARK    4  A    between atoms: C_22  and  C_25
REMARK                            x       y       z     vdW  Elec       q    Type
REMARK                         _______ _______ _______ _____ _____    ______ ____
ROOT
ATOM      1  O   UNL     1      31.954 -12.668 -19.736  0.00  0.00    -0.336 OA
ATOM      2  O   UNL     1      31.909 -13.592 -24.342  0.00  0.00    -0.268 OA
ATOM      3  O   UNL     1      35.354 -17.324 -24.679  0.00  0.00    -0.283 OA
ATOM      4  N   UNL     1      32.110 -12.966 -22.122  0.00  0.00    -0.253 N 
ATOM      5  N   UNL     1      33.544 -15.343 -21.642  0.00  0.00    -0.275 N 
ATOM      6  C   UNL     1      32.732 -13.202 -20.814  0.00  0.00    +0.215 C 
ATOM      7  C   UNL     1      31.483 -11.655 -22.365  0.00  0.00    +0.080 C 
ATOM      8  C   UNL     1      30.760 -11.138 -21.121  0.00  0.00    +0.052 C 
ATOM      9  C   UNL     1      32.846 -14.693 -20.543  0.00  0.00    +0.147 C 
ATOM     10  C   UNL     1      31.632 -11.292 -19.891  0.00  0.00    +0.146 C 
ATOM     11  C   UNL     1      32.376 -13.794 -23.221  0.00  0.00    +0.267 C 
ATOM     12  C   UNL     1      33.303 -14.960 -22.964  0.00  0.00    +0.143 C 
ATOM     13  C   UNL     1      32.524 -10.649 -22.872  0.00  0.00    +0.022 C 
ATOM     14  C   UNL     1      34.385 -16.420 -21.397  0.00  0.00    +0.074 C 
ATOM     15  C   UNL     1      33.878 -15.581 -24.018  0.00  0.00    +0.191 C 
ATOM     16  C   UNL     1      35.019 -17.126 -22.341  0.00  0.00    +0.110 C 
ATOM     17  C   UNL     1      34.802 -16.732 -23.757  0.00  0.00    +0.236 C 
ENDROOT
BRANCH  16  20
ATOM     18  O   UNL     1      37.036 -18.330 -22.340  0.00  0.00    -0.270 OA
ATOM     19  N   UNL     1      35.250 -19.115 -21.061  0.00  0.00    -0.297 N 
ATOM     20  C   UNL     1      35.879 -18.235 -21.929  0.00  0.00    +0.251 C 
ATOM     21  H   UNL     1      34.318 -18.930 -20.805  0.00  0.00    +0.150 HD
BRANCH  19  22
ATOM     22  C   UNL     1      35.892 -20.290 -20.516  0.00  0.00    +0.119 C 
BRANCH  22  25
ATOM     23  F   UNL     1      36.791 -22.029 -18.473  0.00  0.00    -0.204 F 
ATOM     24  F   UNL     1      32.388 -23.298 -17.295  0.00  0.00    -0.204 F 
ATOM     25  C   UNL     1      34.959 -21.092 -19.656  0.00  0.00    +0.025 C 
ATOM     26  C   UNL     1      35.469 -21.932 -18.665  0.00  0.00    +0.140 C 
ATOM     27  C   UNL     1      33.581 -20.997 -19.849  0.00  0.00    +0.002 C 
ATOM     28  C   UNL     1      34.600 -22.677 -17.868  0.00  0.00    +0.059 C 
ATOM     29  C   UNL     1      32.712 -21.743 -19.051  0.00  0.00    +0.030 C 
ATOM     30  C   UNL     1      33.221 -22.583 -18.061  0.00  0.00    +0.142 C 
ENDBRANCH  22  25
ENDBRANCH  19  22
ENDBRANCH  16  20
BRANCH  15  31
ATOM     31  O   UNL     1      33.685 -15.215 -25.331  0.00  0.00    -0.502 OA
ATOM     32  H   UNL     1      32.825 -15.005 -25.637  0.00  0.00    +0.292 HD
ENDBRANCH  15  31
TORSDOF 4
ENDMDL
MODEL 3
REMARK VINA RESULT:     -11.0      1.305      2.042
REMARK  Name = 54726191
REMARK  4 active torsions:
REMARK  status: ('A' for Active; 'I' for Inactive)
REMARK    1  A    between atoms: C_15  and  O_31
REMARK    2  A    between atoms: C_16  and  C_20
REMARK    3  A    between atoms: N_19  and  C_22
REMARK    4  A    between atoms: C_22  and  C_25
REMARK                            x       y       z     vdW  Elec       q    Type
REMARK                         _______ _______ _______ _____ _____    ______ ____
ROOT
ATOM      1  O   UNL     1      37.315 -22.906 -15.747  0.00  0.00    -0.336 OA
ATOM      2  O   UNL     1      33.411 -23.664 -18.247  0.00  0.00    -0.268 OA
ATOM      3  O   UNL     1      33.524 -19.783 -21.539  0.00  0.00    -0.283 OA
ATOM      4  N   UNL     1      35.192 -23.155 -16.858  0.00  0.00    -0.253 N 
ATOM      5  N   UNL     1      36.077 -21.288 -18.774  0.00  0.00    -0.275 N 
ATOM      6  C   UNL     1      36.322 -22.268 -16.558  0.00  0.00    +0.215 C 
ATOM      7  C   UNL     1      34.685 -24.020 -15.779  0.00  0.00    +0.080 C 
ATOM      8  C   UNL     1      35.824 -24.571 -14.920  0.00  0.00    +0.052 C 
ATOM      9  C   UNL     1      37.033 -21.864 -17.839  0.00  0.00    +0.147 C 
ATOM     10  C   UNL     1      36.798 -23.470 -14.549  0.00  0.00    +0.146 C 
ATOM     11  C   UNL     1      34.395 -22.968 -17.996  0.00  0.00    +0.267 C 
ATOM     12  C   UNL     1      34.797 -21.833 -18.909  0.00  0.00    +0.143 C 
ATOM     13  C   UNL     1      33.649 -23.271 -14.932  0.00  0.00    +0.022 C 
ATOM     14  C   UNL     1      36.459 -20.252 -19.616  0.00  0.00    +0.074 C 
ATOM     15  C   UNL     1      33.902 -21.372 -19.811  0.00  0.00    +0.191 C 
ATOM     16  C   UNL     1      35.678 -19.700 -20.553  0.00  0.00    +0.110 C 
ATOM     17  C   UNL     1      34.303 -20.241 -20.708  0.00  0.00    +0.236 C 
ENDROOT
BRANCH  16  20
ATOM     18  O   UNL     1      37.322 -18.705 -21.904  0.00  0.00    -0.270 OA
ATOM     19  N   UNL     1      35.370 -17.517 -21.438  0.00  0.00    -0.297 N 
ATOM     20  C   UNL     1      36.219 -18.610 -21.363  0.00  0.00    +0.251 C 
ATOM     21  H   UNL     1      34.511 -17.561 -20.960  0.00  0.00    +0.150 HD
BRANCH  19  22
ATOM     22  C   UNL     1      35.682 -16.315 -22.179  0.00  0.00    +0.119 C 
BRANCH  22  25
ATOM     23  F   UNL     1      34.277 -13.949 -22.834  0.00  0.00    -0.204 F 
ATOM     24  F   UNL     1      32.521 -15.817 -26.811  0.00  0.00    -0.204 F 
ATOM     25  C   UNL     1      34.839 -16.181 -23.413  0.00  0.00    +0.025 C 
ATOM     26  C   UNL     1      34.172 -14.984 -23.677  0.00  0.00    +0.140 C 
ATOM     27  C   UNL     1      34.724 -17.254 -24.297  0.00  0.00    +0.002 C 
ATOM     28  C   UNL     1      33.388 -14.862 -24.825  0.00  0.00    +0.059 C 
ATOM     29  C   UNL     1      33.941 -17.131 -25.445  0.00  0.00    +0.030 C 
ATOM     30  C   UNL     1      33.272 -15.935 -25.709  0.00  0.00    +0.142 C 
ENDBRANCH  22  25
ENDBRANCH  19  22
ENDBRANCH  16  20
BRANCH  15  31
ATOM     31  O   UNL     1      32.625 -21.866 -19.954  0.00  0.00    -0.502 OA
ATOM     32  H   UNL     1      32.351 -22.610 -19.455  0.00  0.00    +0.292 HD
ENDBRANCH  15  31
TORSDOF 4
ENDMDL
MODEL 4
REMARK VINA RESULT:     -10.6      5.360     11.249
REMARK  Name = 54726191
REMARK  4 active torsions:
REMARK  status: ('A' for Active; 'I' for Inactive)
REMARK    1  A    between atoms: C_15  and  O_31
REMARK    2  A    between atoms: C_16  and  C_20
REMARK    3  A    between atoms: N_19  and  C_22
REMARK    4  A    between atoms: C_22  and  C_25
REMARK                            x       y       z     vdW  Elec       q    Type
REMARK                         _______ _______ _______ _____ _____    ______ ____
ROOT
ATOM      1  O   UNL     1      34.178  -8.092 -24.549  0.00  0.00    -0.336 OA
ATOM      2  O   UNL     1      31.644  -9.886 -21.023  0.00  0.00    -0.268 OA
ATOM      3  O   UNL     1      31.891 -14.874 -22.010  0.00  0.00    -0.283 OA
ATOM      4  N   UNL     1      32.678  -8.986 -22.890  0.00  0.00    -0.253 N 
ATOM      5  N   UNL     1      33.663 -11.552 -23.510  0.00  0.00    -0.275 N 
ATOM      6  C   UNL     1      33.388  -9.219 -24.152  0.00  0.00    +0.215 C 
ATOM      7  C   UNL     1      32.069  -7.662 -22.671  0.00  0.00    +0.080 C 
ATOM      8  C   UNL     1      32.954  -6.540 -23.216  0.00  0.00    +0.052 C 
ATOM      9  C   UNL     1      34.363 -10.375 -24.006  0.00  0.00    +0.147 C 
ATOM     10  C   UNL     1      33.446  -6.875 -24.610  0.00  0.00    +0.146 C 
ATOM     11  C   UNL     1      32.285 -10.047 -22.062  0.00  0.00    +0.267 C 
ATOM     12  C   UNL     1      32.677 -11.431 -22.527  0.00  0.00    +0.143 C 
ATOM     13  C   UNL     1      30.659  -7.613 -23.274  0.00  0.00    +0.022 C 
ATOM     14  C   UNL     1      34.037 -12.819 -23.934  0.00  0.00    +0.074 C 
ATOM     15  C   UNL     1      32.050 -12.501 -21.991  0.00  0.00    +0.191 C 
ATOM     16  C   UNL     1      33.504 -13.964 -23.490  0.00  0.00    +0.110 C 
ATOM     17  C   UNL     1      32.436 -13.871 -22.461  0.00  0.00    +0.236 C 
ENDROOT
BRANCH  16  20
ATOM     18  O   UNL     1      33.749 -15.560 -25.196  0.00  0.00    -0.270 OA
ATOM     19  N   UNL     1      34.744 -15.957 -23.124  0.00  0.00    -0.297 N 
ATOM     20  C   UNL     1      33.998 -15.227 -24.036  0.00  0.00    +0.251 C 
ATOM     21  H   UNL     1      34.873 -15.583 -22.223  0.00  0.00    +0.150 HD
BRANCH  19  22
ATOM     22  C   UNL     1      35.339 -17.239 -23.427  0.00  0.00    +0.119 C 
BRANCH  22  25
ATOM     23  F   UNL     1      37.410 -18.526 -21.992  0.00  0.00    -0.204 F 
ATOM     24  F   UNL     1      34.361 -21.025 -19.376  0.00  0.00    -0.204 F 
ATOM     25  C   UNL     1      35.079 -18.249 -22.347  0.00  0.00    +0.025 C 
ATOM     26  C   UNL     1      36.148 -18.847 -21.678  0.00  0.00    +0.140 C 
ATOM     27  C   UNL     1      33.768 -18.588 -22.012  0.00  0.00    +0.002 C 
ATOM     28  C   UNL     1      35.905 -19.785 -20.674  0.00  0.00    +0.059 C 
ATOM     29  C   UNL     1      33.526 -19.526 -21.008  0.00  0.00    +0.030 C 
ATOM     30  C   UNL     1      34.593 -20.125 -20.339  0.00  0.00    +0.142 C 
ENDBRANCH  22  25
ENDBRANCH  19  22
ENDBRANCH  16  20
BRANCH  15  31
ATOM     31  O   UNL     1      31.056 -12.420 -21.041  0.00  0.00    -0.502 OA
ATOM     32  H   UNL     1      31.124 -12.913 -20.248  0.00  0.00    +0.292 HD
ENDBRANCH  15  31
TORSDOF 4
ENDMDL
MODEL 5
REMARK VINA RESULT:     -10.5      2.059      2.952
REMARK  Name = 54726191
REMARK  4 active torsions:
REMARK  status: ('A' for Active; 'I' for Inactive)
REMARK    1  A    between atoms: C_15  and  O_31
REMARK    2  A    between atoms: C_16  and  C_20
REMARK    3  A    between atoms: N_19  and  C_22
REMARK    4  A    between atoms: C_22  and  C_25
REMARK                            x       y       z     vdW  Elec       q    Type
REMARK                         _______ _______ _______ _____ _____    ______ ____
ROOT
ATOM      1  O   UNL     1      38.179 -23.531 -13.798  0.00  0.00    -0.336 OA
ATOM      2  O   UNL     1      33.836 -24.970 -14.862  0.00  0.00    -0.268 OA
ATOM      3  O   UNL     1      32.782 -22.134 -18.955  0.00  0.00    -0.283 OA
ATOM      4  N   UNL     1      35.868 -24.088 -14.190  0.00  0.00    -0.253 N 
ATOM      5  N   UNL     1      36.075 -22.809 -16.691  0.00  0.00    -0.275 N 
ATOM      6  C   UNL     1      36.962 -23.145 -14.448  0.00  0.00    +0.215 C 
ATOM      7  C   UNL     1      35.728 -24.630 -12.826  0.00  0.00    +0.080 C 
ATOM      8  C   UNL     1      37.090 -24.918 -12.194  0.00  0.00    +0.052 C 
ATOM      9  C   UNL     1      37.283 -23.101 -15.933  0.00  0.00    +0.147 C 
ATOM     10  C   UNL     1      38.035 -23.750 -12.402  0.00  0.00    +0.146 C 
ATOM     11  C   UNL     1      34.791 -24.225 -15.077  0.00  0.00    +0.267 C 
ATOM     12  C   UNL     1      34.852 -23.379 -16.328  0.00  0.00    +0.143 C 
ATOM     13  C   UNL     1      34.890 -23.686 -11.956  0.00  0.00    +0.022 C 
ATOM     14  C   UNL     1      36.142 -22.040 -17.845  0.00  0.00    +0.074 C 
ATOM     15  C   UNL     1      33.720 -23.189 -17.042  0.00  0.00    +0.191 C 
ATOM     16  C   UNL     1      35.104 -21.770 -18.646  0.00  0.00    +0.110 C 
ATOM     17  C   UNL     1      33.783 -22.342 -18.277  0.00  0.00    +0.236 C 
ENDROOT
BRANCH  16  20
ATOM     18  O   UNL     1      36.467 -20.709 -20.238  0.00  0.00    -0.270 OA
ATOM     19  N   UNL     1      34.152 -20.471 -20.393  0.00  0.00    -0.297 N 
ATOM     20  C   UNL     1      35.328 -20.939 -19.828  0.00  0.00    +0.251 C 
ATOM     21  H   UNL     1      33.300 -20.724 -19.971  0.00  0.00    +0.150 HD
BRANCH  19  22
ATOM     22  C   UNL     1      34.112 -19.629 -21.567  0.00  0.00    +0.119 C 
BRANCH  22  25
ATOM     23  F   UNL     1      36.214 -17.742 -21.397  0.00  0.00    -0.204 F 
ATOM     24  F   UNL     1      33.270 -14.218 -20.256  0.00  0.00    -0.204 F 
ATOM     25  C   UNL     1      33.889 -18.186 -21.217  0.00  0.00    +0.025 C 
ATOM     26  C   UNL     1      34.971 -17.308 -21.151  0.00  0.00    +0.140 C 
ATOM     27  C   UNL     1      32.598 -17.724 -20.960  0.00  0.00    +0.002 C 
ATOM     28  C   UNL     1      34.762 -15.967 -20.826  0.00  0.00    +0.059 C 
ATOM     29  C   UNL     1      32.389 -16.383 -20.636  0.00  0.00    +0.030 C 
ATOM     30  C   UNL     1      33.471 -15.505 -20.568  0.00  0.00    +0.142 C 
ENDBRANCH  22  25
ENDBRANCH  19  22
ENDBRANCH  16  20
BRANCH  15  31
ATOM     31  O   UNL     1      32.493 -23.712 -16.700  0.00  0.00    -0.502 OA
ATOM     32  H   UNL     1      32.297 -23.900 -15.804  0.00  0.00    +0.292 HD
ENDBRANCH  15  31
TORSDOF 4
ENDMDL
MODEL 6
REMARK VINA RESULT:     -10.5      6.235      9.471
REMARK  Name = 54726191
REMARK  4 active torsions:
REMARK  status: ('A' for Active; 'I' for Inactive)
REMARK    1  A    between atoms: C_15  and  O_31
REMARK    2  A    between atoms: C_16  and  C_20
REMARK    3  A    between atoms: N_19  and  C_22
REMARK    4  A    between atoms: C_22  and  C_25
REMARK                            x       y       z     vdW  Elec       q    Type
REMARK                         _______ _______ _______ _____ _____    ______ ____
ROOT
ATOM      1  O   UNL     1      34.148 -15.930 -25.428  0.00  0.00    -0.336 OA
ATOM      2  O   UNL     1      32.810 -16.462 -20.956  0.00  0.00    -0.268 OA
ATOM      3  O   UNL     1      31.758 -11.665 -19.617  0.00  0.00    -0.283 OA
ATOM      4  N   UNL     1      33.704 -16.174 -23.073  0.00  0.00    -0.253 N 
ATOM      5  N   UNL     1      32.680 -13.549 -23.085  0.00  0.00    -0.275 N 
ATOM      6  C   UNL     1      34.036 -15.257 -24.169  0.00  0.00    +0.215 C 
ATOM      7  C   UNL     1      34.368 -17.489 -23.044  0.00  0.00    +0.080 C 
ATOM      8  C   UNL     1      34.518 -18.072 -24.450  0.00  0.00    +0.052 C 
ATOM      9  C   UNL     1      32.934 -14.225 -24.349  0.00  0.00    +0.147 C 
ATOM     10  C   UNL     1      35.051 -17.027 -25.410  0.00  0.00    +0.146 C 
ATOM     11  C   UNL     1      33.056 -15.727 -21.912  0.00  0.00    +0.267 C 
ATOM     12  C   UNL     1      32.685 -14.262 -21.883  0.00  0.00    +0.143 C 
ATOM     13  C   UNL     1      35.719 -17.393 -22.325  0.00  0.00    +0.022 C 
ATOM     14  C   UNL     1      32.329 -12.206 -23.069  0.00  0.00    +0.074 C 
ATOM     15  C   UNL     1      32.389 -13.688 -20.696  0.00  0.00    +0.191 C 
ATOM     16  C   UNL     1      32.011 -11.511 -21.970  0.00  0.00    +0.110 C 
ATOM     17  C   UNL     1      32.029 -12.233 -20.671  0.00  0.00    +0.236 C 
ENDROOT
BRANCH  16  20
ATOM     18  O   UNL     1      30.680  -9.743 -22.758  0.00  0.00    -0.270 OA
ATOM     19  N   UNL     1      32.548  -9.256 -21.448  0.00  0.00    -0.297 N 
ATOM     20  C   UNL     1      31.666 -10.097 -22.109  0.00  0.00    +0.251 C 
ATOM     21  H   UNL     1      33.301  -9.661 -20.961  0.00  0.00    +0.150 HD
BRANCH  19  22
ATOM     22  C   UNL     1      32.419  -7.817 -21.439  0.00  0.00    +0.119 C 
BRANCH  22  25
ATOM     23  F   UNL     1      30.782  -6.085 -22.964  0.00  0.00    -0.204 F 
ATOM     24  F   UNL     1      34.090  -5.519 -26.300  0.00  0.00    -0.204 F 
ATOM     25  C   UNL     1      32.863  -7.204 -22.735  0.00  0.00    +0.025 C 
ATOM     26  C   UNL     1      32.005  -6.357 -23.438  0.00  0.00    +0.140 C 
ATOM     27  C   UNL     1      34.135  -7.480 -23.235  0.00  0.00    +0.002 C 
ATOM     28  C   UNL     1      32.420  -5.789 -24.642  0.00  0.00    +0.059 C 
ATOM     29  C   UNL     1      34.550  -6.911 -24.440  0.00  0.00    +0.030 C 
ATOM     30  C   UNL     1      33.692  -6.066 -25.144  0.00  0.00    +0.142 C 
ENDBRANCH  22  25
ENDBRANCH  19  22
ENDBRANCH  16  20
BRANCH  15  31
ATOM     31  O   UNL     1      32.410 -14.351 -19.489  0.00  0.00    -0.502 OA
ATOM     32  H   UNL     1      33.046 -15.021 -19.334  0.00  0.00    +0.292 HD
ENDBRANCH  15  31
TORSDOF 4
ENDMDL
MODEL 7
REMARK VINA RESULT:     -10.2      3.357      4.989
REMARK  Name = 54726191
REMARK  4 active torsions:
REMARK  status: ('A' for Active; 'I' for Inactive)
REMARK    1  A    between atoms: C_15  and  O_31
REMARK    2  A    between atoms: C_16  and  C_20
REMARK    3  A    between atoms: N_19  and  C_22
REMARK    4  A    between atoms: C_22  and  C_25
REMARK                            x       y       z     vdW  Elec       q    Type
REMARK                         _______ _______ _______ _____ _____    ______ ____
ROOT
ATOM      1  O   UNL     1      37.916 -24.659 -13.639  0.00  0.00    -0.336 OA
ATOM      2  O   UNL     1      33.301 -24.796 -12.772  0.00  0.00    -0.268 OA
ATOM      3  O   UNL     1      31.394 -22.706 -17.004  0.00  0.00    -0.283 OA
ATOM      4  N   UNL     1      35.576 -24.503 -13.088  0.00  0.00    -0.253 N 
ATOM      5  N   UNL     1      35.068 -23.921 -15.797  0.00  0.00    -0.275 N 
ATOM      6  C   UNL     1      36.662 -24.045 -13.961  0.00  0.00    +0.215 C 
ATOM      7  C   UNL     1      35.865 -24.668 -11.652  0.00  0.00    +0.080 C 
ATOM      8  C   UNL     1      37.263 -25.243 -11.422  0.00  0.00    +0.052 C 
ATOM      9  C   UNL     1      36.376 -24.423 -15.405  0.00  0.00    +0.147 C 
ATOM     10  C   UNL     1      38.287 -24.519 -12.274  0.00  0.00    +0.146 C 
ATOM     11  C   UNL     1      34.237 -24.466 -13.501  0.00  0.00    +0.267 C 
ATOM     12  C   UNL     1      33.991 -23.971 -14.907  0.00  0.00    +0.143 C 
ATOM     13  C   UNL     1      35.670 -23.340 -10.909  0.00  0.00    +0.022 C 
ATOM     14  C   UNL     1      34.848 -23.478 -17.094  0.00  0.00    +0.074 C 
ATOM     15  C   UNL     1      32.744 -23.578 -15.251  0.00  0.00    +0.191 C 
ATOM     16  C   UNL     1      33.669 -23.061 -17.571  0.00  0.00    +0.110 C 
ATOM     17  C   UNL     1      32.507 -23.080 -16.645  0.00  0.00    +0.236 C 
ENDROOT
BRANCH  16  20
ATOM     18  O   UNL     1      33.794 -23.401 -19.892  0.00  0.00    -0.270 OA
ATOM     19  N   UNL     1      33.277 -21.274 -19.087  0.00  0.00    -0.297 N 
ATOM     20  C   UNL     1      33.592 -22.618 -18.962  0.00  0.00    +0.251 C 
ATOM     21  H   UNL     1      33.137 -20.750 -18.266  0.00  0.00    +0.150 HD
BRANCH  19  22
ATOM     22  C   UNL     1      33.144 -20.602 -20.360  0.00  0.00    +0.119 C 
BRANCH  22  25
ATOM     23  F   UNL     1      33.359 -18.942 -22.641  0.00  0.00    -0.204 F 
ATOM     24  F   UNL     1      38.031 -18.417 -22.105  0.00  0.00    -0.204 F 
ATOM     25  C   UNL     1      34.446 -20.019 -20.826  0.00  0.00    +0.025 C 
ATOM     26  C   UNL     1      34.482 -19.207 -21.960  0.00  0.00    +0.140 C 
ATOM     27  C   UNL     1      35.621 -20.289 -20.124  0.00  0.00    +0.002 C 
ATOM     28  C   UNL     1      35.694 -18.666 -22.392  0.00  0.00    +0.059 C 
ATOM     29  C   UNL     1      36.832 -19.748 -20.556  0.00  0.00    +0.030 C 
ATOM     30  C   UNL     1      36.869 -18.937 -21.690  0.00  0.00    +0.142 C 
ENDBRANCH  22  25
ENDBRANCH  19  22
ENDBRANCH  16  20
BRANCH  15  31
ATOM     31  O   UNL     1      31.666 -23.587 -14.395  0.00  0.00    -0.502 OA
ATOM     32  H   UNL     1      31.168 -22.806 -14.259  0.00  0.00    +0.292 HD
ENDBRANCH  15  31
TORSDOF 4
ENDMDL
MODEL 8
REMARK VINA RESULT:      -9.9      4.971      8.573
REMARK  Name = 54726191
REMARK  4 active torsions:
REMARK  status: ('A' for Active; 'I' for Inactive)
REMARK    1  A    between atoms: C_15  and  O_31
REMARK    2  A    between atoms: C_16  and  C_20
REMARK    3  A    between atoms: N_19  and  C_22
REMARK    4  A    between atoms: C_22  and  C_25
REMARK                            x       y       z     vdW  Elec       q    Type
REMARK                         _______ _______ _______ _____ _____    ______ ____
ROOT
ATOM      1  O   UNL     1      34.816 -18.033 -20.628  0.00  0.00    -0.336 OA
ATOM      2  O   UNL     1      35.343 -15.901 -24.780  0.00  0.00    -0.268 OA
ATOM      3  O   UNL     1      32.434 -11.765 -24.193  0.00  0.00    -0.283 OA
ATOM      4  N   UNL     1      34.889 -17.074 -22.837  0.00  0.00    -0.253 N 
ATOM      5  N   UNL     1      33.732 -14.740 -21.765  0.00  0.00    -0.275 N 
ATOM      6  C   UNL     1      34.199 -17.119 -21.543  0.00  0.00    +0.215 C 
ATOM      7  C   UNL     1      35.362 -18.345 -23.414  0.00  0.00    +0.080 C 
ATOM      8  C   UNL     1      35.913 -19.280 -22.337  0.00  0.00    +0.052 C 
ATOM      9  C   UNL     1      34.253 -15.759 -20.866  0.00  0.00    +0.147 C 
ATOM     10  C   UNL     1      34.972 -19.345 -21.151  0.00  0.00    +0.146 C 
ATOM     11  C   UNL     1      34.817 -15.948 -23.668  0.00  0.00    +0.267 C 
ATOM     12  C   UNL     1      34.028 -14.776 -23.131  0.00  0.00    +0.143 C 
ATOM     13  C   UNL     1      34.246 -19.014 -24.227  0.00  0.00    +0.022 C 
ATOM     14  C   UNL     1      33.017 -13.662 -21.262  0.00  0.00    +0.074 C 
ATOM     15  C   UNL     1      33.621 -13.815 -23.989  0.00  0.00    +0.191 C 
ATOM     16  C   UNL     1      32.554 -12.641 -21.993  0.00  0.00    +0.110 C 
ATOM     17  C   UNL     1      32.831 -12.660 -23.453  0.00  0.00    +0.236 C 
ENDROOT
BRANCH  16  20
ATOM     18  O   UNL     1      30.794 -11.822 -20.670  0.00  0.00    -0.270 OA
ATOM     19  N   UNL     1      32.375 -10.323 -21.503  0.00  0.00    -0.297 N 
ATOM     20  C   UNL     1      31.811 -11.576 -21.321  0.00  0.00    +0.251 C 
ATOM     21  H   UNL     1      33.193 -10.255 -22.047  0.00  0.00    +0.150 HD
BRANCH  19  22
ATOM     22  C   UNL     1      31.824  -9.112 -20.939  0.00  0.00    +0.119 C 
BRANCH  22  25
ATOM     23  F   UNL     1      32.282  -6.371 -20.404  0.00  0.00    -0.204 F 
ATOM     24  F   UNL     1      31.170  -5.086 -24.820  0.00  0.00    -0.204 F 
ATOM     25  C   UNL     1      31.650  -8.038 -21.972  0.00  0.00    +0.025 C 
ATOM     26  C   UNL     1      31.893  -6.704 -21.642  0.00  0.00    +0.140 C 
ATOM     27  C   UNL     1      31.246  -8.374 -23.264  0.00  0.00    +0.002 C 
ATOM     28  C   UNL     1      31.731  -5.707 -22.605  0.00  0.00    +0.059 C 
ATOM     29  C   UNL     1      31.084  -7.377 -24.226  0.00  0.00    +0.030 C 
ATOM     30  C   UNL     1      31.326  -6.043 -23.897  0.00  0.00    +0.142 C 
ENDBRANCH  22  25
ENDBRANCH  19  22
ENDBRANCH  16  20
BRANCH  15  31
ATOM     31  O   UNL     1      33.870 -13.831 -25.343  0.00  0.00    -0.502 OA
ATOM     32  H   UNL     1      33.372 -13.285 -25.918  0.00  0.00    +0.292 HD
ENDBRANCH  15  31
TORSDOF 4
ENDMDL
MODEL 9
REMARK VINA RESULT:      -9.8      5.584     11.291
REMARK  Name = 54726191
REMARK  4 active torsions:
REMARK  status: ('A' for Active; 'I' for Inactive)
REMARK    1  A    between atoms: C_15  and  O_31
REMARK    2  A    between atoms: C_16  and  C_20
REMARK    3  A    between atoms: N_19  and  C_22
REMARK    4  A    between atoms: C_22  and  C_25
REMARK                            x       y       z     vdW  Elec       q    Type
REMARK                         _______ _______ _______ _____ _____    ______ ____
ROOT
ATOM      1  O   UNL     1      31.661  -8.164 -19.597  0.00  0.00    -0.336 OA
ATOM      2  O   UNL     1      32.000  -9.175 -24.172  0.00  0.00    -0.268 OA
ATOM      3  O   UNL     1      33.364 -14.077 -24.047  0.00  0.00    -0.283 OA
ATOM      4  N   UNL     1      32.075  -8.609 -21.928  0.00  0.00    -0.253 N 
ATOM      5  N   UNL     1      32.161 -11.353 -21.298  0.00  0.00    -0.275 N 
ATOM      6  C   UNL     1      32.284  -9.042 -20.542  0.00  0.00    +0.215 C 
ATOM      7  C   UNL     1      32.168  -7.168 -22.226  0.00  0.00    +0.080 C 
ATOM      8  C   UNL     1      31.557  -6.323 -21.109  0.00  0.00    +0.052 C 
ATOM      9  C   UNL     1      31.657 -10.407 -20.313  0.00  0.00    +0.147 C 
ATOM     10  C   UNL     1      32.034  -6.801 -19.752  0.00  0.00    +0.146 C 
ATOM     11  C   UNL     1      32.121  -9.517 -22.996  0.00  0.00    +0.267 C 
ATOM     12  C   UNL     1      32.353 -10.963 -22.626  0.00  0.00    +0.143 C 
ATOM     13  C   UNL     1      33.624  -6.771 -22.503  0.00  0.00    +0.022 C 
ATOM     14  C   UNL     1      32.361 -12.683 -20.952  0.00  0.00    +0.074 C 
ATOM     15  C   UNL     1      32.756 -11.825 -23.586  0.00  0.00    +0.191 C 
ATOM     16  C   UNL     1      32.756 -13.642 -21.797  0.00  0.00    +0.110 C 
ATOM     17  C   UNL     1      32.992 -13.258 -23.213  0.00  0.00    +0.236 C 
ENDROOT
BRANCH  16  20
ATOM     18  O   UNL     1      31.960 -15.681 -20.944  0.00  0.00    -0.270 OA
ATOM     19  N   UNL     1      34.256 -15.398 -21.238  0.00  0.00    -0.297 N 
ATOM     20  C   UNL     1      32.930 -15.001 -21.285  0.00  0.00    +0.251 C 
ATOM     21  H   UNL     1      34.944 -14.762 -21.540  0.00  0.00    +0.150 HD
BRANCH  19  22
ATOM     22  C   UNL     1      34.683 -16.697 -20.768  0.00  0.00    +0.119 C 
BRANCH  22  25
ATOM     23  F   UNL     1      34.557 -19.493 -20.356  0.00  0.00    -0.204 F 
ATOM     24  F   UNL     1      35.075 -20.430 -24.965  0.00  0.00    -0.204 F 
ATOM     25  C   UNL     1      34.787 -17.693 -21.886  0.00  0.00    +0.025 C 
ATOM     26  C   UNL     1      34.718 -19.060 -21.613  0.00  0.00    +0.140 C 
ATOM     27  C   UNL     1      34.954 -17.251 -23.199  0.00  0.00    +0.002 C 
ATOM     28  C   UNL     1      34.815 -19.984 -22.654  0.00  0.00    +0.059 C 
ATOM     29  C   UNL     1      35.051 -18.176 -24.239  0.00  0.00    +0.030 C 
ATOM     30  C   UNL     1      34.982 -19.542 -23.967  0.00  0.00    +0.142 C 
ENDBRANCH  22  25
ENDBRANCH  19  22
ENDBRANCH  16  20
BRANCH  15  31
ATOM     31  O   UNL     1      32.981 -11.472 -24.898  0.00  0.00    -0.502 OA
ATOM     32  H   UNL     1      33.233 -12.124 -25.522  0.00  0.00    +0.292 HD
ENDBRANCH  15  31
TORSDOF 4
ENDMDL
