MODEL 1
REMARK VINA RESULT:      -5.7      0.000      0.000
REMARK  Name = 1682
REMARK  6 active torsions:
REMARK  status: ('A' for Active; 'I' for Inactive)
REMARK    1  A    between atoms: P_1  and  O_3
REMARK    2  A    between atoms: P_1  and  O_5
REMARK    3  A    between atoms: P_1  and  C_7
REMARK    4  A    between atoms: C_7  and  C_8
REMARK    5  A    between atoms: C_8  and  C_10
REMARK    6  A    between atoms: C_10  and  O_11
REMARK                            x       y       z     vdW  Elec       q    Type
REMARK                         _______ _______ _______ _____ _____    ______ ____
ROOT
ATOM      1  P   UNL     1      36.796 -25.908 -14.971  0.00  0.00    +0.337 P 
ATOM      2  O   UNL     1      35.553 -25.208 -15.394  0.00  0.00    -0.258 OA
ENDROOT
BRANCH   1   3
ATOM      3  O   UNL     1      36.739 -26.664 -13.550  0.00  0.00    -0.324 OA
ATOM      4  H   UNL     1      37.094 -27.561 -13.647  0.00  0.00    +0.220 HD
ENDBRANCH   1   3
BRANCH   1   5
ATOM      5  O   UNL     1      37.364 -27.024 -15.982  0.00  0.00    -0.324 OA
ATOM      6  H   UNL     1      36.622 -27.503 -16.385  0.00  0.00    +0.220 HD
ENDBRANCH   1   5
BRANCH   1   7
ATOM      7  C   UNL     1      38.215 -24.807 -14.770  0.00  0.00    +0.127 C 
BRANCH   7   8
ATOM      8  C   UNL     1      39.269 -25.392 -13.842  0.00  0.00    +0.122 C 
BRANCH   8  10
ATOM      9  O   UNL     1      41.290 -26.719 -14.102  0.00  0.00    -0.250 OA
ATOM     10  C   UNL     1      40.395 -26.051 -14.600  0.00  0.00    +0.314 C 
BRANCH  10  11
ATOM     11  O   UNL     1      40.300 -25.814 -15.935  0.00  0.00    -0.480 OA
ATOM     12  H   UNL     1      40.156 -26.525 -16.528  0.00  0.00    +0.295 HD
ENDBRANCH  10  11
ENDBRANCH   8  10
ENDBRANCH   7   8
ENDBRANCH   1   7
TORSDOF 6
ENDMDL
MODEL 2
REMARK VINA RESULT:      -5.6      0.968      1.720
REMARK  Name = 1682
REMARK  6 active torsions:
REMARK  status: ('A' for Active; 'I' for Inactive)
REMARK    1  A    between atoms: P_1  and  O_3
REMARK    2  A    between atoms: P_1  and  O_5
REMARK    3  A    between atoms: P_1  and  C_7
REMARK    4  A    between atoms: C_7  and  C_8
REMARK    5  A    between atoms: C_8  and  C_10
REMARK    6  A    between atoms: C_10  and  O_11
REMARK                            x       y       z     vdW  Elec       q    Type
REMARK                         _______ _______ _______ _____ _____    ______ ____
ROOT
ATOM      1  P   UNL     1      36.748 -25.886 -14.949  0.00  0.00    +0.337 P 
ATOM      2  O   UNL     1      36.486 -27.029 -15.863  0.00  0.00    -0.258 OA
ENDROOT
BRANCH   1   3
ATOM      3  O   UNL     1      37.280 -24.530 -15.637  0.00  0.00    -0.324 OA
ATOM      4  H   UNL     1      38.239 -24.459 -15.511  0.00  0.00    +0.220 HD
ENDBRANCH   1   3
BRANCH   1   5
ATOM      5  O   UNL     1      35.509 -25.401 -14.043  0.00  0.00    -0.324 OA
ATOM      6  H   UNL     1      35.735 -25.500 -13.105  0.00  0.00    +0.220 HD
ENDBRANCH   1   5
BRANCH   1   7
ATOM      7  C   UNL     1      38.024 -26.222 -13.714  0.00  0.00    +0.127 C 
BRANCH   7   8
ATOM      8  C   UNL     1      39.241 -25.327 -13.886  0.00  0.00    +0.122 C 
BRANCH   8  10
ATOM      9  O   UNL     1      41.230 -26.703 -14.139  0.00  0.00    -0.250 OA
ATOM     10  C   UNL     1      40.354 -26.014 -14.641  0.00  0.00    +0.314 C 
BRANCH  10  11
ATOM     11  O   UNL     1      40.268 -25.776 -15.976  0.00  0.00    -0.480 OA
ATOM     12  H   UNL     1      39.453 -25.897 -16.423  0.00  0.00    +0.295 HD
ENDBRANCH  10  11
ENDBRANCH   8  10
ENDBRANCH   7   8
ENDBRANCH   1   7
TORSDOF 6
ENDMDL
MODEL 3
REMARK VINA RESULT:      -5.3      2.567      3.022
REMARK  Name = 1682
REMARK  6 active torsions:
REMARK  status: ('A' for Active; 'I' for Inactive)
REMARK    1  A    between atoms: P_1  and  O_3
REMARK    2  A    between atoms: P_1  and  O_5
REMARK    3  A    between atoms: P_1  and  C_7
REMARK    4  A    between atoms: C_7  and  C_8
REMARK    5  A    between atoms: C_8  and  C_10
REMARK    6  A    between atoms: C_10  and  O_11
REMARK                            x       y       z     vdW  Elec       q    Type
REMARK                         _______ _______ _______ _____ _____    ______ ____
ROOT
ATOM      1  P   UNL     1      37.783 -24.080 -12.285  0.00  0.00    +0.337 P 
ATOM      2  O   UNL     1      36.950 -23.375 -13.296  0.00  0.00    -0.258 OA
ENDROOT
BRANCH   1   3
ATOM      3  O   UNL     1      39.042 -23.262 -11.703  0.00  0.00    -0.324 OA
ATOM      4  H   UNL     1      39.788 -23.868 -11.572  0.00  0.00    +0.220 HD
ENDBRANCH   1   3
BRANCH   1   5
ATOM      5  O   UNL     1      37.016 -24.601 -10.969  0.00  0.00    -0.324 OA
ATOM      6  H   UNL     1      36.545 -23.860 -10.555  0.00  0.00    +0.220 HD
ENDBRANCH   1   5
BRANCH   1   7
ATOM      7  C   UNL     1      38.555 -25.591 -12.908  0.00  0.00    +0.127 C 
BRANCH   7   8
ATOM      8  C   UNL     1      38.691 -25.584 -14.423  0.00  0.00    +0.122 C 
BRANCH   8  10
ATOM      9  O   UNL     1      40.968 -24.753 -14.236  0.00  0.00    -0.250 OA
ATOM     10  C   UNL     1      40.115 -25.360 -14.868  0.00  0.00    +0.314 C 
BRANCH  10  11
ATOM     11  O   UNL     1      40.351 -25.924 -16.081  0.00  0.00    -0.480 OA
ATOM     12  H   UNL     1      40.764 -26.764 -16.136  0.00  0.00    +0.295 HD
ENDBRANCH  10  11
ENDBRANCH   8  10
ENDBRANCH   7   8
ENDBRANCH   1   7
TORSDOF 6
ENDMDL
MODEL 4
REMARK VINA RESULT:      -5.3      2.443      3.319
REMARK  Name = 1682
REMARK  6 active torsions:
REMARK  status: ('A' for Active; 'I' for Inactive)
REMARK    1  A    between atoms: P_1  and  O_3
REMARK    2  A    between atoms: P_1  and  O_5
REMARK    3  A    between atoms: P_1  and  C_7
REMARK    4  A    between atoms: C_7  and  C_8
REMARK    5  A    between atoms: C_8  and  C_10
REMARK    6  A    between atoms: C_10  and  O_11
REMARK                            x       y       z     vdW  Elec       q    Type
REMARK                         _______ _______ _______ _____ _____    ______ ____
ROOT
ATOM      1  P   UNL     1      37.198 -26.326 -14.564  0.00  0.00    +0.337 P 
ATOM      2  O   UNL     1      36.230 -26.635 -15.651  0.00  0.00    -0.258 OA
ENDROOT
BRANCH   1   3
ATOM      3  O   UNL     1      36.756 -26.750 -13.075  0.00  0.00    -0.324 OA
ATOM      4  H   UNL     1      36.102 -27.465 -13.124  0.00  0.00    +0.220 HD
ENDBRANCH   1   3
BRANCH   1   5
ATOM      5  O   UNL     1      38.672 -26.953 -14.725  0.00  0.00    -0.324 OA
ATOM      6  H   UNL     1      39.329 -26.239 -14.724  0.00  0.00    +0.220 HD
ENDBRANCH   1   5
BRANCH   1   7
ATOM      7  C   UNL     1      37.543 -24.561 -14.380  0.00  0.00    +0.127 C 
BRANCH   7   8
ATOM      8  C   UNL     1      36.752 -23.937 -13.242  0.00  0.00    +0.122 C 
BRANCH   8  10
ATOM      9  O   UNL     1      38.157 -22.472 -11.901  0.00  0.00    -0.250 OA
ATOM     10  C   UNL     1      37.632 -23.563 -12.073  0.00  0.00    +0.314 C 
BRANCH  10  11
ATOM     11  O   UNL     1      37.777 -24.603 -11.210  0.00  0.00    -0.480 OA
ATOM     12  H   UNL     1      37.181 -24.705 -10.494  0.00  0.00    +0.295 HD
ENDBRANCH  10  11
ENDBRANCH   8  10
ENDBRANCH   7   8
ENDBRANCH   1   7
TORSDOF 6
ENDMDL
MODEL 5
REMARK VINA RESULT:      -5.2      2.559      3.771
REMARK  Name = 1682
REMARK  6 active torsions:
REMARK  status: ('A' for Active; 'I' for Inactive)
REMARK    1  A    between atoms: P_1  and  O_3
REMARK    2  A    between atoms: P_1  and  O_5
REMARK    3  A    between atoms: P_1  and  C_7
REMARK    4  A    between atoms: C_7  and  C_8
REMARK    5  A    between atoms: C_8  and  C_10
REMARK    6  A    between atoms: C_10  and  O_11
REMARK                            x       y       z     vdW  Elec       q    Type
REMARK                         _______ _______ _______ _____ _____    ______ ____
ROOT
ATOM      1  P   UNL     1      37.285 -26.375 -14.193  0.00  0.00    +0.337 P 
ATOM      2  O   UNL     1      38.438 -27.173 -14.690  0.00  0.00    -0.258 OA
ENDROOT
BRANCH   1   3
ATOM      3  O   UNL     1      35.913 -26.512 -15.023  0.00  0.00    -0.324 OA
ATOM      4  H   UNL     1      35.868 -27.392 -15.429  0.00  0.00    +0.220 HD
ENDBRANCH   1   3
BRANCH   1   5
ATOM      5  O   UNL     1      36.844 -26.639 -12.667  0.00  0.00    -0.324 OA
ATOM      6  H   UNL     1      37.087 -25.873 -12.123  0.00  0.00    +0.220 HD
ENDBRANCH   1   5
BRANCH   1   7
ATOM      7  C   UNL     1      37.576 -24.591 -14.211  0.00  0.00    +0.127 C 
BRANCH   7   8
ATOM      8  C   UNL     1      36.730 -23.861 -13.179  0.00  0.00    +0.122 C 
BRANCH   8  10
ATOM      9  O   UNL     1      38.188 -22.384 -11.911  0.00  0.00    -0.250 OA
ATOM     10  C   UNL     1      37.541 -23.419 -11.985  0.00  0.00    +0.314 C 
BRANCH  10  11
ATOM     11  O   UNL     1      37.469 -24.324 -10.974  0.00  0.00    -0.480 OA
ATOM     12  H   UNL     1      38.183 -24.416 -10.374  0.00  0.00    +0.295 HD
ENDBRANCH  10  11
ENDBRANCH   8  10
ENDBRANCH   7   8
ENDBRANCH   1   7
TORSDOF 6
ENDMDL
MODEL 6
REMARK VINA RESULT:      -5.2      2.664      4.135
REMARK  Name = 1682
REMARK  6 active torsions:
REMARK  status: ('A' for Active; 'I' for Inactive)
REMARK    1  A    between atoms: P_1  and  O_3
REMARK    2  A    between atoms: P_1  and  O_5
REMARK    3  A    between atoms: P_1  and  C_7
REMARK    4  A    between atoms: C_7  and  C_8
REMARK    5  A    between atoms: C_8  and  C_10
REMARK    6  A    between atoms: C_10  and  O_11
REMARK                            x       y       z     vdW  Elec       q    Type
REMARK                         _______ _______ _______ _____ _____    ______ ____
ROOT
ATOM      1  P   UNL     1      39.483 -25.486 -14.932  0.00  0.00    +0.337 P 
ATOM      2  O   UNL     1      40.832 -26.055 -15.192  0.00  0.00    -0.258 OA
ENDROOT
BRANCH   1   3
ATOM      3  O   UNL     1      39.202 -24.017 -15.530  0.00  0.00    -0.324 OA
ATOM      4  H   UNL     1      39.835 -23.388 -15.149  0.00  0.00    +0.220 HD
ENDBRANCH   1   3
BRANCH   1   5
ATOM      5  O   UNL     1      38.231 -26.359 -15.446  0.00  0.00    -0.324 OA
ATOM      6  H   UNL     1      37.607 -26.491 -14.715  0.00  0.00    +0.220 HD
ENDBRANCH   1   5
BRANCH   1   7
ATOM      7  C   UNL     1      39.112 -25.270 -13.176  0.00  0.00    +0.127 C 
BRANCH   7   8
ATOM      8  C   UNL     1      37.743 -24.647 -12.951  0.00  0.00    +0.122 C 
BRANCH   8  10
ATOM      9  O   UNL     1      38.383 -22.691 -11.654  0.00  0.00    -0.250 OA
ATOM     10  C   UNL     1      37.728 -23.718 -11.761  0.00  0.00    +0.314 C 
BRANCH  10  11
ATOM     11  O   UNL     1      36.880 -24.162 -10.796  0.00  0.00    -0.480 OA
ATOM     12  H   UNL     1      35.963 -24.239 -10.977  0.00  0.00    +0.295 HD
ENDBRANCH  10  11
ENDBRANCH   8  10
ENDBRANCH   7   8
ENDBRANCH   1   7
TORSDOF 6
ENDMDL
MODEL 7
REMARK VINA RESULT:      -5.1      2.840      3.832
REMARK  Name = 1682
REMARK  6 active torsions:
REMARK  status: ('A' for Active; 'I' for Inactive)
REMARK    1  A    between atoms: P_1  and  O_3
REMARK    2  A    between atoms: P_1  and  O_5
REMARK    3  A    between atoms: P_1  and  C_7
REMARK    4  A    between atoms: C_7  and  C_8
REMARK    5  A    between atoms: C_8  and  C_10
REMARK    6  A    between atoms: C_10  and  O_11
REMARK                            x       y       z     vdW  Elec       q    Type
REMARK                         _______ _______ _______ _____ _____    ______ ____
ROOT
ATOM      1  P   UNL     1      36.190 -24.284 -11.621  0.00  0.00    +0.337 P 
ATOM      2  O   UNL     1      35.346 -24.981 -10.613  0.00  0.00    -0.258 OA
ENDROOT
BRANCH   1   3
ATOM      3  O   UNL     1      35.406 -23.423 -12.733  0.00  0.00    -0.324 OA
ATOM      4  H   UNL     1      34.458 -23.621 -12.685  0.00  0.00    +0.220 HD
ENDBRANCH   1   3
BRANCH   1   5
ATOM      5  O   UNL     1      37.291 -23.262 -11.042  0.00  0.00    -0.324 OA
ATOM      6  H   UNL     1      37.515 -22.609 -11.723  0.00  0.00    +0.220 HD
ENDBRANCH   1   5
BRANCH   1   7
ATOM      7  C   UNL     1      37.189 -25.404 -12.628  0.00  0.00    +0.127 C 
BRANCH   7   8
ATOM      8  C   UNL     1      36.669 -25.514 -14.053  0.00  0.00    +0.122 C 
BRANCH   8  10
ATOM      9  O   UNL     1      38.555 -26.950 -14.596  0.00  0.00    -0.250 OA
ATOM     10  C   UNL     1      37.442 -26.523 -14.867  0.00  0.00    +0.314 C 
BRANCH  10  11
ATOM     11  O   UNL     1      36.742 -26.916 -15.963  0.00  0.00    -0.480 OA
ATOM     12  H   UNL     1      37.130 -27.505 -16.581  0.00  0.00    +0.295 HD
ENDBRANCH  10  11
ENDBRANCH   8  10
ENDBRANCH   7   8
ENDBRANCH   1   7
TORSDOF 6
ENDMDL
MODEL 8
REMARK VINA RESULT:      -5.1     10.585     11.517
REMARK  Name = 1682
REMARK  6 active torsions:
REMARK  status: ('A' for Active; 'I' for Inactive)
REMARK    1  A    between atoms: P_1  and  O_3
REMARK    2  A    between atoms: P_1  and  O_5
REMARK    3  A    between atoms: P_1  and  C_7
REMARK    4  A    between atoms: C_7  and  C_8
REMARK    5  A    between atoms: C_8  and  C_10
REMARK    6  A    between atoms: C_10  and  O_11
REMARK                            x       y       z     vdW  Elec       q    Type
REMARK                         _______ _______ _______ _____ _____    ______ ____
ROOT
ATOM      1  P   UNL     1      42.323 -16.364 -17.675  0.00  0.00    +0.337 P 
ATOM      2  O   UNL     1      42.659 -16.538 -19.114  0.00  0.00    -0.258 OA
ENDROOT
BRANCH   1   3
ATOM      3  O   UNL     1      41.443 -17.533 -17.003  0.00  0.00    -0.324 OA
ATOM      4  H   UNL     1      40.654 -17.693 -17.543  0.00  0.00    +0.220 HD
ENDBRANCH   1   3
BRANCH   1   5
ATOM      5  O   UNL     1      43.569 -16.188 -16.670  0.00  0.00    -0.324 OA
ATOM      6  H   UNL     1      44.253 -15.646 -17.094  0.00  0.00    +0.220 HD
ENDBRANCH   1   5
BRANCH   1   7
ATOM      7  C   UNL     1      41.337 -14.888 -17.334  0.00  0.00    +0.127 C 
BRANCH   7   8
ATOM      8  C   UNL     1      41.749 -14.209 -16.037  0.00  0.00    +0.122 C 
BRANCH   8  10
ATOM      9  O   UNL     1      40.660 -13.872 -13.889  0.00  0.00    -0.250 OA
ATOM     10  C   UNL     1      40.819 -14.546 -14.896  0.00  0.00    +0.314 C 
BRANCH  10  11
ATOM     11  O   UNL     1      40.159 -15.712 -15.122  0.00  0.00    -0.480 OA
ATOM     12  H   UNL     1      39.453 -15.741 -15.738  0.00  0.00    +0.295 HD
ENDBRANCH  10  11
ENDBRANCH   8  10
ENDBRANCH   7   8
ENDBRANCH   1   7
TORSDOF 6
ENDMDL
MODEL 9
REMARK VINA RESULT:      -5.0      2.968      3.849
REMARK  Name = 1682
REMARK  6 active torsions:
REMARK  status: ('A' for Active; 'I' for Inactive)
REMARK    1  A    between atoms: P_1  and  O_3
REMARK    2  A    between atoms: P_1  and  O_5
REMARK    3  A    between atoms: P_1  and  C_7
REMARK    4  A    between atoms: C_7  and  C_8
REMARK    5  A    between atoms: C_8  and  C_10
REMARK    6  A    between atoms: C_10  and  O_11
REMARK                            x       y       z     vdW  Elec       q    Type
REMARK                         _______ _______ _______ _____ _____    ______ ____
ROOT
ATOM      1  P   UNL     1      37.141 -23.540 -11.943  0.00  0.00    +0.337 P 
ATOM      2  O   UNL     1      38.183 -22.480 -11.892  0.00  0.00    -0.258 OA
ENDROOT
BRANCH   1   3
ATOM      3  O   UNL     1      36.664 -24.139 -10.526  0.00  0.00    -0.324 OA
ATOM      4  H   UNL     1      36.021 -23.536 -10.121  0.00  0.00    +0.220 HD
ENDBRANCH   1   3
BRANCH   1   5
ATOM      5  O   UNL     1      35.765 -23.151 -12.683  0.00  0.00    -0.324 OA
ATOM      6  H   UNL     1      35.666 -22.186 -12.694  0.00  0.00    +0.220 HD
ENDBRANCH   1   5
BRANCH   1   7
ATOM      7  C   UNL     1      37.658 -25.023 -12.838  0.00  0.00    +0.127 C 
BRANCH   7   8
ATOM      8  C   UNL     1      36.686 -25.391 -13.949  0.00  0.00    +0.122 C 
BRANCH   8  10
ATOM      9  O   UNL     1      38.252 -27.122 -14.632  0.00  0.00    -0.250 OA
ATOM     10  C   UNL     1      37.196 -26.530 -14.799  0.00  0.00    +0.314 C 
BRANCH  10  11
ATOM     11  O   UNL     1      36.323 -26.834 -15.795  0.00  0.00    -0.480 OA
ATOM     12  H   UNL     1      36.482 -27.573 -16.348  0.00  0.00    +0.295 HD
ENDBRANCH  10  11
ENDBRANCH   8  10
ENDBRANCH   7   8
ENDBRANCH   1   7
TORSDOF 6
ENDMDL
