MODEL 1
REMARK VINA RESULT:      -9.4      0.000      0.000
REMARK  Name = 56260
REMARK  3 active torsions:
REMARK  status: ('A' for Active; 'I' for Inactive)
REMARK    1  A    between atoms: N_2  and  C_8
REMARK    2  A    between atoms: C_3  and  C_14
REMARK    3  A    between atoms: C_14  and  C_15
REMARK                            x       y       z     vdW  Elec       q    Type
REMARK                         _______ _______ _______ _____ _____    ______ ____
ROOT
ATOM      1  O   UNL     1      35.398 -16.941 -20.465  0.00  0.00    -0.275 OA
ATOM      2  N   UNL     1      34.302 -16.533 -22.471  0.00  0.00    -0.298 N 
ATOM      3  C   UNL     1      34.968 -17.331 -21.547  0.00  0.00    +0.227 C 
ATOM      4  H   UNL     1      33.995 -16.942 -23.313  0.00  0.00    +0.150 HD
ENDROOT
BRANCH   2   8
ATOM      5  O   UNL     1      32.228 -15.880 -20.831  0.00  0.00    -0.273 OA
ATOM      6  O   UNL     1      31.777 -11.698 -22.705  0.00  0.00    -0.275 OA
ATOM      7  N   UNL     1      32.023 -13.808 -21.810  0.00  0.00    -0.254 N 
ATOM      8  C   UNL     1      34.040 -15.136 -22.248  0.00  0.00    +0.149 C 
ATOM      9  C   UNL     1      34.085 -14.353 -23.551  0.00  0.00    +0.039 C 
ATOM     10  C   UNL     1      33.772 -12.894 -23.272  0.00  0.00    +0.088 C 
ATOM     11  C   UNL     1      32.682 -15.015 -21.580  0.00  0.00    +0.246 C 
ATOM     12  C   UNL     1      32.431 -12.736 -22.597  0.00  0.00    +0.228 C 
ATOM     13  H   UNL     1      31.157 -13.700 -21.356  0.00  0.00    +0.158 HD
ENDBRANCH   2   8
BRANCH   3  14
ATOM     14  C   UNL     1      35.101 -18.761 -22.035  0.00  0.00    +0.111 C 
BRANCH  14  15
ATOM     15  C   UNL     1      34.634 -19.780 -21.031  0.00  0.00    -0.013 C 
ATOM     16  C   UNL     1      35.564 -20.602 -20.409  0.00  0.00    -0.004 C 
ATOM     17  C   UNL     1      33.281 -19.885 -20.741  0.00  0.00    -0.004 C 
ATOM     18  C   UNL     1      35.132 -21.547 -19.478  0.00  0.00    -0.000 C 
ATOM     19  C   UNL     1      32.849 -20.830 -19.811  0.00  0.00    -0.000 C 
ATOM     20  C   UNL     1      33.774 -21.661 -19.180  0.00  0.00    -0.000 C 
ENDBRANCH  14  15
ENDBRANCH   3  14
TORSDOF 3
ENDMDL
MODEL 2
REMARK VINA RESULT:      -9.1      2.049      2.327
REMARK  Name = 56260
REMARK  3 active torsions:
REMARK  status: ('A' for Active; 'I' for Inactive)
REMARK    1  A    between atoms: N_2  and  C_8
REMARK    2  A    between atoms: C_3  and  C_14
REMARK    3  A    between atoms: C_14  and  C_15
REMARK                            x       y       z     vdW  Elec       q    Type
REMARK                         _______ _______ _______ _____ _____    ______ ____
ROOT
ATOM      1  O   UNL     1      34.723 -16.593 -20.882  0.00  0.00    -0.275 OA
ATOM      2  N   UNL     1      34.813 -17.170 -23.129  0.00  0.00    -0.298 N 
ATOM      3  C   UNL     1      35.115 -17.332 -21.781  0.00  0.00    +0.227 C 
ATOM      4  H   UNL     1      35.177 -17.819 -23.775  0.00  0.00    +0.150 HD
ENDROOT
BRANCH   2   8
ATOM      5  O   UNL     1      33.834 -17.382 -25.661  0.00  0.00    -0.273 OA
ATOM      6  O   UNL     1      33.279 -12.828 -26.062  0.00  0.00    -0.275 OA
ATOM      7  N   UNL     1      33.593 -15.100 -25.827  0.00  0.00    -0.254 N 
ATOM      8  C   UNL     1      33.991 -16.096 -23.620  0.00  0.00    +0.149 C 
ATOM      9  C   UNL     1      34.599 -14.742 -23.290  0.00  0.00    +0.039 C 
ATOM     10  C   UNL     1      33.718 -13.643 -23.854  0.00  0.00    +0.088 C 
ATOM     11  C   UNL     1      33.832 -16.277 -25.119  0.00  0.00    +0.246 C 
ATOM     12  C   UNL     1      33.527 -13.797 -25.344  0.00  0.00    +0.228 C 
ATOM     13  H   UNL     1      33.453 -15.205 -26.796  0.00  0.00    +0.158 HD
ENDBRANCH   2   8
BRANCH   3  14
ATOM     14  C   UNL     1      35.993 -18.546 -21.546  0.00  0.00    +0.111 C 
BRANCH  14  15
ATOM     15  C   UNL     1      35.293 -19.654 -20.806  0.00  0.00    -0.013 C 
ATOM     16  C   UNL     1      36.044 -20.600 -20.121  0.00  0.00    -0.004 C 
ATOM     17  C   UNL     1      33.906 -19.715 -20.817  0.00  0.00    -0.004 C 
ATOM     18  C   UNL     1      35.396 -21.626 -19.435  0.00  0.00    -0.000 C 
ATOM     19  C   UNL     1      33.258 -20.742 -20.130  0.00  0.00    -0.000 C 
ATOM     20  C   UNL     1      34.003 -21.698 -19.440  0.00  0.00    -0.000 C 
ENDBRANCH  14  15
ENDBRANCH   3  14
TORSDOF 3
ENDMDL
MODEL 3
REMARK VINA RESULT:      -9.1      2.834      6.761
REMARK  Name = 56260
REMARK  3 active torsions:
REMARK  status: ('A' for Active; 'I' for Inactive)
REMARK    1  A    between atoms: N_2  and  C_8
REMARK    2  A    between atoms: C_3  and  C_14
REMARK    3  A    between atoms: C_14  and  C_15
REMARK                            x       y       z     vdW  Elec       q    Type
REMARK                         _______ _______ _______ _____ _____    ______ ____
ROOT
ATOM      1  O   UNL     1      34.585 -19.041 -23.434  0.00  0.00    -0.275 OA
ATOM      2  N   UNL     1      35.021 -18.927 -21.156  0.00  0.00    -0.298 N 
ATOM      3  C   UNL     1      34.984 -18.422 -22.451  0.00  0.00    +0.227 C 
ATOM      4  H   UNL     1      35.360 -18.350 -20.433  0.00  0.00    +0.150 HD
ENDROOT
BRANCH   2   8
ATOM      5  O   UNL     1      32.373 -19.298 -20.640  0.00  0.00    -0.273 OA
ATOM      6  O   UNL     1      33.161 -23.115 -18.188  0.00  0.00    -0.275 OA
ATOM      7  N   UNL     1      32.814 -21.188 -19.404  0.00  0.00    -0.254 N 
ATOM      8  C   UNL     1      34.584 -20.258 -20.826  0.00  0.00    +0.149 C 
ATOM      9  C   UNL     1      35.520 -20.912 -19.822  0.00  0.00    +0.039 C 
ATOM     10  C   UNL     1      35.004 -22.297 -19.480  0.00  0.00    +0.088 C 
ATOM     11  C   UNL     1      33.171 -20.164 -20.280  0.00  0.00    +0.246 C 
ATOM     12  C   UNL     1      33.593 -22.244 -18.943  0.00  0.00    +0.228 C 
ATOM     13  H   UNL     1      31.889 -21.161 -19.068  0.00  0.00    +0.158 HD
ENDBRANCH   2   8
BRANCH   3  14
ATOM     14  C   UNL     1      35.498 -16.996 -22.510  0.00  0.00    +0.111 C 
BRANCH  14  15
ATOM     15  C   UNL     1      34.444 -15.969 -22.193  0.00  0.00    -0.013 C 
ATOM     16  C   UNL     1      33.832 -15.276 -23.228  0.00  0.00    -0.004 C 
ATOM     17  C   UNL     1      34.099 -15.729 -20.871  0.00  0.00    -0.004 C 
ATOM     18  C   UNL     1      32.855 -14.324 -22.934  0.00  0.00    -0.000 C 
ATOM     19  C   UNL     1      33.122 -14.777 -20.577  0.00  0.00    -0.000 C 
ATOM     20  C   UNL     1      32.501 -14.074 -21.609  0.00  0.00    -0.000 C 
ENDBRANCH  14  15
ENDBRANCH   3  14
TORSDOF 3
ENDMDL
MODEL 4
REMARK VINA RESULT:      -9.0      1.586      1.914
REMARK  Name = 56260
REMARK  3 active torsions:
REMARK  status: ('A' for Active; 'I' for Inactive)
REMARK    1  A    between atoms: N_2  and  C_8
REMARK    2  A    between atoms: C_3  and  C_14
REMARK    3  A    between atoms: C_14  and  C_15
REMARK                            x       y       z     vdW  Elec       q    Type
REMARK                         _______ _______ _______ _____ _____    ______ ____
ROOT
ATOM      1  O   UNL     1      34.371 -18.575 -23.114  0.00  0.00    -0.275 OA
ATOM      2  N   UNL     1      34.716 -16.918 -21.524  0.00  0.00    -0.298 N 
ATOM      3  C   UNL     1      34.916 -18.173 -22.090  0.00  0.00    +0.227 C 
ATOM      4  H   UNL     1      35.202 -16.690 -20.698  0.00  0.00    +0.150 HD
ENDROOT
BRANCH   2   8
ATOM      5  O   UNL     1      35.525 -15.651 -23.795  0.00  0.00    -0.273 OA
ATOM      6  O   UNL     1      32.758 -12.050 -23.032  0.00  0.00    -0.275 OA
ATOM      7  N   UNL     1      34.144 -13.862 -23.364  0.00  0.00    -0.254 N 
ATOM      8  C   UNL     1      33.830 -15.939 -22.095  0.00  0.00    +0.149 C 
ATOM      9  C   UNL     1      33.266 -15.017 -21.025  0.00  0.00    +0.039 C 
ATOM     10  C   UNL     1      32.365 -13.983 -21.675  0.00  0.00    +0.088 C 
ATOM     11  C   UNL     1      34.607 -15.158 -23.140  0.00  0.00    +0.246 C 
ATOM     12  C   UNL     1      33.102 -13.193 -22.730  0.00  0.00    +0.228 C 
ATOM     13  H   UNL     1      34.616 -13.354 -24.063  0.00  0.00    +0.158 HD
ENDBRANCH   2   8
BRANCH   3  14
ATOM     14  C   UNL     1      35.903 -18.998 -21.286  0.00  0.00    +0.111 C 
BRANCH  14  15
ATOM     15  C   UNL     1      35.251 -20.096 -20.489  0.00  0.00    -0.013 C 
ATOM     16  C   UNL     1      36.045 -21.003 -19.799  0.00  0.00    -0.004 C 
ATOM     17  C   UNL     1      33.867 -20.188 -20.454  0.00  0.00    -0.004 C 
ATOM     18  C   UNL     1      35.442 -22.020 -19.060  0.00  0.00    -0.000 C 
ATOM     19  C   UNL     1      33.264 -21.206 -19.715  0.00  0.00    -0.000 C 
ATOM     20  C   UNL     1      34.052 -22.122 -19.019  0.00  0.00    -0.000 C 
ENDBRANCH  14  15
ENDBRANCH   3  14
TORSDOF 3
ENDMDL
MODEL 5
REMARK VINA RESULT:      -8.8      5.587      8.919
REMARK  Name = 56260
REMARK  3 active torsions:
REMARK  status: ('A' for Active; 'I' for Inactive)
REMARK    1  A    between atoms: N_2  and  C_8
REMARK    2  A    between atoms: C_3  and  C_14
REMARK    3  A    between atoms: C_14  and  C_15
REMARK                            x       y       z     vdW  Elec       q    Type
REMARK                         _______ _______ _______ _____ _____    ______ ____
ROOT
ATOM      1  O   UNL     1      34.077 -23.579 -19.501  0.00  0.00    -0.275 OA
ATOM      2  N   UNL     1      33.092 -22.406 -17.755  0.00  0.00    -0.298 N 
ATOM      3  C   UNL     1      33.494 -22.586 -19.074  0.00  0.00    +0.227 C 
ATOM      4  H   UNL     1      32.630 -21.571 -17.512  0.00  0.00    +0.150 HD
ENDROOT
BRANCH   2   8
ATOM      5  O   UNL     1      31.019 -23.016 -16.098  0.00  0.00    -0.273 OA
ATOM      6  O   UNL     1      33.829 -24.543 -12.785  0.00  0.00    -0.275 OA
ATOM      7  N   UNL     1      32.460 -23.749 -14.461  0.00  0.00    -0.254 N 
ATOM      8  C   UNL     1      33.322 -23.390 -16.730  0.00  0.00    +0.149 C 
ATOM      9  C   UNL     1      34.646 -23.147 -16.022  0.00  0.00    +0.039 C 
ATOM     10  C   UNL     1      34.831 -24.186 -14.931  0.00  0.00    +0.088 C 
ATOM     11  C   UNL     1      32.159 -23.331 -15.757  0.00  0.00    +0.246 C 
ATOM     12  C   UNL     1      33.684 -24.165 -13.948  0.00  0.00    +0.228 C 
ATOM     13  H   UNL     1      31.708 -23.750 -13.826  0.00  0.00    +0.158 HD
ENDBRANCH   2   8
BRANCH   3  14
ATOM     14  C   UNL     1      33.121 -21.397 -19.940  0.00  0.00    +0.111 C 
BRANCH  14  15
ATOM     15  C   UNL     1      34.299 -20.540 -20.316  0.00  0.00    -0.013 C 
ATOM     16  C   UNL     1      35.573 -20.912 -19.909  0.00  0.00    -0.004 C 
ATOM     17  C   UNL     1      34.097 -19.389 -21.064  0.00  0.00    -0.004 C 
ATOM     18  C   UNL     1      36.665 -20.117 -20.257  0.00  0.00    -0.000 C 
ATOM     19  C   UNL     1      35.189 -18.594 -21.413  0.00  0.00    -0.000 C 
ATOM     20  C   UNL     1      36.473 -18.959 -21.009  0.00  0.00    -0.000 C 
ENDBRANCH  14  15
ENDBRANCH   3  14
TORSDOF 3
ENDMDL
MODEL 6
REMARK VINA RESULT:      -8.8     10.295     12.267
REMARK  Name = 56260
REMARK  3 active torsions:
REMARK  status: ('A' for Active; 'I' for Inactive)
REMARK    1  A    between atoms: N_2  and  C_8
REMARK    2  A    between atoms: C_3  and  C_14
REMARK    3  A    between atoms: C_14  and  C_15
REMARK                            x       y       z     vdW  Elec       q    Type
REMARK                         _______ _______ _______ _____ _____    ______ ____
ROOT
ATOM      1  O   UNL     1      34.525 -24.341 -15.497  0.00  0.00    -0.275 OA
ATOM      2  N   UNL     1      35.643 -24.747 -13.502  0.00  0.00    -0.298 N 
ATOM      3  C   UNL     1      34.565 -24.319 -14.270  0.00  0.00    +0.227 C 
ATOM      4  H   UNL     1      35.576 -24.688 -12.521  0.00  0.00    +0.150 HD
ENDROOT
BRANCH   2   8
ATOM      5  O   UNL     1      37.050 -26.571 -12.051  0.00  0.00    -0.273 OA
ATOM      6  O   UNL     1      40.969 -25.654 -14.289  0.00  0.00    -0.275 OA
ATOM      7  N   UNL     1      38.990 -26.067 -13.180  0.00  0.00    -0.254 N 
ATOM      8  C   UNL     1      36.850 -25.274 -14.081  0.00  0.00    +0.149 C 
ATOM      9  C   UNL     1      37.695 -24.168 -14.694  0.00  0.00    +0.039 C 
ATOM     10  C   UNL     1      38.970 -24.764 -15.261  0.00  0.00    +0.088 C 
ATOM     11  C   UNL     1      37.610 -26.006 -12.990  0.00  0.00    +0.246 C 
ATOM     12  C   UNL     1      39.749 -25.511 -14.205  0.00  0.00    +0.228 C 
ATOM     13  H   UNL     1      39.494 -26.568 -12.498  0.00  0.00    +0.158 HD
ENDBRANCH   2   8
BRANCH   3  14
ATOM     14  C   UNL     1      33.425 -23.818 -13.404  0.00  0.00    +0.111 C 
BRANCH  14  15
ATOM     15  C   UNL     1      32.077 -23.943 -14.061  0.00  0.00    -0.013 C 
ATOM     16  C   UNL     1      31.412 -25.161 -14.030  0.00  0.00    -0.004 C 
ATOM     17  C   UNL     1      31.516 -22.839 -14.687  0.00  0.00    -0.004 C 
ATOM     18  C   UNL     1      30.162 -25.278 -14.639  0.00  0.00    -0.000 C 
ATOM     19  C   UNL     1      30.266 -22.955 -15.295  0.00  0.00    -0.000 C 
ATOM     20  C   UNL     1      29.590 -24.175 -15.272  0.00  0.00    -0.000 C 
ENDBRANCH  14  15
ENDBRANCH   3  14
TORSDOF 3
ENDMDL
MODEL 7
REMARK VINA RESULT:      -8.7      5.722      9.038
REMARK  Name = 56260
REMARK  3 active torsions:
REMARK  status: ('A' for Active; 'I' for Inactive)
REMARK    1  A    between atoms: N_2  and  C_8
REMARK    2  A    between atoms: C_3  and  C_14
REMARK    3  A    between atoms: C_14  and  C_15
REMARK                            x       y       z     vdW  Elec       q    Type
REMARK                         _______ _______ _______ _____ _____    ______ ____
ROOT
ATOM      1  O   UNL     1      33.847 -23.964 -18.993  0.00  0.00    -0.275 OA
ATOM      2  N   UNL     1      34.185 -22.855 -16.981  0.00  0.00    -0.298 N 
ATOM      3  C   UNL     1      34.388 -23.077 -18.339  0.00  0.00    +0.227 C 
ATOM      4  H   UNL     1      34.668 -22.115 -16.546  0.00  0.00    +0.150 HD
ENDROOT
BRANCH   2   8
ATOM      5  O   UNL     1      31.510 -22.412 -17.229  0.00  0.00    -0.273 OA
ATOM      6  O   UNL     1      30.606 -24.202 -13.084  0.00  0.00    -0.275 OA
ATOM      7  N   UNL     1      31.105 -23.295 -15.143  0.00  0.00    -0.254 N 
ATOM      8  C   UNL     1      33.297 -23.660 -16.185  0.00  0.00    +0.149 C 
ATOM      9  C   UNL     1      33.788 -23.767 -14.750  0.00  0.00    +0.039 C 
ATOM     10  C   UNL     1      32.807 -24.595 -13.942  0.00  0.00    +0.088 C 
ATOM     11  C   UNL     1      31.915 -23.035 -16.248  0.00  0.00    +0.246 C 
ATOM     12  C   UNL     1      31.416 -24.009 -13.991  0.00  0.00    +0.228 C 
ATOM     13  H   UNL     1      30.194 -22.925 -15.185  0.00  0.00    +0.158 HD
ENDBRANCH   2   8
BRANCH   3  14
ATOM     14  C   UNL     1      35.368 -22.080 -18.928  0.00  0.00    +0.111 C 
BRANCH  14  15
ATOM     15  C   UNL     1      34.710 -21.032 -19.785  0.00  0.00    -0.013 C 
ATOM     16  C   UNL     1      33.325 -20.930 -19.797  0.00  0.00    -0.004 C 
ATOM     17  C   UNL     1      35.495 -20.183 -20.551  0.00  0.00    -0.004 C 
ATOM     18  C   UNL     1      32.715 -19.959 -20.592  0.00  0.00    -0.000 C 
ATOM     19  C   UNL     1      34.885 -19.212 -21.346  0.00  0.00    -0.000 C 
ATOM     20  C   UNL     1      33.495 -19.101 -21.366  0.00  0.00    -0.000 C 
ENDBRANCH  14  15
ENDBRANCH   3  14
TORSDOF 3
ENDMDL
MODEL 8
REMARK VINA RESULT:      -8.7      2.253      7.091
REMARK  Name = 56260
REMARK  3 active torsions:
REMARK  status: ('A' for Active; 'I' for Inactive)
REMARK    1  A    between atoms: N_2  and  C_8
REMARK    2  A    between atoms: C_3  and  C_14
REMARK    3  A    between atoms: C_14  and  C_15
REMARK                            x       y       z     vdW  Elec       q    Type
REMARK                         _______ _______ _______ _____ _____    ______ ____
ROOT
ATOM      1  O   UNL     1      35.197 -16.522 -20.352  0.00  0.00    -0.275 OA
ATOM      2  N   UNL     1      34.434 -18.302 -21.633  0.00  0.00    -0.298 N 
ATOM      3  C   UNL     1      34.857 -16.992 -21.434  0.00  0.00    +0.227 C 
ATOM      4  H   UNL     1      34.182 -18.584 -22.542  0.00  0.00    +0.150 HD
ENDROOT
BRANCH   2   8
ATOM      5  O   UNL     1      36.731 -19.554 -20.878  0.00  0.00    -0.273 OA
ATOM      6  O   UNL     1      34.452 -23.129 -19.082  0.00  0.00    -0.275 OA
ATOM      7  N   UNL     1      35.554 -21.331 -20.012  0.00  0.00    -0.254 N 
ATOM      8  C   UNL     1      34.352 -19.265 -20.566  0.00  0.00    +0.149 C 
ATOM      9  C   UNL     1      33.160 -20.191 -20.751  0.00  0.00    +0.039 C 
ATOM     10  C   UNL     1      33.132 -21.206 -19.624  0.00  0.00    +0.088 C 
ATOM     11  C   UNL     1      35.655 -20.043 -20.538  0.00  0.00    +0.246 C 
ATOM     12  C   UNL     1      34.419 -21.994 -19.558  0.00  0.00    +0.228 C 
ATOM     13  H   UNL     1      36.397 -21.837 -19.955  0.00  0.00    +0.158 HD
ENDBRANCH   2   8
BRANCH   3  14
ATOM     14  C   UNL     1      34.852 -16.200 -22.728  0.00  0.00    +0.111 C 
BRANCH  14  15
ATOM     15  C   UNL     1      33.978 -14.976 -22.674  0.00  0.00    -0.013 C 
ATOM     16  C   UNL     1      33.036 -14.852 -21.662  0.00  0.00    -0.004 C 
ATOM     17  C   UNL     1      34.126 -13.987 -23.637  0.00  0.00    -0.004 C 
ATOM     18  C   UNL     1      32.226 -13.718 -21.613  0.00  0.00    -0.000 C 
ATOM     19  C   UNL     1      33.317 -12.852 -23.587  0.00  0.00    -0.000 C 
ATOM     20  C   UNL     1      32.366 -12.718 -22.575  0.00  0.00    -0.000 C 
ENDBRANCH  14  15
ENDBRANCH   3  14
TORSDOF 3
ENDMDL
MODEL 9
REMARK VINA RESULT:      -8.7      2.868      7.016
REMARK  Name = 56260
REMARK  3 active torsions:
REMARK  status: ('A' for Active; 'I' for Inactive)
REMARK    1  A    between atoms: N_2  and  C_8
REMARK    2  A    between atoms: C_3  and  C_14
REMARK    3  A    between atoms: C_14  and  C_15
REMARK                            x       y       z     vdW  Elec       q    Type
REMARK                         _______ _______ _______ _____ _____    ______ ____
ROOT
ATOM      1  O   UNL     1      36.402 -18.497 -22.351  0.00  0.00    -0.275 OA
ATOM      2  N   UNL     1      34.484 -18.662 -21.052  0.00  0.00    -0.298 N 
ATOM      3  C   UNL     1      35.442 -17.975 -21.790  0.00  0.00    +0.227 C 
ATOM      4  H   UNL     1      33.751 -18.151 -20.639  0.00  0.00    +0.150 HD
ENDROOT
BRANCH   2   8
ATOM      5  O   UNL     1      32.106 -19.961 -20.790  0.00  0.00    -0.273 OA
ATOM      6  O   UNL     1      34.041 -23.518 -18.597  0.00  0.00    -0.275 OA
ATOM      7  N   UNL     1      33.110 -21.708 -19.679  0.00  0.00    -0.254 N 
ATOM      8  C   UNL     1      34.518 -20.089 -20.868  0.00  0.00    +0.149 C 
ATOM      9  C   UNL     1      35.571 -20.487 -19.846  0.00  0.00    +0.039 C 
ATOM     10  C   UNL     1      35.549 -21.993 -19.661  0.00  0.00    +0.088 C 
ATOM     11  C   UNL     1      33.134 -20.538 -20.436  0.00  0.00    +0.246 C 
ATOM     12  C   UNL     1      34.182 -22.479 -19.241  0.00  0.00    +0.228 C 
ATOM     13  H   UNL     1      32.217 -22.031 -19.419  0.00  0.00    +0.158 HD
ENDBRANCH   2   8
BRANCH   3  14
ATOM     14  C   UNL     1      35.160 -16.485 -21.824  0.00  0.00    +0.111 C 
BRANCH  14  15
ATOM     15  C   UNL     1      34.542 -16.025 -23.117  0.00  0.00    -0.013 C 
ATOM     16  C   UNL     1      33.898 -14.796 -23.167  0.00  0.00    -0.004 C 
ATOM     17  C   UNL     1      34.624 -16.834 -24.241  0.00  0.00    -0.004 C 
ATOM     18  C   UNL     1      33.325 -14.369 -24.365  0.00  0.00    -0.000 C 
ATOM     19  C   UNL     1      34.051 -16.407 -25.439  0.00  0.00    -0.000 C 
ATOM     20  C   UNL     1      33.401 -15.175 -25.501  0.00  0.00    -0.000 C 
ENDBRANCH  14  15
ENDBRANCH   3  14
TORSDOF 3
ENDMDL
