MODEL 1
REMARK VINA RESULT:     -11.0      0.000      0.000
REMARK  Name = 131624
REMARK  10 active torsions:
REMARK  status: ('A' for Active; 'I' for Inactive)
REMARK    1  A    between atoms: C_1  and  N_3
REMARK    2  A    between atoms: C_1  and  C_20
REMARK    3  A    between atoms: C_1  and  C_23
REMARK    4  A    between atoms: C_4  and  C_6
REMARK    5  A    between atoms: C_6  and  N_7
REMARK    6  A    between atoms: N_7  and  S_9
REMARK    7  A    between atoms: S_9  and  C_12
REMARK    8  A    between atoms: C_20  and  O_21
REMARK    9  A    between atoms: C_23  and  C_24
REMARK   10  A    between atoms: C_27  and  C_32
REMARK                            x       y       z     vdW  Elec       q    Type
REMARK                         _______ _______ _______ _____ _____    ______ ____
ROOT
ATOM      1  C   UNL     1      34.851 -17.809 -22.465  0.00  0.00    +0.176 C 
ENDROOT
BRANCH   1   3
ATOM      2  O   UNL     1      35.088 -16.065 -20.165  0.00  0.00    -0.274 OA
ATOM      3  N   UNL     1      34.511 -16.410 -22.389  0.00  0.00    -0.295 N 
ATOM      4  C   UNL     1      34.659 -15.649 -21.237  0.00  0.00    +0.241 C 
ATOM      5  H   UNL     1      34.156 -15.973 -23.197  0.00  0.00    +0.150 HD
BRANCH   4   6
ATOM      6  C   UNL     1      34.228 -14.221 -21.458  0.00  0.00    +0.176 C 
BRANCH   6   7
ATOM      7  N   UNL     1      34.464 -13.846 -22.860  0.00  0.00    -0.170 NA
ATOM      8  H   UNL     1      35.208 -13.147 -22.856  0.00  0.00    +0.149 HD
BRANCH   7   9
ATOM      9  S   UNL     1      33.197 -13.207 -23.803  0.00  0.00    +0.061 S 
ATOM     10  O   UNL     1      31.946 -13.345 -23.080  0.00  0.00    -0.153 OA
ATOM     11  O   UNL     1      33.314 -13.706 -25.160  0.00  0.00    -0.153 OA
BRANCH   9  12
ATOM     12  C   UNL     1      33.612 -11.489 -23.848  0.00  0.00    +0.122 C 
ATOM     13  C   UNL     1      34.646 -11.043 -24.671  0.00  0.00    +0.020 C 
ATOM     14  C   UNL     1      32.904 -10.579 -23.062  0.00  0.00    +0.020 C 
ATOM     15  C   UNL     1      34.266  -8.778 -23.921  0.00  0.00    -0.022 C 
ATOM     16  C   UNL     1      34.974  -9.688 -24.708  0.00  0.00    -0.003 C 
ATOM     17  C   UNL     1      33.232  -9.224 -23.098  0.00  0.00    -0.003 C 
ATOM     18  C   UNL     1      34.616  -7.329 -23.960  0.00  0.00    +0.031 C 
ENDBRANCH   9  12
ENDBRANCH   7   9
ENDBRANCH   6   7
ENDBRANCH   4   6
ENDBRANCH   1   3
BRANCH   1  20
ATOM     19  O   UNL     1      35.022 -19.480 -24.201  0.00  0.00    -0.248 OA
ATOM     20  C   UNL     1      35.009 -18.291 -23.901  0.00  0.00    +0.335 C 
BRANCH  20  21
ATOM     21  O   UNL     1      35.146 -17.257 -24.777  0.00  0.00    -0.443 OA
ATOM     22  C   UNL     1      34.034 -17.031 -25.650  0.00  0.00    +0.256 C 
ENDBRANCH  20  21
ENDBRANCH   1  20
BRANCH   1  23
ATOM     23  C   UNL     1      33.851 -18.670 -21.676  0.00  0.00    +0.057 C 
BRANCH  23  24
ATOM     24  C   UNL     1      34.481 -19.735 -20.808  0.00  0.00    -0.020 C 
ATOM     25  C   UNL     1      33.679 -20.679 -20.167  0.00  0.00    -0.001 C 
ATOM     26  C   UNL     1      35.866 -19.775 -20.649  0.00  0.00    -0.004 C 
ATOM     27  C   UNL     1      34.261 -21.661 -19.367  0.00  0.00    +0.030 C 
ATOM     28  C   UNL     1      36.449 -20.758 -19.850  0.00  0.00    -0.000 C 
ATOM     29  C   UNL     1      35.646 -21.701 -19.209  0.00  0.00    +0.003 C 
BRANCH  27  32
ATOM     30  N   UNL     1      32.262 -22.272 -18.026  0.00  0.00    -0.343 N 
ATOM     31  N   UNL     1      33.765 -23.922 -18.720  0.00  0.00    -0.285 NA
ATOM     32  C   UNL     1      33.425 -22.645 -18.698  0.00  0.00    +0.117 C 
ATOM     33  H   UNL     1      31.711 -22.956 -17.580  0.00  0.00    +0.144 HD
ATOM     34  H   UNL     1      31.994 -21.325 -17.996  0.00  0.00    +0.144 HD
ATOM     35  H   UNL     1      33.200 -24.590 -18.268  0.00  0.00    +0.188 HD
ENDBRANCH  27  32
ENDBRANCH  23  24
ENDBRANCH   1  23
TORSDOF 10
ENDMDL
MODEL 2
REMARK VINA RESULT:     -10.5      6.450     10.401
REMARK  Name = 131624
REMARK  10 active torsions:
REMARK  status: ('A' for Active; 'I' for Inactive)
REMARK    1  A    between atoms: C_1  and  N_3
REMARK    2  A    between atoms: C_1  and  C_20
REMARK    3  A    between atoms: C_1  and  C_23
REMARK    4  A    between atoms: C_4  and  C_6
REMARK    5  A    between atoms: C_6  and  N_7
REMARK    6  A    between atoms: N_7  and  S_9
REMARK    7  A    between atoms: S_9  and  C_12
REMARK    8  A    between atoms: C_20  and  O_21
REMARK    9  A    between atoms: C_23  and  C_24
REMARK   10  A    between atoms: C_27  and  C_32
REMARK                            x       y       z     vdW  Elec       q    Type
REMARK                         _______ _______ _______ _____ _____    ______ ____
ROOT
ATOM      1  C   UNL     1      33.694 -24.377 -13.655  0.00  0.00    +0.176 C 
ENDROOT
BRANCH   1   3
ATOM      2  O   UNL     1      35.301 -24.745 -16.036  0.00  0.00    -0.274 OA
ATOM      3  N   UNL     1      34.203 -23.353 -14.533  0.00  0.00    -0.295 N 
ATOM      4  C   UNL     1      34.970 -23.625 -15.659  0.00  0.00    +0.241 C 
ATOM      5  H   UNL     1      33.997 -22.414 -14.323  0.00  0.00    +0.150 HD
BRANCH   4   6
ATOM      6  C   UNL     1      35.355 -22.360 -16.384  0.00  0.00    +0.176 C 
BRANCH   6   7
ATOM      7  N   UNL     1      35.420 -22.619 -17.829  0.00  0.00    -0.170 NA
ATOM      8  H   UNL     1      36.021 -21.898 -18.230  0.00  0.00    +0.149 HD
BRANCH   7   9
ATOM      9  S   UNL     1      33.994 -22.643 -18.762  0.00  0.00    +0.061 S 
ATOM     10  O   UNL     1      32.851 -22.426 -17.895  0.00  0.00    -0.153 OA
ATOM     11  O   UNL     1      34.028 -23.788 -19.653  0.00  0.00    -0.153 OA
BRANCH   9  12
ATOM     12  C   UNL     1      34.197 -21.203 -19.767  0.00  0.00    +0.122 C 
ATOM     13  C   UNL     1      35.476 -20.777 -20.127  0.00  0.00    +0.020 C 
ATOM     14  C   UNL     1      33.077 -20.492 -20.201  0.00  0.00    +0.020 C 
ATOM     15  C   UNL     1      34.516 -18.931 -21.354  0.00  0.00    -0.022 C 
ATOM     16  C   UNL     1      35.635 -19.641 -20.920  0.00  0.00    -0.003 C 
ATOM     17  C   UNL     1      33.236 -19.356 -20.994  0.00  0.00    -0.003 C 
ATOM     18  C   UNL     1      34.686 -17.717 -22.202  0.00  0.00    +0.031 C 
ENDBRANCH   9  12
ENDBRANCH   7   9
ENDBRANCH   6   7
ENDBRANCH   4   6
ENDBRANCH   1   3
BRANCH   1  20
ATOM     19  O   UNL     1      31.586 -23.408 -12.981  0.00  0.00    -0.248 OA
ATOM     20  C   UNL     1      32.177 -24.332 -13.529  0.00  0.00    +0.335 C 
BRANCH  20  21
ATOM     21  O   UNL     1      31.584 -25.430 -14.076  0.00  0.00    -0.443 OA
ATOM     22  C   UNL     1      30.248 -25.240 -14.555  0.00  0.00    +0.256 C 
ENDBRANCH  20  21
ENDBRANCH   1  20
BRANCH   1  23
ATOM     23  C   UNL     1      34.386 -24.331 -12.283  0.00  0.00    +0.057 C 
BRANCH  23  24
ATOM     24  C   UNL     1      35.896 -24.275 -12.338  0.00  0.00    -0.020 C 
ATOM     25  C   UNL     1      36.604 -25.223 -13.076  0.00  0.00    -0.001 C 
ATOM     26  C   UNL     1      36.581 -23.273 -11.652  0.00  0.00    -0.004 C 
ATOM     27  C   UNL     1      37.996 -25.169 -13.128  0.00  0.00    +0.030 C 
ATOM     28  C   UNL     1      37.973 -23.218 -11.703  0.00  0.00    -0.000 C 
ATOM     29  C   UNL     1      38.681 -24.167 -12.441  0.00  0.00    +0.003 C 
BRANCH  27  32
ATOM     30  N   UNL     1      40.129 -26.171 -13.911  0.00  0.00    -0.343 N 
ATOM     31  N   UNL     1      38.083 -27.065 -14.603  0.00  0.00    -0.285 NA
ATOM     32  C   UNL     1      38.735 -26.158 -13.897  0.00  0.00    +0.117 C 
ATOM     33  H   UNL     1      40.609 -26.850 -14.439  0.00  0.00    +0.144 HD
ATOM     34  H   UNL     1      40.633 -25.502 -13.394  0.00  0.00    +0.144 HD
ATOM     35  H   UNL     1      38.581 -27.735 -15.124  0.00  0.00    +0.188 HD
ENDBRANCH  27  32
ENDBRANCH  23  24
ENDBRANCH   1  23
TORSDOF 10
ENDMDL
MODEL 3
REMARK VINA RESULT:     -10.3      2.623      9.963
REMARK  Name = 131624
REMARK  10 active torsions:
REMARK  status: ('A' for Active; 'I' for Inactive)
REMARK    1  A    between atoms: C_1  and  N_3
REMARK    2  A    between atoms: C_1  and  C_20
REMARK    3  A    between atoms: C_1  and  C_23
REMARK    4  A    between atoms: C_4  and  C_6
REMARK    5  A    between atoms: C_6  and  N_7
REMARK    6  A    between atoms: N_7  and  S_9
REMARK    7  A    between atoms: S_9  and  C_12
REMARK    8  A    between atoms: C_20  and  O_21
REMARK    9  A    between atoms: C_23  and  C_24
REMARK   10  A    between atoms: C_27  and  C_32
REMARK                            x       y       z     vdW  Elec       q    Type
REMARK                         _______ _______ _______ _____ _____    ______ ____
ROOT
ATOM      1  C   UNL     1      33.312 -13.884 -24.187  0.00  0.00    +0.176 C 
ENDROOT
BRANCH   1   3
ATOM      2  O   UNL     1      32.387 -15.163 -21.758  0.00  0.00    -0.274 OA
ATOM      3  N   UNL     1      34.095 -14.650 -23.249  0.00  0.00    -0.295 N 
ATOM      4  C   UNL     1      33.563 -15.230 -22.104  0.00  0.00    +0.241 C 
ATOM      5  H   UNL     1      35.055 -14.767 -23.430  0.00  0.00    +0.150 HD
BRANCH   4   6
ATOM      6  C   UNL     1      34.617 -15.970 -21.320  0.00  0.00    +0.176 C 
BRANCH   6   7
ATOM      7  N   UNL     1      34.181 -17.355 -21.093  0.00  0.00    -0.170 NA
ATOM      8  H   UNL     1      34.186 -17.504 -20.083  0.00  0.00    +0.149 HD
BRANCH   7   9
ATOM      9  S   UNL     1      35.047 -18.651 -21.782  0.00  0.00    +0.061 S 
ATOM     10  O   UNL     1      36.470 -18.397 -21.655  0.00  0.00    -0.153 OA
ATOM     11  O   UNL     1      34.476 -18.969 -23.077  0.00  0.00    -0.153 OA
BRANCH   9  12
ATOM     12  C   UNL     1      34.633 -19.981 -20.695  0.00  0.00    +0.122 C 
ATOM     13  C   UNL     1      35.640 -20.782 -20.157  0.00  0.00    +0.020 C 
ATOM     14  C   UNL     1      33.298 -20.229 -20.373  0.00  0.00    +0.020 C 
ATOM     15  C   UNL     1      33.979 -22.079 -18.976  0.00  0.00    -0.022 C 
ATOM     16  C   UNL     1      35.313 -21.832 -19.298  0.00  0.00    -0.003 C 
ATOM     17  C   UNL     1      32.971 -21.278 -19.514  0.00  0.00    -0.003 C 
ATOM     18  C   UNL     1      33.629 -23.201 -18.059  0.00  0.00    +0.031 C 
ENDBRANCH   9  12
ENDBRANCH   7   9
ENDBRANCH   6   7
ENDBRANCH   4   6
ENDBRANCH   1   3
BRANCH   1  20
ATOM     19  O   UNL     1      33.450 -15.781 -25.678  0.00  0.00    -0.248 OA
ATOM     20  C   UNL     1      33.120 -14.611 -25.512  0.00  0.00    +0.335 C 
BRANCH  20  21
ATOM     21  O   UNL     1      32.567 -13.807 -26.463  0.00  0.00    -0.443 OA
ATOM     22  C   UNL     1      33.450 -13.381 -27.506  0.00  0.00    +0.256 C 
ENDBRANCH  20  21
ENDBRANCH   1  20
BRANCH   1  23
ATOM     23  C   UNL     1      33.895 -12.476 -24.383  0.00  0.00    +0.057 C 
BRANCH  23  24
ATOM     24  C   UNL     1      33.240 -11.399 -23.548  0.00  0.00    -0.020 C 
ATOM     25  C   UNL     1      33.693 -10.082 -23.625  0.00  0.00    -0.001 C 
ATOM     26  C   UNL     1      32.179 -11.723 -22.702  0.00  0.00    -0.004 C 
ATOM     27  C   UNL     1      33.087  -9.090 -22.856  0.00  0.00    +0.030 C 
ATOM     28  C   UNL     1      31.573 -10.730 -21.932  0.00  0.00    -0.000 C 
ATOM     29  C   UNL     1      32.027  -9.413 -22.010  0.00  0.00    +0.003 C 
BRANCH  27  32
ATOM     30  N   UNL     1      32.768  -6.651 -22.511  0.00  0.00    -0.343 N 
ATOM     31  N   UNL     1      34.762  -7.461 -23.422  0.00  0.00    -0.285 NA
ATOM     32  C   UNL     1      33.560  -7.717 -22.936  0.00  0.00    +0.117 C 
ATOM     33  H   UNL     1      33.109  -5.730 -22.574  0.00  0.00    +0.144 HD
ATOM     34  H   UNL     1      31.868  -6.821 -22.149  0.00  0.00    +0.144 HD
ATOM     35  H   UNL     1      35.084  -6.533 -23.476  0.00  0.00    +0.188 HD
ENDBRANCH  27  32
ENDBRANCH  23  24
ENDBRANCH   1  23
TORSDOF 10
ENDMDL
MODEL 4
REMARK VINA RESULT:     -10.1      2.559      9.370
REMARK  Name = 131624
REMARK  10 active torsions:
REMARK  status: ('A' for Active; 'I' for Inactive)
REMARK    1  A    between atoms: C_1  and  N_3
REMARK    2  A    between atoms: C_1  and  C_20
REMARK    3  A    between atoms: C_1  and  C_23
REMARK    4  A    between atoms: C_4  and  C_6
REMARK    5  A    between atoms: C_6  and  N_7
REMARK    6  A    between atoms: N_7  and  S_9
REMARK    7  A    between atoms: S_9  and  C_12
REMARK    8  A    between atoms: C_20  and  O_21
REMARK    9  A    between atoms: C_23  and  C_24
REMARK   10  A    between atoms: C_27  and  C_32
REMARK                            x       y       z     vdW  Elec       q    Type
REMARK                         _______ _______ _______ _____ _____    ______ ____
ROOT
ATOM      1  C   UNL     1      33.414 -13.769 -24.268  0.00  0.00    +0.176 C 
ENDROOT
BRANCH   1   3
ATOM      2  O   UNL     1      32.468 -15.180 -21.922  0.00  0.00    -0.274 OA
ATOM      3  N   UNL     1      34.205 -14.497 -23.307  0.00  0.00    -0.295 N 
ATOM      4  C   UNL     1      33.661 -15.147 -22.206  0.00  0.00    +0.241 C 
ATOM      5  H   UNL     1      35.180 -14.535 -23.439  0.00  0.00    +0.150 HD
BRANCH   4   6
ATOM      6  C   UNL     1      34.727 -15.825 -21.383  0.00  0.00    +0.176 C 
BRANCH   6   7
ATOM      7  N   UNL     1      34.315 -17.202 -21.078  0.00  0.00    -0.170 NA
ATOM      8  H   UNL     1      34.438 -17.331 -20.074  0.00  0.00    +0.149 HD
BRANCH   7   9
ATOM      9  S   UNL     1      35.087 -18.517 -21.838  0.00  0.00    +0.061 S 
ATOM     10  O   UNL     1      36.525 -18.335 -21.766  0.00  0.00    -0.153 OA
ATOM     11  O   UNL     1      34.448 -18.772 -23.116  0.00  0.00    -0.153 OA
BRANCH   9  12
ATOM     12  C   UNL     1      34.654 -19.857 -20.770  0.00  0.00    +0.122 C 
ATOM     13  C   UNL     1      35.651 -20.676 -20.239  0.00  0.00    +0.020 C 
ATOM     14  C   UNL     1      33.316 -20.094 -20.455  0.00  0.00    +0.020 C 
ATOM     15  C   UNL     1      33.971 -21.970 -19.081  0.00  0.00    -0.022 C 
ATOM     16  C   UNL     1      35.309 -21.733 -19.395  0.00  0.00    -0.003 C 
ATOM     17  C   UNL     1      32.974 -21.151 -19.612  0.00  0.00    -0.003 C 
ATOM     18  C   UNL     1      33.606 -23.099 -18.179  0.00  0.00    +0.031 C 
ENDBRANCH   9  12
ENDBRANCH   7   9
ENDBRANCH   6   7
ENDBRANCH   4   6
ENDBRANCH   1   3
BRANCH   1  20
ATOM     19  O   UNL     1      33.441 -15.765 -25.630  0.00  0.00    -0.248 OA
ATOM     20  C   UNL     1      33.142 -14.580 -25.528  0.00  0.00    +0.335 C 
BRANCH  20  21
ATOM     21  O   UNL     1      32.555 -13.831 -26.504  0.00  0.00    -0.443 OA
ATOM     22  C   UNL     1      33.412 -13.428 -27.578  0.00  0.00    +0.256 C 
ENDBRANCH  20  21
ENDBRANCH   1  20
BRANCH   1  23
ATOM     23  C   UNL     1      34.042 -12.403 -24.588  0.00  0.00    +0.057 C 
BRANCH  23  24
ATOM     24  C   UNL     1      33.509 -11.254 -23.762  0.00  0.00    -0.020 C 
ATOM     25  C   UNL     1      32.615 -11.498 -22.720  0.00  0.00    -0.001 C 
ATOM     26  C   UNL     1      33.914  -9.949 -24.042  0.00  0.00    -0.004 C 
ATOM     27  C   UNL     1      32.126 -10.437 -21.958  0.00  0.00    +0.030 C 
ATOM     28  C   UNL     1      33.426  -8.888 -23.280  0.00  0.00    -0.000 C 
ATOM     29  C   UNL     1      32.531  -9.133 -22.238  0.00  0.00    +0.003 C 
BRANCH  27  32
ATOM     30  N   UNL     1      31.359 -10.097 -19.621  0.00  0.00    -0.343 N 
ATOM     31  N   UNL     1      30.167 -11.501 -21.060  0.00  0.00    -0.285 NA
ATOM     32  C   UNL     1      31.194 -10.691 -20.871  0.00  0.00    +0.117 C 
ATOM     33  H   UNL     1      30.715 -10.284 -18.899  0.00  0.00    +0.144 HD
ATOM     34  H   UNL     1      32.119  -9.493 -19.459  0.00  0.00    +0.144 HD
ATOM     35  H   UNL     1      29.534 -11.673 -20.326  0.00  0.00    +0.188 HD
ENDBRANCH  27  32
ENDBRANCH  23  24
ENDBRANCH   1  23
TORSDOF 10
ENDMDL
MODEL 5
REMARK VINA RESULT:     -10.0      1.812      2.413
REMARK  Name = 131624
REMARK  10 active torsions:
REMARK  status: ('A' for Active; 'I' for Inactive)
REMARK    1  A    between atoms: C_1  and  N_3
REMARK    2  A    between atoms: C_1  and  C_20
REMARK    3  A    between atoms: C_1  and  C_23
REMARK    4  A    between atoms: C_4  and  C_6
REMARK    5  A    between atoms: C_6  and  N_7
REMARK    6  A    between atoms: N_7  and  S_9
REMARK    7  A    between atoms: S_9  and  C_12
REMARK    8  A    between atoms: C_20  and  O_21
REMARK    9  A    between atoms: C_23  and  C_24
REMARK   10  A    between atoms: C_27  and  C_32
REMARK                            x       y       z     vdW  Elec       q    Type
REMARK                         _______ _______ _______ _____ _____    ______ ____
ROOT
ATOM      1  C   UNL     1      34.732 -16.725 -21.649  0.00  0.00    +0.176 C 
ENDROOT
BRANCH   1   3
ATOM      2  O   UNL     1      32.033 -15.675 -21.686  0.00  0.00    -0.274 OA
ATOM      3  N   UNL     1      34.260 -15.503 -21.046  0.00  0.00    -0.295 N 
ATOM      4  C   UNL     1      32.940 -15.077 -21.115  0.00  0.00    +0.241 C 
ATOM      5  H   UNL     1      34.908 -14.943 -20.561  0.00  0.00    +0.150 HD
BRANCH   4   6
ATOM      6  C   UNL     1      32.743 -13.769 -20.391  0.00  0.00    +0.176 C 
BRANCH   6   7
ATOM      7  N   UNL     1      32.169 -12.777 -21.311  0.00  0.00    -0.170 NA
ATOM      8  H   UNL     1      32.925 -12.474 -21.926  0.00  0.00    +0.149 HD
BRANCH   7   9
ATOM      9  S   UNL     1      31.438 -11.363 -20.701  0.00  0.00    +0.061 S 
ATOM     10  O   UNL     1      31.840 -11.174 -19.320  0.00  0.00    -0.153 OA
ATOM     11  O   UNL     1      30.032 -11.362 -21.059  0.00  0.00    -0.153 OA
BRANCH   9  12
ATOM     12  C   UNL     1      32.217 -10.108 -21.672  0.00  0.00    +0.122 C 
ATOM     13  C   UNL     1      32.375  -8.822 -21.152  0.00  0.00    +0.020 C 
ATOM     14  C   UNL     1      32.676 -10.402 -22.956  0.00  0.00    +0.020 C 
ATOM     15  C   UNL     1      33.448  -8.126 -23.202  0.00  0.00    -0.022 C 
ATOM     16  C   UNL     1      32.990  -7.831 -21.918  0.00  0.00    -0.003 C 
ATOM     17  C   UNL     1      33.291  -9.411 -23.721  0.00  0.00    -0.003 C 
ATOM     18  C   UNL     1      34.106  -7.067 -24.020  0.00  0.00    +0.031 C 
ENDBRANCH   9  12
ENDBRANCH   7   9
ENDBRANCH   6   7
ENDBRANCH   4   6
ENDBRANCH   1   3
BRANCH   1  20
ATOM     19  O   UNL     1      35.328 -15.546 -23.672  0.00  0.00    -0.248 OA
ATOM     20  C   UNL     1      34.942 -16.587 -23.151  0.00  0.00    +0.335 C 
BRANCH  20  21
ATOM     21  O   UNL     1      34.638 -17.735 -23.820  0.00  0.00    -0.443 OA
ATOM     22  C   UNL     1      34.569 -17.623 -25.246  0.00  0.00    +0.256 C 
ENDBRANCH  20  21
ENDBRANCH   1  20
BRANCH   1  23
ATOM     23  C   UNL     1      33.814 -17.908 -21.304  0.00  0.00    +0.057 C 
BRANCH  23  24
ATOM     24  C   UNL     1      34.531 -19.131 -20.777  0.00  0.00    -0.020 C 
ATOM     25  C   UNL     1      33.800 -20.199 -20.257  0.00  0.00    -0.001 C 
ATOM     26  C   UNL     1      35.924 -19.191 -20.813  0.00  0.00    -0.004 C 
ATOM     27  C   UNL     1      34.462 -21.327 -19.772  0.00  0.00    +0.030 C 
ATOM     28  C   UNL     1      36.586 -20.319 -20.329  0.00  0.00    -0.000 C 
ATOM     29  C   UNL     1      35.855 -21.387 -19.808  0.00  0.00    +0.003 C 
BRANCH  27  32
ATOM     30  N   UNL     1      32.562 -22.231 -18.454  0.00  0.00    -0.343 N 
ATOM     31  N   UNL     1      34.088 -23.681 -19.468  0.00  0.00    -0.285 NA
ATOM     32  C   UNL     1      33.701 -22.441 -19.230  0.00  0.00    +0.117 C 
ATOM     33  H   UNL     1      32.062 -23.001 -18.097  0.00  0.00    +0.144 HD
ATOM     34  H   UNL     1      32.259 -21.314 -18.263  0.00  0.00    +0.144 HD
ATOM     35  H   UNL     1      33.574 -24.437 -19.102  0.00  0.00    +0.188 HD
ENDBRANCH  27  32
ENDBRANCH  23  24
ENDBRANCH   1  23
TORSDOF 10
ENDMDL
MODEL 6
REMARK VINA RESULT:     -10.0      4.974      8.142
REMARK  Name = 131624
REMARK  10 active torsions:
REMARK  status: ('A' for Active; 'I' for Inactive)
REMARK    1  A    between atoms: C_1  and  N_3
REMARK    2  A    between atoms: C_1  and  C_20
REMARK    3  A    between atoms: C_1  and  C_23
REMARK    4  A    between atoms: C_4  and  C_6
REMARK    5  A    between atoms: C_6  and  N_7
REMARK    6  A    between atoms: N_7  and  S_9
REMARK    7  A    between atoms: S_9  and  C_12
REMARK    8  A    between atoms: C_20  and  O_21
REMARK    9  A    between atoms: C_23  and  C_24
REMARK   10  A    between atoms: C_27  and  C_32
REMARK                            x       y       z     vdW  Elec       q    Type
REMARK                         _______ _______ _______ _____ _____    ______ ____
ROOT
ATOM      1  C   UNL     1      32.391 -23.353 -16.597  0.00  0.00    +0.176 C 
ENDROOT
BRANCH   1   3
ATOM      2  O   UNL     1      34.167 -23.558 -18.876  0.00  0.00    -0.274 OA
ATOM      3  N   UNL     1      32.512 -22.429 -17.698  0.00  0.00    -0.295 N 
ATOM      4  C   UNL     1      33.396 -22.610 -18.754  0.00  0.00    +0.241 C 
ATOM      5  H   UNL     1      31.938 -21.630 -17.700  0.00  0.00    +0.150 HD
BRANCH   4   6
ATOM      6  C   UNL     1      33.297 -21.488 -19.755  0.00  0.00    +0.176 C 
BRANCH   6   7
ATOM      7  N   UNL     1      34.317 -20.471 -19.460  0.00  0.00    -0.170 NA
ATOM      8  H   UNL     1      33.869 -19.562 -19.577  0.00  0.00    +0.149 HD
BRANCH   7   9
ATOM      9  S   UNL     1      35.765 -20.423 -20.356  0.00  0.00    +0.061 S 
ATOM     10  O   UNL     1      35.955 -21.694 -21.029  0.00  0.00    -0.153 OA
ATOM     11  O   UNL     1      36.820 -19.872 -19.526  0.00  0.00    -0.153 OA
BRANCH   9  12
ATOM     12  C   UNL     1      35.389 -19.208 -21.584  0.00  0.00    +0.122 C 
ATOM     13  C   UNL     1      35.397 -17.853 -21.251  0.00  0.00    +0.020 C 
ATOM     14  C   UNL     1      35.085 -19.604 -22.887  0.00  0.00    +0.020 C 
ATOM     15  C   UNL     1      34.797 -17.291 -23.523  0.00  0.00    -0.022 C 
ATOM     16  C   UNL     1      35.100 -16.895 -22.220  0.00  0.00    -0.003 C 
ATOM     17  C   UNL     1      34.789 -18.646 -23.856  0.00  0.00    -0.003 C 
ATOM     18  C   UNL     1      34.480 -16.267 -24.559  0.00  0.00    +0.031 C 
ENDBRANCH   9  12
ENDBRANCH   7   9
ENDBRANCH   6   7
ENDBRANCH   4   6
ENDBRANCH   1   3
BRANCH   1  20
ATOM     19  O   UNL     1      30.612 -24.593 -15.531  0.00  0.00    -0.248 OA
ATOM     20  C   UNL     1      30.940 -23.653 -16.247  0.00  0.00    +0.335 C 
BRANCH  20  21
ATOM     21  O   UNL     1      30.079 -22.774 -16.833  0.00  0.00    -0.443 OA
ATOM     22  C   UNL     1      28.691 -23.116 -16.751  0.00  0.00    +0.256 C 
ENDBRANCH  20  21
ENDBRANCH   1  20
BRANCH   1  23
ATOM     23  C   UNL     1      33.190 -22.873 -15.375  0.00  0.00    +0.057 C 
BRANCH  23  24
ATOM     24  C   UNL     1      34.642 -23.293 -15.364  0.00  0.00    -0.020 C 
ATOM     25  C   UNL     1      34.980 -24.636 -15.202  0.00  0.00    -0.001 C 
ATOM     26  C   UNL     1      35.645 -22.335 -15.517  0.00  0.00    -0.004 C 
ATOM     27  C   UNL     1      36.320 -25.022 -15.194  0.00  0.00    +0.030 C 
ATOM     28  C   UNL     1      36.985 -22.720 -15.509  0.00  0.00    -0.000 C 
ATOM     29  C   UNL     1      37.323 -24.064 -15.347  0.00  0.00    +0.003 C 
BRANCH  27  32
ATOM     30  N   UNL     1      36.866 -26.974 -13.759  0.00  0.00    -0.343 N 
ATOM     31  N   UNL     1      36.819 -27.197 -16.086  0.00  0.00    -0.285 NA
ATOM     32  C   UNL     1      36.673 -26.422 -15.025  0.00  0.00    +0.117 C 
ATOM     33  H   UNL     1      37.105 -27.925 -13.669  0.00  0.00    +0.144 HD
ATOM     34  H   UNL     1      36.766 -26.412 -12.957  0.00  0.00    +0.144 HD
ATOM     35  H   UNL     1      37.057 -28.145 -15.973  0.00  0.00    +0.188 HD
ENDBRANCH  27  32
ENDBRANCH  23  24
ENDBRANCH   1  23
TORSDOF 10
ENDMDL
MODEL 7
REMARK VINA RESULT:     -10.0      4.072     11.535
REMARK  Name = 131624
REMARK  10 active torsions:
REMARK  status: ('A' for Active; 'I' for Inactive)
REMARK    1  A    between atoms: C_1  and  N_3
REMARK    2  A    between atoms: C_1  and  C_20
REMARK    3  A    between atoms: C_1  and  C_23
REMARK    4  A    between atoms: C_4  and  C_6
REMARK    5  A    between atoms: C_6  and  N_7
REMARK    6  A    between atoms: N_7  and  S_9
REMARK    7  A    between atoms: S_9  and  C_12
REMARK    8  A    between atoms: C_20  and  O_21
REMARK    9  A    between atoms: C_23  and  C_24
REMARK   10  A    between atoms: C_27  and  C_32
REMARK                            x       y       z     vdW  Elec       q    Type
REMARK                         _______ _______ _______ _____ _____    ______ ____
ROOT
ATOM      1  C   UNL     1      32.293  -9.021 -22.512  0.00  0.00    +0.176 C 
ENDROOT
BRANCH   1   3
ATOM      2  O   UNL     1      34.828  -9.249 -23.894  0.00  0.00    -0.274 OA
ATOM      3  N   UNL     1      32.751 -10.122 -23.324  0.00  0.00    -0.295 N 
ATOM      4  C   UNL     1      33.990 -10.144 -23.951  0.00  0.00    +0.241 C 
ATOM      5  H   UNL     1      32.154 -10.896 -23.438  0.00  0.00    +0.150 HD
BRANCH   4   6
ATOM      6  C   UNL     1      34.193 -11.422 -24.726  0.00  0.00    +0.176 C 
BRANCH   6   7
ATOM      7  N   UNL     1      34.281 -12.555 -23.794  0.00  0.00    -0.170 NA
ATOM      8  H   UNL     1      35.149 -13.047 -24.010  0.00  0.00    +0.149 HD
BRANCH   7   9
ATOM      9  S   UNL     1      33.049 -13.732 -23.755  0.00  0.00    +0.061 S 
ATOM     10  O   UNL     1      32.709 -14.113 -25.113  0.00  0.00    -0.153 OA
ATOM     11  O   UNL     1      32.011 -13.304 -22.836  0.00  0.00    -0.153 OA
BRANCH   9  12
ATOM     12  C   UNL     1      33.878 -15.097 -22.998  0.00  0.00    +0.122 C 
ATOM     13  C   UNL     1      33.999 -15.155 -21.609  0.00  0.00    +0.020 C 
ATOM     14  C   UNL     1      34.408 -16.117 -23.788  0.00  0.00    +0.020 C 
ATOM     15  C   UNL     1      35.183 -17.253 -21.801  0.00  0.00    -0.022 C 
ATOM     16  C   UNL     1      34.652 -16.233 -21.011  0.00  0.00    -0.003 C 
ATOM     17  C   UNL     1      35.062 -17.194 -23.190  0.00  0.00    -0.003 C 
ATOM     18  C   UNL     1      35.881 -18.405 -21.163  0.00  0.00    +0.031 C 
ENDBRANCH   9  12
ENDBRANCH   7   9
ENDBRANCH   6   7
ENDBRANCH   4   6
ENDBRANCH   1   3
BRANCH   1  20
ATOM     19  O   UNL     1      32.408  -8.785 -20.110  0.00  0.00    -0.248 OA
ATOM     20  C   UNL     1      32.019  -9.437 -21.073  0.00  0.00    +0.335 C 
BRANCH  20  21
ATOM     21  O   UNL     1      31.318 -10.604 -21.000  0.00  0.00    -0.443 OA
ATOM     22  C   UNL     1      31.571 -11.409 -19.843  0.00  0.00    +0.256 C 
ENDBRANCH  20  21
ENDBRANCH   1  20
BRANCH   1  23
ATOM     23  C   UNL     1      31.082  -8.323 -23.149  0.00  0.00    +0.057 C 
BRANCH  23  24
ATOM     24  C   UNL     1      31.246  -6.834 -23.354  0.00  0.00    -0.020 C 
ATOM     25  C   UNL     1      31.778  -6.348 -24.548  0.00  0.00    -0.001 C 
ATOM     26  C   UNL     1      30.864  -5.946 -22.349  0.00  0.00    -0.004 C 
ATOM     27  C   UNL     1      31.928  -4.974 -24.737  0.00  0.00    +0.030 C 
ATOM     28  C   UNL     1      31.013  -4.572 -22.537  0.00  0.00    -0.000 C 
ATOM     29  C   UNL     1      31.545  -4.087 -23.731  0.00  0.00    +0.003 C 
BRANCH  27  32
ATOM     30  N   UNL     1      33.630  -5.024 -26.545  0.00  0.00    -0.343 N 
ATOM     31  N   UNL     1      31.897  -3.456 -26.600  0.00  0.00    -0.285 NA
ATOM     32  C   UNL     1      32.482  -4.467 -25.982  0.00  0.00    +0.117 C 
ATOM     33  H   UNL     1      33.987  -4.664 -27.388  0.00  0.00    +0.144 HD
ATOM     34  H   UNL     1      34.082  -5.775 -26.098  0.00  0.00    +0.144 HD
ATOM     35  H   UNL     1      32.271  -3.111 -27.442  0.00  0.00    +0.188 HD
ENDBRANCH  27  32
ENDBRANCH  23  24
ENDBRANCH   1  23
TORSDOF 10
ENDMDL
MODEL 8
REMARK VINA RESULT:     -10.0      3.895      6.292
REMARK  Name = 131624
REMARK  10 active torsions:
REMARK  status: ('A' for Active; 'I' for Inactive)
REMARK    1  A    between atoms: C_1  and  N_3
REMARK    2  A    between atoms: C_1  and  C_20
REMARK    3  A    between atoms: C_1  and  C_23
REMARK    4  A    between atoms: C_4  and  C_6
REMARK    5  A    between atoms: C_6  and  N_7
REMARK    6  A    between atoms: N_7  and  S_9
REMARK    7  A    between atoms: S_9  and  C_12
REMARK    8  A    between atoms: C_20  and  O_21
REMARK    9  A    between atoms: C_23  and  C_24
REMARK   10  A    between atoms: C_27  and  C_32
REMARK                            x       y       z     vdW  Elec       q    Type
REMARK                         _______ _______ _______ _____ _____    ______ ____
ROOT
ATOM      1  C   UNL     1      34.949 -21.551 -18.555  0.00  0.00    +0.176 C 
ENDROOT
BRANCH   1   3
ATOM      2  O   UNL     1      32.414 -20.518 -19.502  0.00  0.00    -0.274 OA
ATOM      3  N   UNL     1      34.687 -20.892 -19.810  0.00  0.00    -0.295 N 
ATOM      4  C   UNL     1      33.432 -20.426 -20.182  0.00  0.00    +0.241 C 
ATOM      5  H   UNL     1      35.437 -20.765 -20.436  0.00  0.00    +0.150 HD
BRANCH   4   6
ATOM      6  C   UNL     1      33.464 -19.779 -21.543  0.00  0.00    +0.176 C 
BRANCH   6   7
ATOM      7  N   UNL     1      34.852 -19.696 -22.018  0.00  0.00    -0.170 NA
ATOM      8  H   UNL     1      35.381 -20.403 -21.507  0.00  0.00    +0.149 HD
BRANCH   7   9
ATOM      9  S   UNL     1      35.721 -18.237 -21.876  0.00  0.00    +0.061 S 
ATOM     10  O   UNL     1      37.104 -18.464 -22.254  0.00  0.00    -0.153 OA
ATOM     11  O   UNL     1      35.406 -17.617 -20.602  0.00  0.00    -0.153 OA
BRANCH   9  12
ATOM     12  C   UNL     1      34.970 -17.245 -23.131  0.00  0.00    +0.122 C 
ATOM     13  C   UNL     1      34.841 -17.743 -24.429  0.00  0.00    +0.020 C 
ATOM     14  C   UNL     1      34.504 -15.966 -22.825  0.00  0.00    +0.020 C 
ATOM     15  C   UNL     1      33.782 -15.681 -25.113  0.00  0.00    -0.022 C 
ATOM     16  C   UNL     1      34.248 -16.960 -25.419  0.00  0.00    -0.003 C 
ATOM     17  C   UNL     1      33.911 -15.184 -23.816  0.00  0.00    -0.003 C 
ATOM     18  C   UNL     1      33.148 -14.845 -26.172  0.00  0.00    +0.031 C 
ENDBRANCH   9  12
ENDBRANCH   7   9
ENDBRANCH   6   7
ENDBRANCH   4   6
ENDBRANCH   1   3
BRANCH   1  20
ATOM     19  O   UNL     1      37.267 -21.924 -19.127  0.00  0.00    -0.248 OA
ATOM     20  C   UNL     1      36.439 -21.666 -18.260  0.00  0.00    +0.335 C 
BRANCH  20  21
ATOM     21  O   UNL     1      36.718 -21.466 -16.941  0.00  0.00    -0.443 OA
ATOM     22  C   UNL     1      37.562 -22.447 -16.329  0.00  0.00    +0.256 C 
ENDBRANCH  20  21
ENDBRANCH   1  20
BRANCH   1  23
ATOM     23  C   UNL     1      34.242 -22.914 -18.482  0.00  0.00    +0.057 C 
BRANCH  23  24
ATOM     24  C   UNL     1      33.437 -23.141 -17.222  0.00  0.00    -0.020 C 
ATOM     25  C   UNL     1      32.045 -23.064 -17.259  0.00  0.00    -0.001 C 
ATOM     26  C   UNL     1      34.088 -23.430 -16.023  0.00  0.00    -0.004 C 
ATOM     27  C   UNL     1      31.304 -23.276 -16.097  0.00  0.00    +0.030 C 
ATOM     28  C   UNL     1      33.347 -23.642 -14.860  0.00  0.00    -0.000 C 
ATOM     29  C   UNL     1      31.954 -23.565 -14.898  0.00  0.00    +0.003 C 
BRANCH  27  32
ATOM     30  N   UNL     1      29.061 -23.969 -15.287  0.00  0.00    -0.343 N 
ATOM     31  N   UNL     1      29.260 -22.379 -16.989  0.00  0.00    -0.285 NA
ATOM     32  C   UNL     1      29.852 -23.196 -16.135  0.00  0.00    +0.117 C 
ATOM     33  H   UNL     1      28.080 -23.898 -15.330  0.00  0.00    +0.144 HD
ATOM     34  H   UNL     1      29.483 -24.585 -14.646  0.00  0.00    +0.144 HD
ATOM     35  H   UNL     1      28.277 -22.323 -17.015  0.00  0.00    +0.188 HD
ENDBRANCH  27  32
ENDBRANCH  23  24
ENDBRANCH   1  23
TORSDOF 10
ENDMDL
MODEL 9
REMARK VINA RESULT:     -10.0      3.657     10.355
REMARK  Name = 131624
REMARK  10 active torsions:
REMARK  status: ('A' for Active; 'I' for Inactive)
REMARK    1  A    between atoms: C_1  and  N_3
REMARK    2  A    between atoms: C_1  and  C_20
REMARK    3  A    between atoms: C_1  and  C_23
REMARK    4  A    between atoms: C_4  and  C_6
REMARK    5  A    between atoms: C_6  and  N_7
REMARK    6  A    between atoms: N_7  and  S_9
REMARK    7  A    between atoms: S_9  and  C_12
REMARK    8  A    between atoms: C_20  and  O_21
REMARK    9  A    between atoms: C_23  and  C_24
REMARK   10  A    between atoms: C_27  and  C_32
REMARK                            x       y       z     vdW  Elec       q    Type
REMARK                         _______ _______ _______ _____ _____    ______ ____
ROOT
ATOM      1  C   UNL     1      34.351 -18.057 -22.190  0.00  0.00    +0.176 C 
ENDROOT
BRANCH   1   3
ATOM      2  O   UNL     1      35.224 -19.921 -20.153  0.00  0.00    -0.274 OA
ATOM      3  N   UNL     1      33.626 -19.192 -21.675  0.00  0.00    -0.295 N 
ATOM      4  C   UNL     1      34.127 -20.036 -20.692  0.00  0.00    +0.241 C 
ATOM      5  H   UNL     1      32.731 -19.377 -22.040  0.00  0.00    +0.150 HD
BRANCH   4   6
ATOM      6  C   UNL     1      33.147 -21.130 -20.352  0.00  0.00    +0.176 C 
BRANCH   6   7
ATOM      7  N   UNL     1      33.194 -21.405 -18.909  0.00  0.00    -0.170 NA
ATOM      8  H   UNL     1      33.653 -20.605 -18.472  0.00  0.00    +0.149 HD
BRANCH   7   9
ATOM      9  S   UNL     1      33.982 -22.799 -18.326  0.00  0.00    +0.061 S 
ATOM     10  O   UNL     1      35.336 -22.454 -17.934  0.00  0.00    -0.153 OA
ATOM     11  O   UNL     1      33.745 -23.898 -19.243  0.00  0.00    -0.153 OA
BRANCH   9  12
ATOM     12  C   UNL     1      33.062 -23.145 -16.857  0.00  0.00    +0.122 C 
ATOM     13  C   UNL     1      31.672 -23.025 -16.860  0.00  0.00    +0.020 C 
ATOM     14  C   UNL     1      33.726 -23.541 -15.696  0.00  0.00    +0.020 C 
ATOM     15  C   UNL     1      31.609 -23.695 -14.540  0.00  0.00    -0.022 C 
ATOM     16  C   UNL     1      30.946 -23.300 -15.701  0.00  0.00    -0.003 C 
ATOM     17  C   UNL     1      32.999 -23.815 -14.537  0.00  0.00    -0.003 C 
ATOM     18  C   UNL     1      30.833 -23.989 -13.301  0.00  0.00    +0.031 C 
ENDBRANCH   9  12
ENDBRANCH   7   9
ENDBRANCH   6   7
ENDBRANCH   4   6
ENDBRANCH   1   3
BRANCH   1  20
ATOM     19  O   UNL     1      36.753 -18.292 -22.302  0.00  0.00    -0.248 OA
ATOM     20  C   UNL     1      35.666 -18.457 -22.846  0.00  0.00    +0.335 C 
BRANCH  20  21
ATOM     21  O   UNL     1      35.480 -18.990 -24.086  0.00  0.00    -0.443 OA
ATOM     22  C   UNL     1      34.575 -18.280 -24.938  0.00  0.00    +0.256 C 
ENDBRANCH  20  21
ENDBRANCH   1  20
BRANCH   1  23
ATOM     23  C   UNL     1      34.552 -16.984 -21.108  0.00  0.00    +0.057 C 
BRANCH  23  24
ATOM     24  C   UNL     1      33.864 -15.667 -21.388  0.00  0.00    -0.020 C 
ATOM     25  C   UNL     1      34.050 -15.028 -22.613  0.00  0.00    -0.001 C 
ATOM     26  C   UNL     1      33.042 -15.092 -20.419  0.00  0.00    -0.004 C 
ATOM     27  C   UNL     1      33.415 -13.814 -22.871  0.00  0.00    +0.030 C 
ATOM     28  C   UNL     1      32.405 -13.877 -20.676  0.00  0.00    -0.000 C 
ATOM     29  C   UNL     1      32.592 -13.239 -21.902  0.00  0.00    +0.003 C 
BRANCH  27  32
ATOM     30  N   UNL     1      33.168 -13.722 -25.340  0.00  0.00    -0.343 N 
ATOM     31  N   UNL     1      34.215 -11.974 -24.194  0.00  0.00    -0.285 NA
ATOM     32  C   UNL     1      33.608 -13.148 -24.148  0.00  0.00    +0.117 C 
ATOM     33  H   UNL     1      33.310 -13.253 -26.194  0.00  0.00    +0.144 HD
ATOM     34  H   UNL     1      32.717 -14.597 -25.327  0.00  0.00    +0.144 HD
ATOM     35  H   UNL     1      34.346 -11.522 -25.058  0.00  0.00    +0.188 HD
ENDBRANCH  27  32
ENDBRANCH  23  24
ENDBRANCH   1  23
TORSDOF 10
ENDMDL
