MODEL 1
REMARK VINA RESULT:      -8.7      0.000      0.000
REMARK  Name = 745994
REMARK  5 active torsions:
REMARK  status: ('A' for Active; 'I' for Inactive)
REMARK    1  A    between atoms: C_1  and  C_13
REMARK    2  A    between atoms: C_2  and  S_7
REMARK    3  A    between atoms: S_7  and  N_10
REMARK    4  A    between atoms: C_13  and  C_14
REMARK    5  A    between atoms: C_14  and  N_16
REMARK                            x       y       z     vdW  Elec       q    Type
REMARK                         _______ _______ _______ _____ _____    ______ ____
ROOT
ATOM      1  C   UNL     1      35.358 -19.358 -21.056  0.00  0.00    -0.020 C 
ATOM      2  C   UNL     1      34.352 -21.485 -19.559  0.00  0.00    +0.122 C 
ATOM      3  C   UNL     1      36.232 -20.225 -20.401  0.00  0.00    -0.003 C 
ATOM      4  C   UNL     1      33.980 -19.555 -20.962  0.00  0.00    -0.003 C 
ATOM      5  C   UNL     1      35.729 -21.289 -19.653  0.00  0.00    +0.020 C 
ATOM      6  C   UNL     1      33.477 -20.617 -20.213  0.00  0.00    +0.020 C 
ENDROOT
BRANCH   2   7
ATOM      7  S   UNL     1      33.721 -22.817 -18.621  0.00  0.00    +0.057 S 
ATOM      8  O   UNL     1      32.395 -22.456 -18.144  0.00  0.00    -0.153 OA
ATOM      9  O   UNL     1      33.907 -24.046 -19.382  0.00  0.00    -0.153 OA
BRANCH   7  10
ATOM     10  N   UNL     1      34.802 -22.823 -17.298  0.00  0.00    -0.203 NA
ATOM     11  H   UNL     1      35.740 -23.057 -17.626  0.00  0.00    +0.144 HD
ATOM     12  H   UNL     1      34.498 -23.517 -16.614  0.00  0.00    +0.144 HD
ENDBRANCH   7  10
ENDBRANCH   2   7
BRANCH   1  13
ATOM     13  C   UNL     1      35.896 -18.220 -21.857  0.00  0.00    +0.048 C 
BRANCH  13  14
ATOM     14  C   UNL     1      35.325 -18.147 -23.278  0.00  0.00    +0.094 C 
BRANCH  14  16
ATOM     15  O   UNL     1      34.828 -16.845 -25.825  0.00  0.00    -0.275 OA
ATOM     16  N   UNL     1      34.588 -16.933 -23.510  0.00  0.00    -0.304 N 
ATOM     17  C   UNL     1      34.401 -16.382 -24.770  0.00  0.00    +0.223 C 
ATOM     18  C   UNL     1      33.572 -15.126 -24.732  0.00  0.00    +0.095 C 
ATOM     19  H   UNL     1      34.197 -16.469 -22.735  0.00  0.00    +0.149 HD
ENDBRANCH  14  16
ENDBRANCH  13  14
ENDBRANCH   1  13
TORSDOF 5
ENDMDL
MODEL 2
REMARK VINA RESULT:      -8.4      1.707      1.794
REMARK  Name = 745994
REMARK  5 active torsions:
REMARK  status: ('A' for Active; 'I' for Inactive)
REMARK    1  A    between atoms: C_1  and  C_13
REMARK    2  A    between atoms: C_2  and  S_7
REMARK    3  A    between atoms: S_7  and  N_10
REMARK    4  A    between atoms: C_13  and  C_14
REMARK    5  A    between atoms: C_14  and  N_16
REMARK                            x       y       z     vdW  Elec       q    Type
REMARK                         _______ _______ _______ _____ _____    ______ ____
ROOT
ATOM      1  C   UNL     1      34.833 -19.084 -21.134  0.00  0.00    -0.020 C 
ATOM      2  C   UNL     1      34.169 -21.355 -19.656  0.00  0.00    +0.122 C 
ATOM      3  C   UNL     1      35.839 -19.921 -20.652  0.00  0.00    -0.003 C 
ATOM      4  C   UNL     1      33.494 -19.383 -20.877  0.00  0.00    -0.003 C 
ATOM      5  C   UNL     1      35.507 -21.057 -19.913  0.00  0.00    +0.020 C 
ATOM      6  C   UNL     1      33.163 -20.518 -20.138  0.00  0.00    +0.020 C 
ENDROOT
BRANCH   2   7
ATOM      7  S   UNL     1      33.754 -22.777 -18.730  0.00  0.00    +0.057 S 
ATOM      8  O   UNL     1      32.459 -22.555 -18.104  0.00  0.00    -0.153 OA
ATOM      9  O   UNL     1      33.960 -23.950 -19.568  0.00  0.00    -0.153 OA
BRANCH   7  10
ATOM     10  N   UNL     1      34.964 -22.745 -17.524  0.00  0.00    -0.203 NA
ATOM     11  H   UNL     1      35.799 -23.221 -17.868  0.00  0.00    +0.144 HD
ATOM     12  H   UNL     1      34.622 -23.218 -16.688  0.00  0.00    +0.144 HD
ENDBRANCH   7  10
ENDBRANCH   2   7
BRANCH   1  13
ATOM     13  C   UNL     1      35.187 -17.871 -21.925  0.00  0.00    +0.048 C 
BRANCH  13  14
ATOM     14  C   UNL     1      34.660 -16.566 -21.314  0.00  0.00    +0.094 C 
BRANCH  14  16
ATOM     15  O   UNL     1      32.231 -15.028 -21.720  0.00  0.00    -0.275 OA
ATOM     16  N   UNL     1      34.423 -15.554 -22.308  0.00  0.00    -0.304 N 
ATOM     17  C   UNL     1      33.223 -14.867 -22.427  0.00  0.00    +0.223 C 
ATOM     18  C   UNL     1      33.251 -13.845 -23.533  0.00  0.00    +0.095 C 
ATOM     19  H   UNL     1      35.148 -15.336 -22.936  0.00  0.00    +0.149 HD
ENDBRANCH  14  16
ENDBRANCH  13  14
ENDBRANCH   1  13
TORSDOF 5
ENDMDL
MODEL 3
REMARK VINA RESULT:      -8.4      2.236      2.687
REMARK  Name = 745994
REMARK  5 active torsions:
REMARK  status: ('A' for Active; 'I' for Inactive)
REMARK    1  A    between atoms: C_1  and  C_13
REMARK    2  A    between atoms: C_2  and  S_7
REMARK    3  A    between atoms: S_7  and  N_10
REMARK    4  A    between atoms: C_13  and  C_14
REMARK    5  A    between atoms: C_14  and  N_16
REMARK                            x       y       z     vdW  Elec       q    Type
REMARK                         _______ _______ _______ _____ _____    ______ ____
ROOT
ATOM      1  C   UNL     1      34.590 -19.137 -21.176  0.00  0.00    -0.020 C 
ATOM      2  C   UNL     1      34.189 -21.408 -19.607  0.00  0.00    +0.122 C 
ATOM      3  C   UNL     1      33.296 -19.533 -20.841  0.00  0.00    -0.003 C 
ATOM      4  C   UNL     1      35.684 -19.877 -20.727  0.00  0.00    -0.003 C 
ATOM      5  C   UNL     1      33.095 -20.669 -20.056  0.00  0.00    +0.020 C 
ATOM      6  C   UNL     1      35.484 -21.012 -19.943  0.00  0.00    +0.020 C 
ENDROOT
BRANCH   2   7
ATOM      7  S   UNL     1      33.938 -22.830 -18.624  0.00  0.00    +0.057 S 
ATOM      8  O   UNL     1      33.901 -23.993 -19.499  0.00  0.00    -0.153 OA
ATOM      9  O   UNL     1      34.876 -22.793 -17.510  0.00  0.00    -0.153 OA
BRANCH   7  10
ATOM     10  N   UNL     1      32.364 -22.538 -18.027  0.00  0.00    -0.203 NA
ATOM     11  H   UNL     1      31.844 -21.975 -18.701  0.00  0.00    +0.144 HD
ATOM     12  H   UNL     1      32.425 -22.037 -17.140  0.00  0.00    +0.144 HD
ENDBRANCH   7  10
ENDBRANCH   2   7
BRANCH   1  13
ATOM     13  C   UNL     1      34.805 -17.923 -22.015  0.00  0.00    +0.048 C 
BRANCH  13  14
ATOM     14  C   UNL     1      34.933 -16.630 -21.201  0.00  0.00    +0.094 C 
BRANCH  14  16
ATOM     15  O   UNL     1      32.213 -15.792 -20.627  0.00  0.00    -0.275 OA
ATOM     16  N   UNL     1      34.212 -15.536 -21.795  0.00  0.00    -0.304 N 
ATOM     17  C   UNL     1      32.907 -15.208 -21.456  0.00  0.00    +0.223 C 
ATOM     18  C   UNL     1      32.400 -14.006 -22.208  0.00  0.00    +0.095 C 
ATOM     19  H   UNL     1      34.667 -14.992 -22.477  0.00  0.00    +0.149 HD
ENDBRANCH  14  16
ENDBRANCH  13  14
ENDBRANCH   1  13
TORSDOF 5
ENDMDL
MODEL 4
REMARK VINA RESULT:      -7.8      3.075      7.160
REMARK  Name = 745994
REMARK  5 active torsions:
REMARK  status: ('A' for Active; 'I' for Inactive)
REMARK    1  A    between atoms: C_1  and  C_13
REMARK    2  A    between atoms: C_2  and  S_7
REMARK    3  A    between atoms: S_7  and  N_10
REMARK    4  A    between atoms: C_13  and  C_14
REMARK    5  A    between atoms: C_14  and  N_16
REMARK                            x       y       z     vdW  Elec       q    Type
REMARK                         _______ _______ _______ _____ _____    ______ ____
ROOT
ATOM      1  C   UNL     1      34.612 -21.570 -19.189  0.00  0.00    -0.020 C 
ATOM      2  C   UNL     1      34.768 -19.640 -21.197  0.00  0.00    +0.122 C 
ATOM      3  C   UNL     1      35.857 -21.126 -19.635  0.00  0.00    -0.003 C 
ATOM      4  C   UNL     1      33.445 -21.049 -19.748  0.00  0.00    -0.003 C 
ATOM      5  C   UNL     1      35.935 -20.161 -20.638  0.00  0.00    +0.020 C 
ATOM      6  C   UNL     1      33.523 -20.085 -20.752  0.00  0.00    +0.020 C 
ENDROOT
BRANCH   2   7
ATOM      7  S   UNL     1      34.866 -18.432 -22.454  0.00  0.00    +0.057 S 
ATOM      8  O   UNL     1      34.390 -19.022 -23.697  0.00  0.00    -0.153 OA
ATOM      9  O   UNL     1      34.263 -17.201 -21.960  0.00  0.00    -0.153 OA
BRANCH   7  10
ATOM     10  N   UNL     1      36.557 -18.210 -22.560  0.00  0.00    -0.203 NA
ATOM     11  H   UNL     1      36.919 -18.735 -23.357  0.00  0.00    +0.144 HD
ATOM     12  H   UNL     1      36.998 -18.545 -21.703  0.00  0.00    +0.144 HD
ENDBRANCH   7  10
ENDBRANCH   2   7
BRANCH   1  13
ATOM     13  C   UNL     1      34.527 -22.602 -18.116  0.00  0.00    +0.048 C 
BRANCH  13  14
ATOM     14  C   UNL     1      33.129 -23.211 -17.959  0.00  0.00    +0.094 C 
BRANCH  14  16
ATOM     15  O   UNL     1      30.457 -22.640 -16.976  0.00  0.00    -0.275 OA
ATOM     16  N   UNL     1      32.683 -23.211 -16.591  0.00  0.00    -0.304 N 
ATOM     17  C   UNL     1      31.378 -22.924 -16.213  0.00  0.00    +0.223 C 
ATOM     18  C   UNL     1      31.175 -23.019 -14.724  0.00  0.00    +0.095 C 
ATOM     19  H   UNL     1      33.336 -23.425 -15.886  0.00  0.00    +0.149 HD
ENDBRANCH  14  16
ENDBRANCH  13  14
ENDBRANCH   1  13
TORSDOF 5
ENDMDL
MODEL 5
REMARK VINA RESULT:      -7.7      5.056      7.313
REMARK  Name = 745994
REMARK  5 active torsions:
REMARK  status: ('A' for Active; 'I' for Inactive)
REMARK    1  A    between atoms: C_1  and  C_13
REMARK    2  A    between atoms: C_2  and  S_7
REMARK    3  A    between atoms: S_7  and  N_10
REMARK    4  A    between atoms: C_13  and  C_14
REMARK    5  A    between atoms: C_14  and  N_16
REMARK                            x       y       z     vdW  Elec       q    Type
REMARK                         _______ _______ _______ _____ _____    ______ ____
ROOT
ATOM      1  C   UNL     1      34.786 -23.625 -15.655  0.00  0.00    -0.020 C 
ATOM      2  C   UNL     1      37.280 -24.602 -14.873  0.00  0.00    +0.122 C 
ATOM      3  C   UNL     1      35.937 -22.876 -15.901  0.00  0.00    -0.003 C 
ATOM      4  C   UNL     1      34.883 -24.862 -15.017  0.00  0.00    -0.003 C 
ATOM      5  C   UNL     1      37.184 -23.365 -15.510  0.00  0.00    +0.020 C 
ATOM      6  C   UNL     1      36.129 -25.350 -14.626  0.00  0.00    +0.020 C 
ENDROOT
BRANCH   2   7
ATOM      7  S   UNL     1      38.841 -25.213 -14.384  0.00  0.00    +0.057 S 
ATOM      8  O   UNL     1      39.172 -24.642 -13.087  0.00  0.00    -0.153 OA
ATOM      9  O   UNL     1      38.847 -26.659 -14.561  0.00  0.00    -0.153 OA
BRANCH   7  10
ATOM     10  N   UNL     1      39.851 -24.512 -15.571  0.00  0.00    -0.203 NA
ATOM     11  H   UNL     1      40.726 -24.212 -15.139  0.00  0.00    +0.144 HD
ATOM     12  H   UNL     1      39.381 -23.705 -15.983  0.00  0.00    +0.144 HD
ENDBRANCH   7  10
ENDBRANCH   2   7
BRANCH   1  13
ATOM     13  C   UNL     1      33.453 -23.103 -16.072  0.00  0.00    +0.048 C 
BRANCH  13  14
ATOM     14  C   UNL     1      33.044 -23.527 -17.487  0.00  0.00    +0.094 C 
BRANCH  14  16
ATOM     15  O   UNL     1      35.000 -22.497 -19.369  0.00  0.00    -0.275 OA
ATOM     16  N   UNL     1      32.896 -22.404 -18.373  0.00  0.00    -0.304 N 
ATOM     17  C   UNL     1      33.892 -21.982 -19.244  0.00  0.00    +0.223 C 
ATOM     18  C   UNL     1      33.468 -20.800 -20.075  0.00  0.00    +0.095 C 
ATOM     19  H   UNL     1      32.046 -21.908 -18.363  0.00  0.00    +0.149 HD
ENDBRANCH  14  16
ENDBRANCH  13  14
ENDBRANCH   1  13
TORSDOF 5
ENDMDL
MODEL 6
REMARK VINA RESULT:      -7.7      5.458      7.467
REMARK  Name = 745994
REMARK  5 active torsions:
REMARK  status: ('A' for Active; 'I' for Inactive)
REMARK    1  A    between atoms: C_1  and  C_13
REMARK    2  A    between atoms: C_2  and  S_7
REMARK    3  A    between atoms: S_7  and  N_10
REMARK    4  A    between atoms: C_13  and  C_14
REMARK    5  A    between atoms: C_14  and  N_16
REMARK                            x       y       z     vdW  Elec       q    Type
REMARK                         _______ _______ _______ _____ _____    ______ ____
ROOT
ATOM      1  C   UNL     1      34.136 -23.391 -15.201  0.00  0.00    -0.020 C 
ATOM      2  C   UNL     1      36.241 -23.654 -13.389  0.00  0.00    +0.122 C 
ATOM      3  C   UNL     1      35.391 -22.864 -15.508  0.00  0.00    -0.003 C 
ATOM      4  C   UNL     1      33.934 -24.049 -13.987  0.00  0.00    -0.003 C 
ATOM      5  C   UNL     1      36.443 -22.996 -14.602  0.00  0.00    +0.020 C 
ATOM      6  C   UNL     1      34.985 -24.180 -13.082  0.00  0.00    +0.020 C 
ENDROOT
BRANCH   2   7
ATOM      7  S   UNL     1      37.558 -23.819 -12.254  0.00  0.00    +0.057 S 
ATOM      8  O   UNL     1      37.066 -24.520 -11.078  0.00  0.00    -0.153 OA
ATOM      9  O   UNL     1      38.721 -24.330 -12.968  0.00  0.00    -0.153 OA
BRANCH   7  10
ATOM     10  N   UNL     1      37.841 -22.184 -11.845  0.00  0.00    -0.203 NA
ATOM     11  H   UNL     1      37.269 -21.582 -12.437  0.00  0.00    +0.144 HD
ATOM     12  H   UNL     1      38.827 -21.964 -11.989  0.00  0.00    +0.144 HD
ENDBRANCH   7  10
ENDBRANCH   2   7
BRANCH   1  13
ATOM     13  C   UNL     1      33.011 -23.250 -16.169  0.00  0.00    +0.048 C 
BRANCH  13  14
ATOM     14  C   UNL     1      33.431 -23.443 -17.631  0.00  0.00    +0.094 C 
BRANCH  14  16
ATOM     15  O   UNL     1      34.999 -21.711 -19.355  0.00  0.00    -0.275 OA
ATOM     16  N   UNL     1      32.948 -22.389 -18.483  0.00  0.00    -0.304 N 
ATOM     17  C   UNL     1      33.777 -21.609 -19.277  0.00  0.00    +0.223 C 
ATOM     18  C   UNL     1      33.011 -20.597 -20.088  0.00  0.00    +0.095 C 
ATOM     19  H   UNL     1      31.980 -22.213 -18.504  0.00  0.00    +0.149 HD
ENDBRANCH  14  16
ENDBRANCH  13  14
ENDBRANCH   1  13
TORSDOF 5
ENDMDL
MODEL 7
REMARK VINA RESULT:      -7.7      5.484      7.451
REMARK  Name = 745994
REMARK  5 active torsions:
REMARK  status: ('A' for Active; 'I' for Inactive)
REMARK    1  A    between atoms: C_1  and  C_13
REMARK    2  A    between atoms: C_2  and  S_7
REMARK    3  A    between atoms: S_7  and  N_10
REMARK    4  A    between atoms: C_13  and  C_14
REMARK    5  A    between atoms: C_14  and  N_16
REMARK                            x       y       z     vdW  Elec       q    Type
REMARK                         _______ _______ _______ _____ _____    ______ ____
ROOT
ATOM      1  C   UNL     1      33.545 -23.555 -15.386  0.00  0.00    -0.020 C 
ATOM      2  C   UNL     1      35.124 -24.236 -13.189  0.00  0.00    +0.122 C 
ATOM      3  C   UNL     1      32.946 -24.006 -14.210  0.00  0.00    -0.003 C 
ATOM      4  C   UNL     1      34.934 -23.445 -15.463  0.00  0.00    -0.003 C 
ATOM      5  C   UNL     1      33.736 -24.346 -13.111  0.00  0.00    +0.020 C 
ATOM      6  C   UNL     1      35.723 -23.785 -14.366  0.00  0.00    +0.020 C 
ENDROOT
BRANCH   2   7
ATOM      7  S   UNL     1      36.112 -24.662 -11.814  0.00  0.00    +0.057 S 
ATOM      8  O   UNL     1      37.185 -23.684 -11.699  0.00  0.00    -0.153 OA
ATOM      9  O   UNL     1      35.237 -24.913 -10.676  0.00  0.00    -0.153 OA
BRANCH   7  10
ATOM     10  N   UNL     1      36.773 -26.148 -12.336  0.00  0.00    -0.203 NA
ATOM     11  H   UNL     1      36.065 -26.880 -12.260  0.00  0.00    +0.144 HD
ATOM     12  H   UNL     1      37.574 -26.388 -11.752  0.00  0.00    +0.144 HD
ENDBRANCH   7  10
ENDBRANCH   2   7
BRANCH   1  13
ATOM     13  C   UNL     1      32.702 -23.191 -16.561  0.00  0.00    +0.048 C 
BRANCH  13  14
ATOM     14  C   UNL     1      33.475 -23.162 -17.885  0.00  0.00    +0.094 C 
BRANCH  14  16
ATOM     15  O   UNL     1      34.962 -21.234 -19.467  0.00  0.00    -0.275 OA
ATOM     16  N   UNL     1      32.944 -22.193 -18.807  0.00  0.00    -0.304 N 
ATOM     17  C   UNL     1      33.736 -21.307 -19.524  0.00  0.00    +0.223 C 
ATOM     18  C   UNL     1      32.930 -20.420 -20.434  0.00  0.00    +0.095 C 
ATOM     19  H   UNL     1      31.969 -22.156 -18.936  0.00  0.00    +0.149 HD
ENDBRANCH  14  16
ENDBRANCH  13  14
ENDBRANCH   1  13
TORSDOF 5
ENDMDL
MODEL 8
REMARK VINA RESULT:      -7.6      7.846     10.089
REMARK  Name = 745994
REMARK  5 active torsions:
REMARK  status: ('A' for Active; 'I' for Inactive)
REMARK    1  A    between atoms: C_1  and  C_13
REMARK    2  A    between atoms: C_2  and  S_7
REMARK    3  A    between atoms: S_7  and  N_10
REMARK    4  A    between atoms: C_13  and  C_14
REMARK    5  A    between atoms: C_14  and  N_16
REMARK                            x       y       z     vdW  Elec       q    Type
REMARK                         _______ _______ _______ _____ _____    ______ ____
ROOT
ATOM      1  C   UNL     1      32.439 -23.550 -15.218  0.00  0.00    -0.020 C 
ATOM      2  C   UNL     1      29.775 -23.155 -15.944  0.00  0.00    +0.122 C 
ATOM      3  C   UNL     1      32.126 -23.073 -16.490  0.00  0.00    -0.003 C 
ATOM      4  C   UNL     1      31.419 -23.830 -14.308  0.00  0.00    -0.003 C 
ATOM      5  C   UNL     1      30.794 -22.875 -16.853  0.00  0.00    +0.020 C 
ATOM      6  C   UNL     1      30.088 -23.633 -14.671  0.00  0.00    +0.020 C 
ENDROOT
BRANCH   2   7
ATOM      7  S   UNL     1      28.107 -22.908 -16.398  0.00  0.00    +0.057 S 
ATOM      8  O   UNL     1      27.289 -22.975 -15.196  0.00  0.00    -0.153 OA
ATOM      9  O   UNL     1      28.032 -21.736 -17.260  0.00  0.00    -0.153 OA
BRANCH   7  10
ATOM     10  N   UNL     1      27.817 -24.303 -17.342  0.00  0.00    -0.203 NA
ATOM     11  H   UNL     1      28.656 -24.884 -17.355  0.00  0.00    +0.144 HD
ATOM     12  H   UNL     1      27.581 -24.024 -18.296  0.00  0.00    +0.144 HD
ENDBRANCH   7  10
ENDBRANCH   2   7
BRANCH   1  13
ATOM     13  C   UNL     1      33.863 -23.762 -14.829  0.00  0.00    +0.048 C 
BRANCH  13  14
ATOM     14  C   UNL     1      34.041 -24.213 -13.374  0.00  0.00    +0.094 C 
BRANCH  14  16
ATOM     15  O   UNL     1      35.302 -24.990 -10.877  0.00  0.00    -0.275 OA
ATOM     16  N   UNL     1      35.189 -23.611 -12.751  0.00  0.00    -0.304 N 
ATOM     17  C   UNL     1      35.726 -24.052 -11.549  0.00  0.00    +0.223 C 
ATOM     18  C   UNL     1      36.939 -23.263 -11.135  0.00  0.00    +0.095 C 
ATOM     19  H   UNL     1      35.617 -22.847 -13.199  0.00  0.00    +0.149 HD
ENDBRANCH  14  16
ENDBRANCH  13  14
ENDBRANCH   1  13
TORSDOF 5
ENDMDL
MODEL 9
REMARK VINA RESULT:      -7.6      8.068      9.732
REMARK  Name = 745994
REMARK  5 active torsions:
REMARK  status: ('A' for Active; 'I' for Inactive)
REMARK    1  A    between atoms: C_1  and  C_13
REMARK    2  A    between atoms: C_2  and  S_7
REMARK    3  A    between atoms: S_7  and  N_10
REMARK    4  A    between atoms: C_13  and  C_14
REMARK    5  A    between atoms: C_14  and  N_16
REMARK                            x       y       z     vdW  Elec       q    Type
REMARK                         _______ _______ _______ _____ _____    ______ ____
ROOT
ATOM      1  C   UNL     1      32.247 -24.219 -14.615  0.00  0.00    -0.020 C 
ATOM      2  C   UNL     1      29.771 -23.496 -15.679  0.00  0.00    +0.122 C 
ATOM      3  C   UNL     1      31.079 -24.810 -14.131  0.00  0.00    -0.003 C 
ATOM      4  C   UNL     1      32.175 -23.266 -15.632  0.00  0.00    -0.003 C 
ATOM      5  C   UNL     1      29.842 -24.449 -14.663  0.00  0.00    +0.020 C 
ATOM      6  C   UNL     1      30.938 -22.904 -16.163  0.00  0.00    +0.020 C 
ENDROOT
BRANCH   2   7
ATOM      7  S   UNL     1      28.222 -23.043 -16.346  0.00  0.00    +0.057 S 
ATOM      8  O   UNL     1      27.257 -22.972 -15.258  0.00  0.00    -0.153 OA
ATOM      9  O   UNL     1      28.412 -21.894 -17.220  0.00  0.00    -0.153 OA
BRANCH   7  10
ATOM     10  N   UNL     1      27.870 -24.411 -17.307  0.00  0.00    -0.203 NA
ATOM     11  H   UNL     1      27.820 -24.133 -18.288  0.00  0.00    +0.144 HD
ATOM     12  H   UNL     1      26.974 -24.807 -17.021  0.00  0.00    +0.144 HD
ENDBRANCH   7  10
ENDBRANCH   2   7
BRANCH   1  13
ATOM     13  C   UNL     1      33.570 -24.605 -14.047  0.00  0.00    +0.048 C 
BRANCH  13  14
ATOM     14  C   UNL     1      34.737 -24.407 -15.021  0.00  0.00    +0.094 C 
BRANCH  14  16
ATOM     15  O   UNL     1      36.160 -26.787 -15.882  0.00  0.00    -0.275 OA
ATOM     16  N   UNL     1      35.977 -24.920 -14.501  0.00  0.00    -0.304 N 
ATOM     17  C   UNL     1      36.586 -26.072 -14.979  0.00  0.00    +0.223 C 
ATOM     18  C   UNL     1      37.885 -26.370 -14.277  0.00  0.00    +0.095 C 
ATOM     19  H   UNL     1      36.416 -24.429 -13.770  0.00  0.00    +0.149 HD
ENDBRANCH  14  16
ENDBRANCH  13  14
ENDBRANCH   1  13
TORSDOF 5
ENDMDL
