MODEL 1
REMARK VINA RESULT:      -9.6      0.000      0.000
REMARK  Name = 25058133
REMARK  6 active torsions:
REMARK  status: ('A' for Active; 'I' for Inactive)
REMARK    1  A    between atoms: C_5  and  C_13
REMARK    2  A    between atoms: C_6  and  C_16
REMARK    3  A    between atoms: C_15  and  C_17
REMARK    4  A    between atoms: C_17  and  C_18
REMARK    5  A    between atoms: C_19  and  O_24
REMARK    6  A    between atoms: C_21  and  O_26
REMARK                            x       y       z     vdW  Elec       q    Type
REMARK                         _______ _______ _______ _____ _____    ______ ____
ROOT
ATOM      1  N   UNL     1      34.774 -22.457 -18.084  0.00  0.00    -0.336 NA
ATOM      2  N   UNL     1      32.602 -21.999 -19.019  0.00  0.00    -0.317 NA
ATOM      3  N   UNL     1      32.357 -20.456 -20.794  0.00  0.00    -0.334 N 
ATOM      4  N   UNL     1      32.857 -23.528 -17.257  0.00  0.00    -0.283 N 
ATOM      5  C   UNL     1      35.297 -21.579 -18.965  0.00  0.00    +0.120 C 
ATOM      6  C   UNL     1      34.548 -20.883 -19.890  0.00  0.00    +0.179 C 
ATOM      7  C   UNL     1      33.191 -21.135 -19.872  0.00  0.00    +0.186 C 
ATOM      8  C   UNL     1      33.439 -22.616 -18.165  0.00  0.00    +0.196 C 
ATOM      9  H   UNL     1      31.388 -20.623 -20.797  0.00  0.00    +0.144 HD
ATOM     10  H   UNL     1      32.749 -19.817 -21.434  0.00  0.00    +0.144 HD
ATOM     11  H   UNL     1      33.422 -24.008 -16.611  0.00  0.00    +0.156 HD
ATOM     12  H   UNL     1      31.884 -23.683 -17.273  0.00  0.00    +0.156 HD
ENDROOT
BRANCH   5  13
ATOM     13  C   UNL     1      36.779 -21.397 -18.880  0.00  0.00    +0.057 C 
ATOM     14  C   UNL     1      37.282 -21.421 -17.441  0.00  0.00    +0.008 C 
ENDBRANCH   5  13
BRANCH   6  16
ATOM     15  C   UNL     1      35.654 -19.191 -21.575  0.00  0.00    -0.085 C 
ATOM     16  C   UNL     1      35.148 -19.961 -20.805  0.00  0.00    -0.076 C 
BRANCH  15  17
ATOM     17  C   UNL     1      36.281 -18.258 -22.527  0.00  0.00    +0.105 C 
BRANCH  17  18
ATOM     18  C   UNL     1      35.329 -17.216 -23.015  0.00  0.00    +0.028 C 
ATOM     19  C   UNL     1      34.784 -16.281 -22.135  0.00  0.00    +0.136 C 
ATOM     20  C   UNL     1      34.986 -17.184 -24.367  0.00  0.00    +0.037 C 
ATOM     21  C   UNL     1      34.101 -16.216 -24.840  0.00  0.00    +0.139 C 
ATOM     22  C   UNL     1      33.897 -15.314 -22.608  0.00  0.00    +0.040 C 
ATOM     23  C   UNL     1      33.555 -15.281 -23.959  0.00  0.00    +0.040 C 
BRANCH  19  24
ATOM     24  O   UNL     1      35.106 -16.299 -20.811  0.00  0.00    -0.472 OA
ATOM     25  C   UNL     1      34.690 -15.182 -20.029  0.00  0.00    +0.252 C 
ENDBRANCH  19  24
BRANCH  21  26
ATOM     26  O   UNL     1      33.765 -16.185 -26.159  0.00  0.00    -0.471 OA
ATOM     27  C   UNL     1      33.049 -15.040 -26.620  0.00  0.00    +0.252 C 
ENDBRANCH  21  26
ENDBRANCH  17  18
ENDBRANCH  15  17
ENDBRANCH   6  16
TORSDOF 6
ENDMDL
MODEL 2
REMARK VINA RESULT:      -9.5      1.093      2.589
REMARK  Name = 25058133
REMARK  6 active torsions:
REMARK  status: ('A' for Active; 'I' for Inactive)
REMARK    1  A    between atoms: C_5  and  C_13
REMARK    2  A    between atoms: C_6  and  C_16
REMARK    3  A    between atoms: C_15  and  C_17
REMARK    4  A    between atoms: C_17  and  C_18
REMARK    5  A    between atoms: C_19  and  O_24
REMARK    6  A    between atoms: C_21  and  O_26
REMARK                            x       y       z     vdW  Elec       q    Type
REMARK                         _______ _______ _______ _____ _____    ______ ____
ROOT
ATOM      1  N   UNL     1      34.871 -22.605 -17.957  0.00  0.00    -0.336 NA
ATOM      2  N   UNL     1      32.689 -22.239 -18.909  0.00  0.00    -0.317 NA
ATOM      3  N   UNL     1      32.381 -20.660 -20.643  0.00  0.00    -0.334 N 
ATOM      4  N   UNL     1      33.006 -23.803 -17.189  0.00  0.00    -0.283 N 
ATOM      5  C   UNL     1      35.356 -21.673 -18.805  0.00  0.00    +0.120 C 
ATOM      6  C   UNL     1      34.581 -20.992 -19.720  0.00  0.00    +0.179 C 
ATOM      7  C   UNL     1      33.240 -21.319 -19.728  0.00  0.00    +0.186 C 
ATOM      8  C   UNL     1      33.548 -22.834 -18.062  0.00  0.00    +0.196 C 
ATOM      9  H   UNL     1      31.422 -20.880 -20.664  0.00  0.00    +0.144 HD
ATOM     10  H   UNL     1      32.745 -19.982 -21.257  0.00  0.00    +0.144 HD
ATOM     11  H   UNL     1      33.589 -24.270 -16.548  0.00  0.00    +0.156 HD
ATOM     12  H   UNL     1      32.044 -24.011 -17.223  0.00  0.00    +0.156 HD
ENDROOT
BRANCH   5  13
ATOM     13  C   UNL     1      36.824 -21.412 -18.694  0.00  0.00    +0.057 C 
ATOM     14  C   UNL     1      37.289 -21.337 -17.244  0.00  0.00    +0.008 C 
ENDBRANCH   5  13
BRANCH   6  16
ATOM     15  C   UNL     1      35.611 -19.187 -21.334  0.00  0.00    -0.085 C 
ATOM     16  C   UNL     1      35.140 -20.012 -20.599  0.00  0.00    -0.076 C 
BRANCH  15  17
ATOM     17  C   UNL     1      36.193 -18.167 -22.224  0.00  0.00    +0.105 C 
BRANCH  17  18
ATOM     18  C   UNL     1      35.249 -17.041 -22.494  0.00  0.00    +0.028 C 
ATOM     19  C   UNL     1      34.748 -16.825 -23.778  0.00  0.00    +0.136 C 
ATOM     20  C   UNL     1      34.868 -16.203 -21.446  0.00  0.00    +0.037 C 
ATOM     21  C   UNL     1      33.985 -15.149 -21.681  0.00  0.00    +0.139 C 
ATOM     22  C   UNL     1      33.866 -15.770 -24.013  0.00  0.00    +0.040 C 
ATOM     23  C   UNL     1      33.484 -14.932 -22.966  0.00  0.00    +0.040 C 
BRANCH  19  24
ATOM     24  O   UNL     1      35.110 -17.633 -24.813  0.00  0.00    -0.472 OA
ATOM     25  C   UNL     1      34.210 -18.682 -25.162  0.00  0.00    +0.252 C 
ENDBRANCH  19  24
BRANCH  21  26
ATOM     26  O   UNL     1      33.614 -14.330 -20.660  0.00  0.00    -0.471 OA
ATOM     27  C   UNL     1      32.459 -13.517 -20.865  0.00  0.00    +0.252 C 
ENDBRANCH  21  26
ENDBRANCH  17  18
ENDBRANCH  15  17
ENDBRANCH   6  16
TORSDOF 6
ENDMDL
MODEL 3
REMARK VINA RESULT:      -9.3      4.459      6.810
REMARK  Name = 25058133
REMARK  6 active torsions:
REMARK  status: ('A' for Active; 'I' for Inactive)
REMARK    1  A    between atoms: C_5  and  C_13
REMARK    2  A    between atoms: C_6  and  C_16
REMARK    3  A    between atoms: C_15  and  C_17
REMARK    4  A    between atoms: C_17  and  C_18
REMARK    5  A    between atoms: C_19  and  O_24
REMARK    6  A    between atoms: C_21  and  O_26
REMARK                            x       y       z     vdW  Elec       q    Type
REMARK                         _______ _______ _______ _____ _____    ______ ____
ROOT
ATOM      1  N   UNL     1      35.000 -17.157 -20.819  0.00  0.00    -0.336 NA
ATOM      2  N   UNL     1      35.426 -18.068 -23.008  0.00  0.00    -0.317 NA
ATOM      3  N   UNL     1      35.116 -16.745 -24.943  0.00  0.00    -0.334 N 
ATOM      4  N   UNL     1      35.730 -19.372 -21.080  0.00  0.00    -0.283 N 
ATOM      5  C   UNL     1      34.660 -15.993 -21.410  0.00  0.00    +0.120 C 
ATOM      6  C   UNL     1      34.677 -15.793 -22.775  0.00  0.00    +0.179 C 
ATOM      7  C   UNL     1      35.073 -16.876 -23.532  0.00  0.00    +0.186 C 
ATOM      8  C   UNL     1      35.367 -18.138 -21.665  0.00  0.00    +0.196 C 
ATOM      9  H   UNL     1      35.396 -17.506 -25.500  0.00  0.00    +0.144 HD
ATOM     10  H   UNL     1      34.866 -15.891 -25.365  0.00  0.00    +0.144 HD
ATOM     11  H   UNL     1      35.706 -19.479 -20.102  0.00  0.00    +0.156 HD
ATOM     12  H   UNL     1      36.007 -20.124 -21.652  0.00  0.00    +0.156 HD
ENDROOT
BRANCH   5  13
ATOM     13  C   UNL     1      34.250 -14.899 -20.477  0.00  0.00    +0.057 C 
ATOM     14  C   UNL     1      32.751 -14.908 -20.200  0.00  0.00    +0.008 C 
ENDBRANCH   5  13
BRANCH   6  16
ATOM     15  C   UNL     1      33.998 -13.485 -23.842  0.00  0.00    -0.085 C 
ATOM     16  C   UNL     1      34.308 -14.539 -23.357  0.00  0.00    -0.076 C 
BRANCH  15  17
ATOM     17  C   UNL     1      33.615 -12.187 -24.422  0.00  0.00    +0.105 C 
BRANCH  17  18
ATOM     18  C   UNL     1      33.034 -11.258 -23.408  0.00  0.00    +0.028 C 
ATOM     19  C   UNL     1      33.340  -9.897 -23.429  0.00  0.00    +0.136 C 
ATOM     20  C   UNL     1      32.175 -11.764 -22.431  0.00  0.00    +0.037 C 
ATOM     21  C   UNL     1      31.622 -10.910 -21.478  0.00  0.00    +0.139 C 
ATOM     22  C   UNL     1      32.788  -9.043 -22.475  0.00  0.00    +0.040 C 
ATOM     23  C   UNL     1      31.929  -9.548 -21.499  0.00  0.00    +0.040 C 
BRANCH  19  24
ATOM     24  O   UNL     1      34.178  -9.386 -24.375  0.00  0.00    -0.472 OA
ATOM     25  C   UNL     1      34.691  -8.076 -24.145  0.00  0.00    +0.252 C 
ENDBRANCH  19  24
BRANCH  21  26
ATOM     26  O   UNL     1      30.785 -11.402 -20.525  0.00  0.00    -0.471 OA
ATOM     27  C   UNL     1      30.863 -10.817 -19.226  0.00  0.00    +0.252 C 
ENDBRANCH  21  26
ENDBRANCH  17  18
ENDBRANCH  15  17
ENDBRANCH   6  16
TORSDOF 6
ENDMDL
MODEL 4
REMARK VINA RESULT:      -9.2      5.534      8.798
REMARK  Name = 25058133
REMARK  6 active torsions:
REMARK  status: ('A' for Active; 'I' for Inactive)
REMARK    1  A    between atoms: C_5  and  C_13
REMARK    2  A    between atoms: C_6  and  C_16
REMARK    3  A    between atoms: C_15  and  C_17
REMARK    4  A    between atoms: C_17  and  C_18
REMARK    5  A    between atoms: C_19  and  O_24
REMARK    6  A    between atoms: C_21  and  O_26
REMARK                            x       y       z     vdW  Elec       q    Type
REMARK                         _______ _______ _______ _____ _____    ______ ____
ROOT
ATOM      1  N   UNL     1      31.181  -9.555 -22.245  0.00  0.00    -0.336 NA
ATOM      2  N   UNL     1      32.820  -9.598 -24.010  0.00  0.00    -0.317 NA
ATOM      3  N   UNL     1      34.180 -11.504 -24.343  0.00  0.00    -0.334 N 
ATOM      4  N   UNL     1      31.466  -7.712 -23.669  0.00  0.00    -0.283 N 
ATOM      5  C   UNL     1      31.564 -10.804 -21.909  0.00  0.00    +0.120 C 
ATOM      6  C   UNL     1      32.554 -11.505 -22.566  0.00  0.00    +0.179 C 
ATOM      7  C   UNL     1      33.154 -10.846 -23.620  0.00  0.00    +0.186 C 
ATOM      8  C   UNL     1      31.841  -9.020 -23.290  0.00  0.00    +0.196 C 
ATOM      9  H   UNL     1      34.619 -11.050 -25.097  0.00  0.00    +0.144 HD
ATOM     10  H   UNL     1      34.452 -12.415 -24.090  0.00  0.00    +0.144 HD
ATOM     11  H   UNL     1      30.754  -7.242 -23.178  0.00  0.00    +0.156 HD
ATOM     12  H   UNL     1      31.916  -7.272 -24.427  0.00  0.00    +0.156 HD
ENDROOT
BRANCH   5  13
ATOM     13  C   UNL     1      30.835 -11.405 -20.750  0.00  0.00    +0.057 C 
ATOM     14  C   UNL     1      31.271 -10.802 -19.419  0.00  0.00    +0.008 C 
ENDBRANCH   5  13
BRANCH   6  16
ATOM     15  C   UNL     1      33.244 -13.941 -21.846  0.00  0.00    -0.085 C 
ATOM     16  C   UNL     1      32.927 -12.829 -22.173  0.00  0.00    -0.076 C 
BRANCH  15  17
ATOM     17  C   UNL     1      33.645 -15.303 -21.454  0.00  0.00    +0.105 C 
BRANCH  17  18
ATOM     18  C   UNL     1      34.086 -16.125 -22.620  0.00  0.00    +0.028 C 
ATOM     19  C   UNL     1      34.791 -17.313 -22.428  0.00  0.00    +0.136 C 
ATOM     20  C   UNL     1      33.785 -15.694 -23.913  0.00  0.00    +0.037 C 
ATOM     21  C   UNL     1      34.187 -16.451 -25.012  0.00  0.00    +0.139 C 
ATOM     22  C   UNL     1      35.194 -18.070 -23.528  0.00  0.00    +0.040 C 
ATOM     23  C   UNL     1      34.893 -17.640 -24.820  0.00  0.00    +0.040 C 
BRANCH  19  24
ATOM     24  O   UNL     1      35.095 -17.748 -21.173  0.00  0.00    -0.472 OA
ATOM     25  C   UNL     1      36.027 -18.822 -21.068  0.00  0.00    +0.252 C 
ENDBRANCH  19  24
BRANCH  21  26
ATOM     26  O   UNL     1      33.894 -16.031 -26.273  0.00  0.00    -0.471 OA
ATOM     27  C   UNL     1      33.031 -14.901 -26.398  0.00  0.00    +0.252 C 
ENDBRANCH  21  26
ENDBRANCH  17  18
ENDBRANCH  15  17
ENDBRANCH   6  16
TORSDOF 6
ENDMDL
MODEL 5
REMARK VINA RESULT:      -9.1      4.253      6.613
REMARK  Name = 25058133
REMARK  6 active torsions:
REMARK  status: ('A' for Active; 'I' for Inactive)
REMARK    1  A    between atoms: C_5  and  C_13
REMARK    2  A    between atoms: C_6  and  C_16
REMARK    3  A    between atoms: C_15  and  C_17
REMARK    4  A    between atoms: C_17  and  C_18
REMARK    5  A    between atoms: C_19  and  O_24
REMARK    6  A    between atoms: C_21  and  O_26
REMARK                            x       y       z     vdW  Elec       q    Type
REMARK                         _______ _______ _______ _____ _____    ______ ____
ROOT
ATOM      1  N   UNL     1      35.456 -18.343 -22.600  0.00  0.00    -0.336 NA
ATOM      2  N   UNL     1      35.289 -17.211 -20.480  0.00  0.00    -0.317 NA
ATOM      3  N   UNL     1      34.575 -14.959 -20.372  0.00  0.00    -0.334 N 
ATOM      4  N   UNL     1      35.996 -19.445 -20.600  0.00  0.00    -0.283 N 
ATOM      5  C   UNL     1      35.036 -17.208 -23.197  0.00  0.00    +0.120 C 
ATOM      6  C   UNL     1      34.727 -16.051 -22.513  0.00  0.00    +0.179 C 
ATOM      7  C   UNL     1      34.873 -16.111 -21.142  0.00  0.00    +0.186 C 
ATOM      8  C   UNL     1      35.559 -18.275 -21.259  0.00  0.00    +0.196 C 
ATOM      9  H   UNL     1      34.673 -14.982 -19.393  0.00  0.00    +0.144 HD
ATOM     10  H   UNL     1      34.269 -14.136 -20.817  0.00  0.00    +0.144 HD
ATOM     11  H   UNL     1      36.207 -20.253 -21.121  0.00  0.00    +0.156 HD
ATOM     12  H   UNL     1      36.089 -19.451 -19.620  0.00  0.00    +0.156 HD
ENDROOT
BRANCH   5  13
ATOM     13  C   UNL     1      34.919 -17.276 -24.686  0.00  0.00    +0.057 C 
ATOM     14  C   UNL     1      34.260 -18.569 -25.155  0.00  0.00    +0.008 C 
ENDBRANCH   5  13
BRANCH   6  16
ATOM     15  C   UNL     1      33.911 -13.879 -23.754  0.00  0.00    -0.085 C 
ATOM     16  C   UNL     1      34.285 -14.871 -23.190  0.00  0.00    -0.076 C 
BRANCH  15  17
ATOM     17  C   UNL     1      33.444 -12.658 -24.435  0.00  0.00    +0.105 C 
BRANCH  17  18
ATOM     18  C   UNL     1      32.936 -11.631 -23.477  0.00  0.00    +0.028 C 
ATOM     19  C   UNL     1      33.314 -10.294 -23.599  0.00  0.00    +0.136 C 
ATOM     20  C   UNL     1      32.073 -12.021 -22.452  0.00  0.00    +0.037 C 
ATOM     21  C   UNL     1      31.587 -11.074 -21.551  0.00  0.00    +0.139 C 
ATOM     22  C   UNL     1      32.830  -9.347 -22.697  0.00  0.00    +0.040 C 
ATOM     23  C   UNL     1      31.967  -9.736 -21.673  0.00  0.00    +0.040 C 
BRANCH  19  24
ATOM     24  O   UNL     1      34.157  -9.896 -24.594  0.00  0.00    -0.472 OA
ATOM     25  C   UNL     1      34.989  -8.770 -24.325  0.00  0.00    +0.252 C 
ENDBRANCH  19  24
BRANCH  21  26
ATOM     26  O   UNL     1      30.747 -11.453 -20.550  0.00  0.00    -0.471 OA
ATOM     27  C   UNL     1      30.841 -10.740 -19.317  0.00  0.00    +0.252 C 
ENDBRANCH  21  26
ENDBRANCH  17  18
ENDBRANCH  15  17
ENDBRANCH   6  16
TORSDOF 6
ENDMDL
MODEL 6
REMARK VINA RESULT:      -9.0      5.523      8.952
REMARK  Name = 25058133
REMARK  6 active torsions:
REMARK  status: ('A' for Active; 'I' for Inactive)
REMARK    1  A    between atoms: C_5  and  C_13
REMARK    2  A    between atoms: C_6  and  C_16
REMARK    3  A    between atoms: C_15  and  C_17
REMARK    4  A    between atoms: C_17  and  C_18
REMARK    5  A    between atoms: C_19  and  O_24
REMARK    6  A    between atoms: C_21  and  O_26
REMARK                            x       y       z     vdW  Elec       q    Type
REMARK                         _______ _______ _______ _____ _____    ______ ____
ROOT
ATOM      1  N   UNL     1      32.629  -9.348 -23.990  0.00  0.00    -0.336 NA
ATOM      2  N   UNL     1      30.784  -9.510 -22.450  0.00  0.00    -0.317 NA
ATOM      3  N   UNL     1      30.474 -11.457 -21.143  0.00  0.00    -0.334 N 
ATOM      4  N   UNL     1      31.102  -7.583 -23.752  0.00  0.00    -0.283 N 
ATOM      5  C   UNL     1      33.006 -10.587 -23.611  0.00  0.00    +0.120 C 
ATOM      6  C   UNL     1      32.333 -11.339 -22.671  0.00  0.00    +0.179 C 
ATOM      7  C   UNL     1      31.218 -10.743 -22.117  0.00  0.00    +0.186 C 
ATOM      8  C   UNL     1      31.526  -8.878 -23.378  0.00  0.00    +0.196 C 
ATOM      9  H   UNL     1      29.676 -11.049 -20.737  0.00  0.00    +0.144 HD
ATOM     10  H   UNL     1      30.758 -12.360 -20.873  0.00  0.00    +0.144 HD
ATOM     11  H   UNL     1      31.607  -7.075 -24.426  0.00  0.00    +0.156 HD
ATOM     12  H   UNL     1      30.300  -7.190 -23.336  0.00  0.00    +0.156 HD
ENDROOT
BRANCH   5  13
ATOM     13  C   UNL     1      34.231 -11.116 -24.285  0.00  0.00    +0.057 C 
ATOM     14  C   UNL     1      35.149 -10.000 -24.772  0.00  0.00    +0.008 C 
ENDBRANCH   5  13
BRANCH   6  16
ATOM     15  C   UNL     1      33.142 -13.749 -21.990  0.00  0.00    -0.085 C 
ATOM     16  C   UNL     1      32.771 -12.649 -22.299  0.00  0.00    -0.076 C 
BRANCH  15  17
ATOM     17  C   UNL     1      33.611 -15.095 -21.619  0.00  0.00    +0.105 C 
BRANCH  17  18
ATOM     18  C   UNL     1      34.018 -15.904 -22.806  0.00  0.00    +0.028 C 
ATOM     19  C   UNL     1      34.717 -17.101 -22.647  0.00  0.00    +0.136 C 
ATOM     20  C   UNL     1      33.692 -15.453 -24.085  0.00  0.00    +0.037 C 
ATOM     21  C   UNL     1      34.062 -16.198 -25.204  0.00  0.00    +0.139 C 
ATOM     22  C   UNL     1      35.089 -17.846 -23.766  0.00  0.00    +0.040 C 
ATOM     23  C   UNL     1      34.762 -17.395 -25.045  0.00  0.00    +0.040 C 
BRANCH  19  24
ATOM     24  O   UNL     1      35.045 -17.557 -21.405  0.00  0.00    -0.472 OA
ATOM     25  C   UNL     1      34.837 -18.943 -21.148  0.00  0.00    +0.252 C 
ENDBRANCH  19  24
BRANCH  21  26
ATOM     26  O   UNL     1      33.745 -15.757 -26.452  0.00  0.00    -0.471 OA
ATOM     27  C   UNL     1      32.891 -14.617 -26.542  0.00  0.00    +0.252 C 
ENDBRANCH  21  26
ENDBRANCH  17  18
ENDBRANCH  15  17
ENDBRANCH   6  16
TORSDOF 6
ENDMDL
MODEL 7
REMARK VINA RESULT:      -9.0      5.373      7.652
REMARK  Name = 25058133
REMARK  6 active torsions:
REMARK  status: ('A' for Active; 'I' for Inactive)
REMARK    1  A    between atoms: C_5  and  C_13
REMARK    2  A    between atoms: C_6  and  C_16
REMARK    3  A    between atoms: C_15  and  C_17
REMARK    4  A    between atoms: C_17  and  C_18
REMARK    5  A    between atoms: C_19  and  O_24
REMARK    6  A    between atoms: C_21  and  O_26
REMARK                            x       y       z     vdW  Elec       q    Type
REMARK                         _______ _______ _______ _____ _____    ______ ____
ROOT
ATOM      1  N   UNL     1      34.724 -16.648 -22.579  0.00  0.00    -0.336 NA
ATOM      2  N   UNL     1      34.171 -16.389 -24.909  0.00  0.00    -0.317 NA
ATOM      3  N   UNL     1      33.039 -14.456 -25.670  0.00  0.00    -0.334 N 
ATOM      4  N   UNL     1      35.293 -18.302 -24.143  0.00  0.00    -0.283 N 
ATOM      5  C   UNL     1      34.149 -15.449 -22.348  0.00  0.00    +0.120 C 
ATOM      6  C   UNL     1      33.572 -14.673 -23.331  0.00  0.00    +0.179 C 
ATOM      7  C   UNL     1      33.613 -15.198 -24.607  0.00  0.00    +0.186 C 
ATOM      8  C   UNL     1      34.699 -17.051 -23.864  0.00  0.00    +0.196 C 
ATOM      9  H   UNL     1      33.059 -14.814 -26.587  0.00  0.00    +0.144 HD
ATOM     10  H   UNL     1      32.623 -13.583 -25.491  0.00  0.00    +0.144 HD
ATOM     11  H   UNL     1      35.695 -18.829 -23.416  0.00  0.00    +0.156 HD
ATOM     12  H   UNL     1      35.303 -18.646 -25.066  0.00  0.00    +0.156 HD
ENDROOT
BRANCH   5  13
ATOM     13  C   UNL     1      34.172 -14.994 -20.923  0.00  0.00    +0.057 C 
ATOM     14  C   UNL     1      32.848 -15.256 -20.213  0.00  0.00    +0.008 C 
ENDBRANCH   5  13
BRANCH   6  16
ATOM     15  C   UNL     1      32.475 -12.343 -22.789  0.00  0.00    -0.085 C 
ATOM     16  C   UNL     1      32.974 -13.407 -23.038  0.00  0.00    -0.076 C 
BRANCH  15  17
ATOM     17  C   UNL     1      31.875 -11.035 -22.474  0.00  0.00    +0.105 C 
BRANCH  17  18
ATOM     18  C   UNL     1      32.774  -9.896 -22.826  0.00  0.00    +0.028 C 
ATOM     19  C   UNL     1      32.707  -8.692 -22.124  0.00  0.00    +0.136 C 
ATOM     20  C   UNL     1      33.689 -10.045 -23.868  0.00  0.00    +0.037 C 
ATOM     21  C   UNL     1      34.537  -8.992 -24.208  0.00  0.00    +0.139 C 
ATOM     22  C   UNL     1      33.554  -7.638 -22.464  0.00  0.00    +0.040 C 
ATOM     23  C   UNL     1      34.470  -7.787 -23.506  0.00  0.00    +0.040 C 
BRANCH  19  24
ATOM     24  O   UNL     1      31.818  -8.529 -21.104  0.00  0.00    -0.472 OA
ATOM     25  C   UNL     1      32.219  -7.690 -20.023  0.00  0.00    +0.252 C 
ENDBRANCH  19  24
BRANCH  21  26
ATOM     26  O   UNL     1      35.430  -9.136 -25.225  0.00  0.00    -0.471 OA
ATOM     27  C   UNL     1      35.454 -10.396 -25.895  0.00  0.00    +0.252 C 
ENDBRANCH  21  26
ENDBRANCH  17  18
ENDBRANCH  15  17
ENDBRANCH   6  16
TORSDOF 6
ENDMDL
MODEL 8
REMARK VINA RESULT:      -8.8      5.348      7.991
REMARK  Name = 25058133
REMARK  6 active torsions:
REMARK  status: ('A' for Active; 'I' for Inactive)
REMARK    1  A    between atoms: C_5  and  C_13
REMARK    2  A    between atoms: C_6  and  C_16
REMARK    3  A    between atoms: C_15  and  C_17
REMARK    4  A    between atoms: C_17  and  C_18
REMARK    5  A    between atoms: C_19  and  O_24
REMARK    6  A    between atoms: C_21  and  O_26
REMARK                            x       y       z     vdW  Elec       q    Type
REMARK                         _______ _______ _______ _____ _____    ______ ____
ROOT
ATOM      1  N   UNL     1      34.521 -16.100 -24.251  0.00  0.00    -0.336 NA
ATOM      2  N   UNL     1      34.821 -16.493 -21.893  0.00  0.00    -0.317 NA
ATOM      3  N   UNL     1      33.799 -15.078 -20.297  0.00  0.00    -0.334 N 
ATOM      4  N   UNL     1      35.830 -17.890 -23.486  0.00  0.00    -0.283 N 
ATOM      5  C   UNL     1      33.749 -15.038 -23.938  0.00  0.00    +0.120 C 
ATOM      6  C   UNL     1      33.471 -14.647 -22.645  0.00  0.00    +0.179 C 
ATOM      7  C   UNL     1      34.040 -15.420 -21.652  0.00  0.00    +0.186 C 
ATOM      8  C   UNL     1      35.017 -16.772 -23.195  0.00  0.00    +0.196 C 
ATOM      9  H   UNL     1      34.196 -15.617 -19.576  0.00  0.00    +0.144 HD
ATOM     10  H   UNL     1      33.234 -14.302 -20.079  0.00  0.00    +0.144 HD
ATOM     11  H   UNL     1      36.007 -18.141 -24.421  0.00  0.00    +0.156 HD
ATOM     12  H   UNL     1      36.220 -18.418 -22.751  0.00  0.00    +0.156 HD
ENDROOT
BRANCH   5  13
ATOM     13  C   UNL     1      33.193 -14.287 -25.105  0.00  0.00    +0.057 C 
ATOM     14  C   UNL     1      32.927 -15.194 -26.301  0.00  0.00    +0.008 C 
ENDBRANCH   5  13
BRANCH   6  16
ATOM     15  C   UNL     1      31.957 -12.560 -22.119  0.00  0.00    -0.085 C 
ATOM     16  C   UNL     1      32.646 -13.514 -22.361  0.00  0.00    -0.076 C 
BRANCH  15  17
ATOM     17  C   UNL     1      31.121 -11.387 -21.812  0.00  0.00    +0.105 C 
BRANCH  17  18
ATOM     18  C   UNL     1      31.893 -10.109 -21.858  0.00  0.00    +0.028 C 
ATOM     19  C   UNL     1      31.910  -9.248 -20.761  0.00  0.00    +0.136 C 
ATOM     20  C   UNL     1      32.602  -9.782 -23.014  0.00  0.00    +0.037 C 
ATOM     21  C   UNL     1      33.330  -8.594 -23.072  0.00  0.00    +0.139 C 
ATOM     22  C   UNL     1      32.637  -8.059 -20.820  0.00  0.00    +0.040 C 
ATOM     23  C   UNL     1      33.348  -7.731 -21.975  0.00  0.00    +0.040 C 
BRANCH  19  24
ATOM     24  O   UNL     1      31.222  -9.551 -19.625  0.00  0.00    -0.472 OA
ATOM     25  C   UNL     1      31.800 -10.524 -18.758  0.00  0.00    +0.252 C 
ENDBRANCH  19  24
BRANCH  21  26
ATOM     26  O   UNL     1      34.022  -8.273 -24.199  0.00  0.00    -0.471 OA
ATOM     27  C   UNL     1      34.546  -6.948 -24.286  0.00  0.00    +0.252 C 
ENDBRANCH  21  26
ENDBRANCH  17  18
ENDBRANCH  15  17
ENDBRANCH   6  16
TORSDOF 6
ENDMDL
MODEL 9
REMARK VINA RESULT:      -8.8      4.666      8.713
REMARK  Name = 25058133
REMARK  6 active torsions:
REMARK  status: ('A' for Active; 'I' for Inactive)
REMARK    1  A    between atoms: C_5  and  C_13
REMARK    2  A    between atoms: C_6  and  C_16
REMARK    3  A    between atoms: C_15  and  C_17
REMARK    4  A    between atoms: C_17  and  C_18
REMARK    5  A    between atoms: C_19  and  O_24
REMARK    6  A    between atoms: C_21  and  O_26
REMARK                            x       y       z     vdW  Elec       q    Type
REMARK                         _______ _______ _______ _____ _____    ______ ____
ROOT
ATOM      1  N   UNL     1      36.501 -19.949 -20.785  0.00  0.00    -0.336 NA
ATOM      2  N   UNL     1      34.383 -19.088 -21.546  0.00  0.00    -0.317 NA
ATOM      3  N   UNL     1      32.356 -19.931 -20.667  0.00  0.00    -0.334 N 
ATOM      4  N   UNL     1      36.402 -18.261 -22.411  0.00  0.00    -0.283 N 
ATOM      5  C   UNL     1      35.826 -20.779 -19.962  0.00  0.00    +0.120 C 
ATOM      6  C   UNL     1      34.450 -20.821 -19.877  0.00  0.00    +0.179 C 
ATOM      7  C   UNL     1      33.773 -19.944 -20.700  0.00  0.00    +0.186 C 
ATOM      8  C   UNL     1      35.728 -19.143 -21.537  0.00  0.00    +0.196 C 
ATOM      9  H   UNL     1      31.856 -19.313 -21.246  0.00  0.00    +0.144 HD
ATOM     10  H   UNL     1      31.873 -20.540 -20.063  0.00  0.00    +0.144 HD
ATOM     11  H   UNL     1      37.386 -18.257 -22.445  0.00  0.00    +0.156 HD
ATOM     12  H   UNL     1      35.886 -17.648 -22.984  0.00  0.00    +0.156 HD
ENDROOT
BRANCH   5  13
ATOM     13  C   UNL     1      36.677 -21.678 -19.123  0.00  0.00    +0.057 C 
ATOM     14  C   UNL     1      36.932 -21.099 -17.735  0.00  0.00    +0.008 C 
ENDBRANCH   5  13
BRANCH   6  16
ATOM     15  C   UNL     1      33.216 -22.475 -18.243  0.00  0.00    -0.085 C 
ATOM     16  C   UNL     1      33.777 -21.719 -18.989  0.00  0.00    -0.076 C 
BRANCH  15  17
ATOM     17  C   UNL     1      32.541 -23.411 -17.328  0.00  0.00    +0.105 C 
BRANCH  17  18
ATOM     18  C   UNL     1      33.261 -23.557 -16.028  0.00  0.00    +0.028 C 
ATOM     19  C   UNL     1      32.560 -23.825 -14.852  0.00  0.00    +0.136 C 
ATOM     20  C   UNL     1      34.649 -23.423 -15.998  0.00  0.00    +0.037 C 
ATOM     21  C   UNL     1      35.337 -23.559 -14.793  0.00  0.00    +0.139 C 
ATOM     22  C   UNL     1      33.248 -23.960 -13.646  0.00  0.00    +0.040 C 
ATOM     23  C   UNL     1      34.636 -23.827 -13.615  0.00  0.00    +0.040 C 
BRANCH  19  24
ATOM     24  O   UNL     1      31.204 -23.958 -14.863  0.00  0.00    -0.472 OA
ATOM     25  C   UNL     1      30.672 -25.205 -14.425  0.00  0.00    +0.252 C 
ENDBRANCH  19  24
BRANCH  21  26
ATOM     26  O   UNL     1      36.691 -23.427 -14.762  0.00  0.00    -0.471 OA
ATOM     27  C   UNL     1      37.463 -24.620 -14.898  0.00  0.00    +0.252 C 
ENDBRANCH  21  26
ENDBRANCH  17  18
ENDBRANCH  15  17
ENDBRANCH   6  16
TORSDOF 6
ENDMDL
