MODEL 1
REMARK VINA RESULT:      -8.9      0.000      0.000
REMARK  Name = 192711
REMARK  5 active torsions:
REMARK  status: ('A' for Active; 'I' for Inactive)
REMARK    1  A    between atoms: N_1  and  C_17
REMARK    2  A    between atoms: N_2  and  C_4
REMARK    3  A    between atoms: N_2  and  C_9
REMARK    4  A    between atoms: C_12  and  S_15
REMARK    5  A    between atoms: C_20  and  S_23
REMARK                            x       y       z     vdW  Elec       q    Type
REMARK                         _______ _______ _______ _____ _____    ______ ____
ROOT
ATOM      1  N   UNL     1      34.786 -18.024 -23.566  0.00  0.00    -0.297 N 
ATOM      2  N   UNL     1      35.200 -16.129 -24.904  0.00  0.00    -0.369 N 
ATOM      3  C   UNL     1      34.927 -16.621 -23.638  0.00  0.00    +0.203 C 
ATOM      4  C   UNL     1      34.359 -18.863 -24.691  0.00  0.00    +0.133 C 
ATOM      5  H   UNL     1      35.259 -16.745 -25.669  0.00  0.00    +0.159 HD
ATOM      6  H   UNL     1      35.333 -15.163 -25.040  0.00  0.00    +0.159 HD
ENDROOT
BRANCH   1   7
ATOM      7  C   UNL     1      35.150 -18.759 -22.402  0.00  0.00    +0.063 C 
ATOM      8  C   UNL     1      34.188 -19.504 -21.735  0.00  0.00    +0.023 C 
ATOM      9  C   UNL     1      36.463 -18.722 -21.953  0.00  0.00    +0.017 C 
ATOM     10  C   UNL     1      34.545 -20.224 -20.595  0.00  0.00    +0.027 C 
ATOM     11  C   UNL     1      36.820 -19.442 -20.813  0.00  0.00    +0.002 C 
ATOM     12  C   UNL     1      35.861 -20.194 -20.133  0.00  0.00    +0.006 C 
BRANCH  10  13
ATOM     13  S   UNL     1      33.319 -21.184 -19.726  0.00  0.00    -0.113 S 
ATOM     14  C   UNL     1      34.355 -22.353 -18.800  0.00  0.00    +0.074 C 
ENDBRANCH  10  13
ENDBRANCH   1   7
BRANCH   3  15
ATOM     15  N   UNL     1      34.830 -15.862 -22.564  0.00  0.00    -0.213 NA
BRANCH  15  17
ATOM     16 CL   UNL     1      32.463 -15.979 -20.670  0.00  0.00    -0.081 Cl
ATOM     17  C   UNL     1      33.981 -14.747 -22.570  0.00  0.00    +0.095 C 
ATOM     18  C   UNL     1      34.277 -13.685 -23.424  0.00  0.00    +0.026 C 
ATOM     19  C   UNL     1      32.860 -14.685 -21.742  0.00  0.00    +0.075 C 
ATOM     20  C   UNL     1      33.451 -12.562 -23.452  0.00  0.00    +0.027 C 
ATOM     21  C   UNL     1      32.035 -13.561 -21.770  0.00  0.00    +0.013 C 
ATOM     22  C   UNL     1      32.330 -12.500 -22.624  0.00  0.00    +0.007 C 
BRANCH  20  23
ATOM     23  S   UNL     1      33.828 -11.204 -24.544  0.00  0.00    -0.113 S 
ATOM     24  C   UNL     1      32.993  -9.821 -23.716  0.00  0.00    +0.074 C 
ENDBRANCH  20  23
ENDBRANCH  15  17
ENDBRANCH   3  15
TORSDOF 5
ENDMDL
MODEL 2
REMARK VINA RESULT:      -8.8      1.175      1.629
REMARK  Name = 192711
REMARK  5 active torsions:
REMARK  status: ('A' for Active; 'I' for Inactive)
REMARK    1  A    between atoms: N_1  and  C_17
REMARK    2  A    between atoms: N_2  and  C_4
REMARK    3  A    between atoms: N_2  and  C_9
REMARK    4  A    between atoms: C_12  and  S_15
REMARK    5  A    between atoms: C_20  and  S_23
REMARK                            x       y       z     vdW  Elec       q    Type
REMARK                         _______ _______ _______ _____ _____    ______ ____
ROOT
ATOM      1  N   UNL     1      34.545 -18.295 -23.106  0.00  0.00    -0.297 N 
ATOM      2  N   UNL     1      35.607 -16.384 -23.984  0.00  0.00    -0.369 N 
ATOM      3  C   UNL     1      34.820 -16.917 -22.975  0.00  0.00    +0.203 C 
ATOM      4  C   UNL     1      34.522 -19.007 -24.388  0.00  0.00    +0.133 C 
ATOM      5  H   UNL     1      35.908 -16.954 -24.727  0.00  0.00    +0.159 HD
ATOM      6  H   UNL     1      35.863 -15.433 -23.958  0.00  0.00    +0.159 HD
ENDROOT
BRANCH   1   7
ATOM      7  C   UNL     1      34.362 -19.139 -21.974  0.00  0.00    +0.063 C 
ATOM      8  C   UNL     1      35.469 -19.697 -21.351  0.00  0.00    +0.023 C 
ATOM      9  C   UNL     1      33.078 -19.391 -21.509  0.00  0.00    +0.017 C 
ATOM     10  C   UNL     1      35.290 -20.524 -20.242  0.00  0.00    +0.027 C 
ATOM     11  C   UNL     1      32.899 -20.218 -20.400  0.00  0.00    +0.002 C 
ATOM     12  C   UNL     1      34.005 -20.784 -19.766  0.00  0.00    +0.006 C 
BRANCH  10  13
ATOM     13  S   UNL     1      36.703 -21.248 -19.432  0.00  0.00    -0.113 S 
ATOM     14  C   UNL     1      35.943 -21.988 -17.958  0.00  0.00    +0.074 C 
ENDBRANCH  10  13
ENDBRANCH   1   7
BRANCH   3  15
ATOM     15  N   UNL     1      34.377 -16.220 -21.947  0.00  0.00    -0.213 NA
BRANCH  15  17
ATOM     16 CL   UNL     1      32.262 -15.466 -19.907  0.00  0.00    -0.081 Cl
ATOM     17  C   UNL     1      33.721 -14.999 -22.162  0.00  0.00    +0.095 C 
ATOM     18  C   UNL     1      34.079 -14.233 -23.271  0.00  0.00    +0.026 C 
ATOM     19  C   UNL     1      32.730 -14.545 -21.291  0.00  0.00    +0.075 C 
ATOM     20  C   UNL     1      33.445 -13.014 -23.510  0.00  0.00    +0.027 C 
ATOM     21  C   UNL     1      32.097 -13.326 -21.530  0.00  0.00    +0.013 C 
ATOM     22  C   UNL     1      32.454 -12.561 -22.639  0.00  0.00    +0.007 C 
BRANCH  20  23
ATOM     23  S   UNL     1      33.901 -12.034 -24.927  0.00  0.00    -0.113 S 
ATOM     24  C   UNL     1      34.195 -10.409 -24.174  0.00  0.00    +0.074 C 
ENDBRANCH  20  23
ENDBRANCH  15  17
ENDBRANCH   3  15
TORSDOF 5
ENDMDL
MODEL 3
REMARK VINA RESULT:      -8.8      2.839      7.865
REMARK  Name = 192711
REMARK  5 active torsions:
REMARK  status: ('A' for Active; 'I' for Inactive)
REMARK    1  A    between atoms: N_1  and  C_17
REMARK    2  A    between atoms: N_2  and  C_4
REMARK    3  A    between atoms: N_2  and  C_9
REMARK    4  A    between atoms: C_12  and  S_15
REMARK    5  A    between atoms: C_20  and  S_23
REMARK                            x       y       z     vdW  Elec       q    Type
REMARK                         _______ _______ _______ _____ _____    ______ ____
ROOT
ATOM      1  N   UNL     1      33.797 -12.112 -25.117  0.00  0.00    -0.297 N 
ATOM      2  N   UNL     1      32.981 -14.319 -24.993  0.00  0.00    -0.369 N 
ATOM      3  C   UNL     1      33.707 -13.311 -24.378  0.00  0.00    +0.203 C 
ATOM      4  C   UNL     1      33.704 -12.041 -26.579  0.00  0.00    +0.133 C 
ATOM      5  H   UNL     1      32.594 -14.172 -25.886  0.00  0.00    +0.159 HD
ATOM      6  H   UNL     1      32.852 -15.182 -24.537  0.00  0.00    +0.159 HD
ENDROOT
BRANCH   1   7
ATOM      7  C   UNL     1      33.886 -10.840 -24.483  0.00  0.00    +0.063 C 
ATOM      8  C   UNL     1      32.940 -10.483 -23.532  0.00  0.00    +0.023 C 
ATOM      9  C   UNL     1      34.917  -9.977 -24.824  0.00  0.00    +0.017 C 
ATOM     10  C   UNL     1      33.028  -9.237 -22.910  0.00  0.00    +0.027 C 
ATOM     11  C   UNL     1      35.005  -8.731 -24.203  0.00  0.00    +0.002 C 
ATOM     12  C   UNL     1      34.060  -8.360 -23.245  0.00  0.00    +0.006 C 
BRANCH  10  13
ATOM     13  S   UNL     1      31.820  -8.763 -21.687  0.00  0.00    -0.113 S 
ATOM     14  C   UNL     1      32.812  -7.730 -20.571  0.00  0.00    +0.074 C 
ENDBRANCH  10  13
ENDBRANCH   1   7
BRANCH   3  15
ATOM     15  N   UNL     1      34.256 -13.429 -23.185  0.00  0.00    -0.213 NA
BRANCH  15  17
ATOM     16 CL   UNL     1      31.979 -13.174 -21.196  0.00  0.00    -0.081 Cl
ATOM     17  C   UNL     1      33.992 -14.562 -22.403  0.00  0.00    +0.095 C 
ATOM     18  C   UNL     1      34.774 -15.702 -22.590  0.00  0.00    +0.026 C 
ATOM     19  C   UNL     1      32.969 -14.566 -21.454  0.00  0.00    +0.075 C 
ATOM     20  C   UNL     1      34.534 -16.844 -21.827  0.00  0.00    +0.027 C 
ATOM     21  C   UNL     1      32.730 -15.709 -20.692  0.00  0.00    +0.013 C 
ATOM     22  C   UNL     1      33.512 -16.848 -20.879  0.00  0.00    +0.007 C 
BRANCH  20  23
ATOM     23  S   UNL     1      35.533 -18.302 -22.065  0.00  0.00    -0.113 S 
ATOM     24  C   UNL     1      34.874 -18.950 -23.627  0.00  0.00    +0.074 C 
ENDBRANCH  20  23
ENDBRANCH  15  17
ENDBRANCH   3  15
TORSDOF 5
ENDMDL
MODEL 4
REMARK VINA RESULT:      -8.7      2.264      3.449
REMARK  Name = 192711
REMARK  5 active torsions:
REMARK  status: ('A' for Active; 'I' for Inactive)
REMARK    1  A    between atoms: N_1  and  C_17
REMARK    2  A    between atoms: N_2  and  C_4
REMARK    3  A    between atoms: N_2  and  C_9
REMARK    4  A    between atoms: C_12  and  S_15
REMARK    5  A    between atoms: C_20  and  S_23
REMARK                            x       y       z     vdW  Elec       q    Type
REMARK                         _______ _______ _______ _____ _____    ______ ____
ROOT
ATOM      1  N   UNL     1      34.011 -15.236 -21.709  0.00  0.00    -0.297 N 
ATOM      2  N   UNL     1      32.266 -13.676 -21.438  0.00  0.00    -0.369 N 
ATOM      3  C   UNL     1      32.971 -14.492 -22.308  0.00  0.00    +0.203 C 
ATOM      4  C   UNL     1      34.720 -14.820 -20.493  0.00  0.00    +0.133 C 
ATOM      5  H   UNL     1      32.520 -13.633 -20.488  0.00  0.00    +0.159 HD
ATOM      6  H   UNL     1      31.511 -13.138 -21.770  0.00  0.00    +0.159 HD
ENDROOT
BRANCH   1   7
ATOM      7  C   UNL     1      34.392 -16.520 -22.189  0.00  0.00    +0.063 C 
ATOM      8  C   UNL     1      34.409 -17.600 -21.317  0.00  0.00    +0.023 C 
ATOM      9  C   UNL     1      34.743 -16.675 -23.523  0.00  0.00    +0.017 C 
ATOM     10  C   UNL     1      34.783 -18.858 -21.788  0.00  0.00    +0.027 C 
ATOM     11  C   UNL     1      35.117 -17.934 -23.994  0.00  0.00    +0.002 C 
ATOM     12  C   UNL     1      35.137 -19.026 -23.126  0.00  0.00    +0.006 C 
BRANCH  10  13
ATOM     13  S   UNL     1      34.809 -20.254 -20.679  0.00  0.00    -0.113 S 
ATOM     14  C   UNL     1      33.050 -20.427 -20.262  0.00  0.00    +0.074 C 
ENDBRANCH  10  13
ENDBRANCH   1   7
BRANCH   3  15
ATOM     15  N   UNL     1      32.694 -14.605 -23.592  0.00  0.00    -0.213 NA
BRANCH  15  17
ATOM     16 CL   UNL     1      32.659 -15.387 -26.523  0.00  0.00    -0.081 Cl
ATOM     17  C   UNL     1      33.150 -13.634 -24.494  0.00  0.00    +0.095 C 
ATOM     18  C   UNL     1      33.577 -12.404 -23.993  0.00  0.00    +0.026 C 
ATOM     19  C   UNL     1      33.181 -13.877 -25.867  0.00  0.00    +0.075 C 
ATOM     20  C   UNL     1      34.036 -11.417 -24.865  0.00  0.00    +0.027 C 
ATOM     21  C   UNL     1      33.640 -12.890 -26.739  0.00  0.00    +0.013 C 
ATOM     22  C   UNL     1      34.066 -11.660 -26.239  0.00  0.00    +0.007 C 
BRANCH  20  23
ATOM     23  S   UNL     1      34.581  -9.845 -24.227  0.00  0.00    -0.113 S 
ATOM     24  C   UNL     1      33.123  -9.299 -23.295  0.00  0.00    +0.074 C 
ENDBRANCH  20  23
ENDBRANCH  15  17
ENDBRANCH   3  15
TORSDOF 5
ENDMDL
MODEL 5
REMARK VINA RESULT:      -8.5      2.094      7.719
REMARK  Name = 192711
REMARK  5 active torsions:
REMARK  status: ('A' for Active; 'I' for Inactive)
REMARK    1  A    between atoms: N_1  and  C_17
REMARK    2  A    between atoms: N_2  and  C_4
REMARK    3  A    between atoms: N_2  and  C_9
REMARK    4  A    between atoms: C_12  and  S_15
REMARK    5  A    between atoms: C_20  and  S_23
REMARK                            x       y       z     vdW  Elec       q    Type
REMARK                         _______ _______ _______ _____ _____    ______ ____
ROOT
ATOM      1  N   UNL     1      33.335 -14.171 -22.401  0.00  0.00    -0.297 N 
ATOM      2  N   UNL     1      34.499 -14.974 -20.516  0.00  0.00    -0.369 N 
ATOM      3  C   UNL     1      34.387 -14.967 -21.898  0.00  0.00    +0.203 C 
ATOM      4  C   UNL     1      32.114 -13.858 -21.651  0.00  0.00    +0.133 C 
ATOM      5  H   UNL     1      33.859 -14.467 -19.968  0.00  0.00    +0.159 HD
ATOM      6  H   UNL     1      35.219 -15.488 -20.083  0.00  0.00    +0.159 HD
ENDROOT
BRANCH   1   7
ATOM      7  C   UNL     1      33.423 -13.515 -23.661  0.00  0.00    +0.063 C 
ATOM      8  C   UNL     1      34.015 -12.262 -23.741  0.00  0.00    +0.023 C 
ATOM      9  C   UNL     1      32.916 -14.138 -24.793  0.00  0.00    +0.017 C 
ATOM     10  C   UNL     1      34.101 -11.620 -24.976  0.00  0.00    +0.027 C 
ATOM     11  C   UNL     1      33.001 -13.495 -26.029  0.00  0.00    +0.002 C 
ATOM     12  C   UNL     1      33.594 -12.236 -26.120  0.00  0.00    +0.006 C 
BRANCH  10  13
ATOM     13  S   UNL     1      34.858 -10.010 -25.093  0.00  0.00    -0.113 S 
ATOM     14  C   UNL     1      35.941 -10.216 -26.535  0.00  0.00    +0.074 C 
ENDBRANCH  10  13
ENDBRANCH   1   7
BRANCH   3  15
ATOM     15  N   UNL     1      35.203 -15.620 -22.701  0.00  0.00    -0.213 NA
BRANCH  15  17
ATOM     16 CL   UNL     1      34.849 -16.588 -25.555  0.00  0.00    -0.081 Cl
ATOM     17  C   UNL     1      35.059 -17.005 -22.869  0.00  0.00    +0.095 C 
ATOM     18  C   UNL     1      35.089 -17.823 -21.739  0.00  0.00    +0.026 C 
ATOM     19  C   UNL     1      34.890 -17.568 -24.134  0.00  0.00    +0.075 C 
ATOM     20  C   UNL     1      34.949 -19.203 -21.874  0.00  0.00    +0.027 C 
ATOM     21  C   UNL     1      34.751 -18.949 -24.268  0.00  0.00    +0.013 C 
ATOM     22  C   UNL     1      34.780 -19.767 -23.139  0.00  0.00    +0.007 C 
BRANCH  20  23
ATOM     23  S   UNL     1      34.987 -20.250 -20.432  0.00  0.00    -0.113 S 
ATOM     24  C   UNL     1      33.228 -20.638 -20.210  0.00  0.00    +0.074 C 
ENDBRANCH  20  23
ENDBRANCH  15  17
ENDBRANCH   3  15
TORSDOF 5
ENDMDL
MODEL 6
REMARK VINA RESULT:      -8.4      4.394      6.414
REMARK  Name = 192711
REMARK  5 active torsions:
REMARK  status: ('A' for Active; 'I' for Inactive)
REMARK    1  A    between atoms: N_1  and  C_17
REMARK    2  A    between atoms: N_2  and  C_4
REMARK    3  A    between atoms: N_2  and  C_9
REMARK    4  A    between atoms: C_12  and  S_15
REMARK    5  A    between atoms: C_20  and  S_23
REMARK                            x       y       z     vdW  Elec       q    Type
REMARK                         _______ _______ _______ _____ _____    ______ ____
ROOT
ATOM      1  N   UNL     1      32.406 -13.018 -21.688  0.00  0.00    -0.297 N 
ATOM      2  N   UNL     1      30.668 -11.432 -21.573  0.00  0.00    -0.369 N 
ATOM      3  C   UNL     1      31.813 -11.856 -22.228  0.00  0.00    +0.203 C 
ATOM      4  C   UNL     1      32.272 -13.431 -20.287  0.00  0.00    +0.133 C 
ATOM      5  H   UNL     1      30.342 -11.920 -20.783  0.00  0.00    +0.159 HD
ATOM      6  H   UNL     1      30.179 -10.640 -21.897  0.00  0.00    +0.159 HD
ENDROOT
BRANCH   1   7
ATOM      7  C   UNL     1      33.112 -13.951 -22.500  0.00  0.00    +0.063 C 
ATOM      8  C   UNL     1      32.798 -14.059 -23.847  0.00  0.00    +0.023 C 
ATOM      9  C   UNL     1      34.104 -14.738 -21.932  0.00  0.00    +0.017 C 
ATOM     10  C   UNL     1      33.490 -14.974 -24.642  0.00  0.00    +0.027 C 
ATOM     11  C   UNL     1      34.796 -15.652 -22.727  0.00  0.00    +0.002 C 
ATOM     12  C   UNL     1      34.488 -15.770 -24.082  0.00  0.00    +0.006 C 
BRANCH  10  13
ATOM     13  S   UNL     1      33.097 -15.125 -26.375  0.00  0.00    -0.113 S 
ATOM     14  C   UNL     1      33.190 -13.397 -26.926  0.00  0.00    +0.074 C 
ENDBRANCH  10  13
ENDBRANCH   1   7
BRANCH   3  15
ATOM     15  N   UNL     1      32.312 -11.257 -23.290  0.00  0.00    -0.213 NA
BRANCH  15  17
ATOM     16 CL   UNL     1      34.760 -10.740 -25.005  0.00  0.00    -0.081 Cl
ATOM     17  C   UNL     1      32.893  -9.987 -23.168  0.00  0.00    +0.095 C 
ATOM     18  C   UNL     1      32.317  -9.069 -22.290  0.00  0.00    +0.026 C 
ATOM     19  C   UNL     1      34.022  -9.632 -23.907  0.00  0.00    +0.075 C 
ATOM     20  C   UNL     1      32.872  -7.798 -22.147  0.00  0.00    +0.027 C 
ATOM     21  C   UNL     1      34.576  -8.360 -23.764  0.00  0.00    +0.013 C 
ATOM     22  C   UNL     1      34.001  -7.443 -22.885  0.00  0.00    +0.007 C 
BRANCH  20  23
ATOM     23  S   UNL     1      32.137  -6.625 -21.024  0.00  0.00    -0.113 S 
ATOM     24  C   UNL     1      30.949  -5.775 -22.102  0.00  0.00    +0.074 C 
ENDBRANCH  20  23
ENDBRANCH  15  17
ENDBRANCH   3  15
TORSDOF 5
ENDMDL
MODEL 7
REMARK VINA RESULT:      -8.3      3.366      5.607
REMARK  Name = 192711
REMARK  5 active torsions:
REMARK  status: ('A' for Active; 'I' for Inactive)
REMARK    1  A    between atoms: N_1  and  C_17
REMARK    2  A    between atoms: N_2  and  C_4
REMARK    3  A    between atoms: N_2  and  C_9
REMARK    4  A    between atoms: C_12  and  S_15
REMARK    5  A    between atoms: C_20  and  S_23
REMARK                            x       y       z     vdW  Elec       q    Type
REMARK                         _______ _______ _______ _____ _____    ______ ____
ROOT
ATOM      1  N   UNL     1      32.674 -13.510 -22.174  0.00  0.00    -0.297 N 
ATOM      2  N   UNL     1      31.158 -11.770 -21.695  0.00  0.00    -0.369 N 
ATOM      3  C   UNL     1      32.178 -12.232 -22.512  0.00  0.00    +0.203 C 
ATOM      4  C   UNL     1      32.621 -14.078 -20.823  0.00  0.00    +0.133 C 
ATOM      5  H   UNL     1      30.851 -12.315 -20.936  0.00  0.00    +0.159 HD
ATOM      6  H   UNL     1      30.742 -10.896 -21.873  0.00  0.00    +0.159 HD
ENDROOT
BRANCH   1   7
ATOM      7  C   UNL     1      33.183 -14.405 -23.157  0.00  0.00    +0.063 C 
ATOM      8  C   UNL     1      33.927 -15.506 -22.759  0.00  0.00    +0.023 C 
ATOM      9  C   UNL     1      32.927 -14.164 -24.500  0.00  0.00    +0.017 C 
ATOM     10  C   UNL     1      34.427 -16.383 -23.722  0.00  0.00    +0.027 C 
ATOM     11  C   UNL     1      33.427 -15.041 -25.463  0.00  0.00    +0.002 C 
ATOM     12  C   UNL     1      34.177 -16.151 -25.074  0.00  0.00    +0.006 C 
BRANCH  10  13
ATOM     13  S   UNL     1      35.385 -17.802 -23.225  0.00  0.00    -0.113 S 
ATOM     14  C   UNL     1      35.322 -17.673 -21.415  0.00  0.00    +0.074 C 
ENDBRANCH  10  13
ENDBRANCH   1   7
BRANCH   3  15
ATOM     15  N   UNL     1      32.646 -11.562 -23.547  0.00  0.00    -0.213 NA
BRANCH  15  17
ATOM     16 CL   UNL     1      34.986 -10.788 -25.316  0.00  0.00    -0.081 Cl
ATOM     17  C   UNL     1      33.148 -10.265 -23.372  0.00  0.00    +0.095 C 
ATOM     18  C   UNL     1      32.550  -9.439 -22.420  0.00  0.00    +0.026 C 
ATOM     19  C   UNL     1      34.222  -9.795 -24.128  0.00  0.00    +0.075 C 
ATOM     20  C   UNL     1      33.027  -8.144 -22.223  0.00  0.00    +0.027 C 
ATOM     21  C   UNL     1      34.698  -8.499 -23.931  0.00  0.00    +0.013 C 
ATOM     22  C   UNL     1      34.101  -7.674 -22.979  0.00  0.00    +0.007 C 
BRANCH  20  23
ATOM     23  S   UNL     1      32.264  -7.087 -21.007  0.00  0.00    -0.113 S 
ATOM     24  C   UNL     1      31.325  -5.939 -22.052  0.00  0.00    +0.074 C 
ENDBRANCH  20  23
ENDBRANCH  15  17
ENDBRANCH   3  15
TORSDOF 5
ENDMDL
MODEL 8
REMARK VINA RESULT:      -8.1      2.894      8.515
REMARK  Name = 192711
REMARK  5 active torsions:
REMARK  status: ('A' for Active; 'I' for Inactive)
REMARK    1  A    between atoms: N_1  and  C_17
REMARK    2  A    between atoms: N_2  and  C_4
REMARK    3  A    between atoms: N_2  and  C_9
REMARK    4  A    between atoms: C_12  and  S_15
REMARK    5  A    between atoms: C_20  and  S_23
REMARK                            x       y       z     vdW  Elec       q    Type
REMARK                         _______ _______ _______ _____ _____    ______ ____
ROOT
ATOM      1  N   UNL     1      32.285 -11.774 -22.710  0.00  0.00    -0.297 N 
ATOM      2  N   UNL     1      32.453 -13.942 -21.803  0.00  0.00    -0.369 N 
ATOM      3  C   UNL     1      32.874 -13.055 -22.781  0.00  0.00    +0.203 C 
ATOM      4  C   UNL     1      30.968 -11.509 -22.121  0.00  0.00    +0.133 C 
ATOM      5  H   UNL     1      31.777 -13.664 -21.144  0.00  0.00    +0.159 HD
ATOM      6  H   UNL     1      32.829 -14.852 -21.767  0.00  0.00    +0.159 HD
ENDROOT
BRANCH   1   7
ATOM      7  C   UNL     1      32.979 -10.602 -23.123  0.00  0.00    +0.063 C 
ATOM      8  C   UNL     1      32.504  -9.355 -22.740  0.00  0.00    +0.023 C 
ATOM      9  C   UNL     1      34.121 -10.722 -23.903  0.00  0.00    +0.017 C 
ATOM     10  C   UNL     1      33.184  -8.206 -23.145  0.00  0.00    +0.027 C 
ATOM     11  C   UNL     1      34.801  -9.573 -24.308  0.00  0.00    +0.002 C 
ATOM     12  C   UNL     1      34.333  -8.315 -23.929  0.00  0.00    +0.006 C 
BRANCH  10  13
ATOM     13  S   UNL     1      32.585  -6.598 -22.661  0.00  0.00    -0.113 S 
ATOM     14  C   UNL     1      32.140  -6.879 -20.923  0.00  0.00    +0.074 C 
ENDBRANCH  10  13
ENDBRANCH   1   7
BRANCH   3  15
ATOM     15  N   UNL     1      33.773 -13.351 -23.699  0.00  0.00    -0.213 NA
BRANCH  15  17
ATOM     16 CL   UNL     1      32.669 -14.193 -26.396  0.00  0.00    -0.081 Cl
ATOM     17  C   UNL     1      33.988 -14.688 -24.062  0.00  0.00    +0.095 C 
ATOM     18  C   UNL     1      34.679 -15.518 -23.180  0.00  0.00    +0.026 C 
ATOM     19  C   UNL     1      33.527 -15.192 -25.278  0.00  0.00    +0.075 C 
ATOM     20  C   UNL     1      34.908 -16.853 -23.513  0.00  0.00    +0.027 C 
ATOM     21  C   UNL     1      33.757 -16.526 -25.611  0.00  0.00    +0.013 C 
ATOM     22  C   UNL     1      34.448 -17.357 -24.730  0.00  0.00    +0.007 C 
BRANCH  20  23
ATOM     23  S   UNL     1      35.792 -17.915 -22.387  0.00  0.00    -0.113 S 
ATOM     24  C   UNL     1      34.565 -19.214 -22.065  0.00  0.00    +0.074 C 
ENDBRANCH  20  23
ENDBRANCH  15  17
ENDBRANCH   3  15
TORSDOF 5
ENDMDL
MODEL 9
REMARK VINA RESULT:      -8.1      3.486      4.674
REMARK  Name = 192711
REMARK  5 active torsions:
REMARK  status: ('A' for Active; 'I' for Inactive)
REMARK    1  A    between atoms: N_1  and  C_17
REMARK    2  A    between atoms: N_2  and  C_4
REMARK    3  A    between atoms: N_2  and  C_9
REMARK    4  A    between atoms: C_12  and  S_15
REMARK    5  A    between atoms: C_20  and  S_23
REMARK                            x       y       z     vdW  Elec       q    Type
REMARK                         _______ _______ _______ _____ _____    ______ ____
ROOT
ATOM      1  N   UNL     1      33.284 -14.572 -25.585  0.00  0.00    -0.297 N 
ATOM      2  N   UNL     1      33.586 -12.479 -26.625  0.00  0.00    -0.369 N 
ATOM      3  C   UNL     1      33.693 -13.226 -25.463  0.00  0.00    +0.203 C 
ATOM      4  C   UNL     1      32.302 -15.043 -26.569  0.00  0.00    +0.133 C 
ATOM      5  H   UNL     1      33.226 -12.890 -27.443  0.00  0.00    +0.159 HD
ATOM      6  H   UNL     1      33.870 -11.536 -26.633  0.00  0.00    +0.159 HD
ENDROOT
BRANCH   1   7
ATOM      7  C   UNL     1      33.875 -15.613 -24.816  0.00  0.00    +0.063 C 
ATOM      8  C   UNL     1      33.984 -15.469 -23.440  0.00  0.00    +0.023 C 
ATOM      9  C   UNL     1      34.335 -16.757 -25.453  0.00  0.00    +0.017 C 
ATOM     10  C   UNL     1      34.565 -16.490 -22.686  0.00  0.00    +0.027 C 
ATOM     11  C   UNL     1      34.915 -17.778 -24.700  0.00  0.00    +0.002 C 
ATOM     12  C   UNL     1      35.030 -17.644 -23.316  0.00  0.00    +0.006 C 
BRANCH  10  13
ATOM     13  S   UNL     1      34.712 -16.319 -20.918  0.00  0.00    -0.113 S 
ATOM     14  C   UNL     1      33.879 -14.731 -20.630  0.00  0.00    +0.074 C 
ENDBRANCH  10  13
ENDBRANCH   1   7
BRANCH   3  15
ATOM     15  N   UNL     1      34.165 -12.749 -24.328  0.00  0.00    -0.213 NA
BRANCH  15  17
ATOM     16 CL   UNL     1      35.163  -9.989 -25.093  0.00  0.00    -0.081 Cl
ATOM     17  C   UNL     1      33.526 -11.668 -23.704  0.00  0.00    +0.095 C 
ATOM     18  C   UNL     1      32.498 -11.931 -22.798  0.00  0.00    +0.026 C 
ATOM     19  C   UNL     1      33.897 -10.352 -23.976  0.00  0.00    +0.075 C 
ATOM     20  C   UNL     1      31.843 -10.876 -22.163  0.00  0.00    +0.027 C 
ATOM     21  C   UNL     1      33.241  -9.298 -23.341  0.00  0.00    +0.013 C 
ATOM     22  C   UNL     1      32.215  -9.559 -22.435  0.00  0.00    +0.007 C 
BRANCH  20  23
ATOM     23  S   UNL     1      30.530 -11.210 -21.004  0.00  0.00    -0.113 S 
ATOM     24  C   UNL     1      31.270 -10.665 -19.439  0.00  0.00    +0.074 C 
ENDBRANCH  20  23
ENDBRANCH  15  17
ENDBRANCH   3  15
TORSDOF 5
ENDMDL
