MODEL 1
REMARK VINA RESULT:     -10.8      0.000      0.000
REMARK  Name = 60919
REMARK  4 active torsions:
REMARK  status: ('A' for Active; 'I' for Inactive)
REMARK    1  A    between atoms: C_1  and  C_19
REMARK    2  A    between atoms: C_4  and  C_7
REMARK    3  A    between atoms: C_8  and  C_17
REMARK    4  A    between atoms: C_19  and  N_21
REMARK                            x       y       z     vdW  Elec       q    Type
REMARK                         _______ _______ _______ _____ _____    ______ ____
ROOT
ATOM      1  C   UNL     1      34.039  -8.868 -23.446  0.00  0.00    -0.002 C 
ATOM      2  C   UNL     1      32.872  -9.585 -23.220  0.00  0.00    -0.003 C 
ATOM      3  C   UNL     1      35.032  -9.364 -24.279  0.00  0.00    -0.003 C 
ATOM      4  C   UNL     1      33.686 -11.330 -24.680  0.00  0.00    +0.001 C 
ATOM      5  C   UNL     1      32.694 -10.822 -23.841  0.00  0.00    -0.000 C 
ATOM      6  C   UNL     1      34.855 -10.600 -24.900  0.00  0.00    -0.000 C 
ENDROOT
BRANCH   4   7
ATOM      7  C   UNL     1      33.502 -12.612 -25.323  0.00  0.00    +0.009 C 
ATOM      8  C   UNL     1      33.331 -13.787 -24.587  0.00  0.00    +0.065 C 
ATOM      9  C   UNL     1      33.498 -12.663 -26.719  0.00  0.00    +0.001 C 
ATOM     10  C   UNL     1      33.156 -15.006 -25.244  0.00  0.00    +0.010 C 
ATOM     11  C   UNL     1      33.322 -13.882 -27.376  0.00  0.00    +0.000 C 
ATOM     12  C   UNL     1      33.152 -15.053 -26.637  0.00  0.00    +0.001 C 
BRANCH   8  17
ATOM     13  N   UNL     1      34.415 -14.024 -22.415  0.00  0.00    -0.110 NA
ATOM     14  N   UNL     1      32.206 -13.525 -22.426  0.00  0.00    -0.087 NA
ATOM     15  N   UNL     1      33.876 -13.898 -21.192  0.00  0.00    -0.140 N 
ATOM     16  N   UNL     1      32.570 -13.602 -21.152  0.00  0.00    -0.022 NA
ATOM     17  C   UNL     1      33.330 -13.781 -23.147  0.00  0.00    +0.073 C 
ATOM     18  H   UNL     1      34.409 -14.017 -20.374  0.00  0.00    +0.197 HD
ENDBRANCH   8  17
ENDBRANCH   4   7
BRANCH   1  19
ATOM     19  C   UNL     1      34.230  -7.533 -22.778  0.00  0.00    +0.127 C 
BRANCH  19  21
ATOM     20  O   UNL     1      32.273  -7.426 -20.717  0.00  0.00    -0.274 OA
ATOM     21  N   UNL     1      33.013  -6.728 -22.812  0.00  0.00    -0.232 N 
ATOM     22  N   UNL     1      33.652  -5.999 -25.016  0.00  0.00    -0.332 NA
ATOM     23  N   UNL     1      32.462  -4.229 -26.131  0.00  0.00    -0.352 NA
ATOM     24  C   UNL     1      30.940  -4.768 -22.718  0.00  0.00    +0.025 C 
ATOM     25  C   UNL     1      31.791  -4.951 -23.929  0.00  0.00    +0.118 C 
ATOM     26  C   UNL     1      30.775  -6.094 -22.001  0.00  0.00    +0.087 C 
ATOM     27  C   UNL     1      32.817  -5.887 -23.954  0.00  0.00    +0.184 C 
ATOM     28  C   UNL     1      32.100  -6.787 -21.757  0.00  0.00    +0.231 C 
ATOM     29  C   UNL     1      31.668  -4.140 -25.047  0.00  0.00    +0.107 C 
ATOM     30  C   UNL     1      33.421  -5.165 -26.049  0.00  0.00    +0.115 C 
ATOM     31  C   UNL     1      30.624  -3.072 -25.114  0.00  0.00    +0.063 C 
ATOM     32  C   UNL     1      34.330  -5.293 -27.223  0.00  0.00    +0.143 C 
ENDBRANCH  19  21
ENDBRANCH   1  19
TORSDOF 4
ENDMDL
MODEL 2
REMARK VINA RESULT:     -10.2      8.631     14.064
REMARK  Name = 60919
REMARK  4 active torsions:
REMARK  status: ('A' for Active; 'I' for Inactive)
REMARK    1  A    between atoms: C_1  and  C_19
REMARK    2  A    between atoms: C_4  and  C_7
REMARK    3  A    between atoms: C_8  and  C_17
REMARK    4  A    between atoms: C_19  and  N_21
REMARK                            x       y       z     vdW  Elec       q    Type
REMARK                         _______ _______ _______ _____ _____    ______ ____
ROOT
ATOM      1  C   UNL     1      35.228 -20.708 -20.157  0.00  0.00    -0.002 C 
ATOM      2  C   UNL     1      33.951 -20.242 -20.436  0.00  0.00    -0.003 C 
ATOM      3  C   UNL     1      36.342 -19.903 -20.355  0.00  0.00    -0.003 C 
ATOM      4  C   UNL     1      34.895 -18.128 -21.125  0.00  0.00    +0.001 C 
ATOM      5  C   UNL     1      33.783 -18.946 -20.922  0.00  0.00    -0.000 C 
ATOM      6  C   UNL     1      36.174 -18.607 -20.841  0.00  0.00    -0.000 C 
ENDROOT
BRANCH   4   7
ATOM      7  C   UNL     1      34.721 -16.783 -21.629  0.00  0.00    +0.009 C 
ATOM      8  C   UNL     1      34.611 -16.518 -22.996  0.00  0.00    +0.065 C 
ATOM      9  C   UNL     1      34.664 -15.730 -20.713  0.00  0.00    +0.001 C 
ATOM     10  C   UNL     1      34.443 -15.207 -23.445  0.00  0.00    +0.010 C 
ATOM     11  C   UNL     1      34.497 -14.419 -21.161  0.00  0.00    +0.000 C 
ATOM     12  C   UNL     1      34.387 -14.158 -22.527  0.00  0.00    +0.001 C 
BRANCH   8  17
ATOM     13  N   UNL     1      35.337 -18.707 -23.791  0.00  0.00    -0.110 NA
ATOM     14  N   UNL     1      34.027 -17.481 -25.173  0.00  0.00    -0.087 NA
ATOM     15  N   UNL     1      35.065 -19.305 -24.961  0.00  0.00    -0.140 N 
ATOM     16  N   UNL     1      34.292 -18.614 -25.810  0.00  0.00    -0.022 NA
ATOM     17  C   UNL     1      34.666 -17.572 -23.975  0.00  0.00    +0.073 C 
ATOM     18  H   UNL     1      35.414 -20.199 -25.183  0.00  0.00    +0.197 HD
ENDBRANCH   8  17
ENDBRANCH   4   7
BRANCH   1  19
ATOM     19  C   UNL     1      35.410 -22.107 -19.631  0.00  0.00    +0.127 C 
BRANCH  19  21
ATOM     20  O   UNL     1      32.573 -22.140 -19.843  0.00  0.00    -0.274 OA
ATOM     21  N   UNL     1      34.487 -22.402 -18.540  0.00  0.00    -0.232 N 
ATOM     22  N   UNL     1      36.396 -22.626 -17.091  0.00  0.00    -0.332 NA
ATOM     23  N   UNL     1      36.161 -23.475 -14.851  0.00  0.00    -0.352 NA
ATOM     24  C   UNL     1      32.776 -23.475 -16.523  0.00  0.00    +0.025 C 
ATOM     25  C   UNL     1      34.230 -23.246 -16.278  0.00  0.00    +0.118 C 
ATOM     26  C   UNL     1      32.252 -22.444 -17.503  0.00  0.00    +0.087 C 
ATOM     27  C   UNL     1      35.059 -22.752 -17.276  0.00  0.00    +0.184 C 
ATOM     28  C   UNL     1      33.107 -22.347 -18.751  0.00  0.00    +0.231 C 
ATOM     29  C   UNL     1      34.841 -23.601 -15.085  0.00  0.00    +0.107 C 
ATOM     30  C   UNL     1      36.870 -22.989 -15.883  0.00  0.00    +0.115 C 
ATOM     31  C   UNL     1      34.052 -24.181 -13.956  0.00  0.00    +0.063 C 
ATOM     32  C   UNL     1      38.338 -22.840 -15.672  0.00  0.00    +0.143 C 
ENDBRANCH  19  21
ENDBRANCH   1  19
TORSDOF 4
ENDMDL
MODEL 3
REMARK VINA RESULT:      -9.8      3.251      5.434
REMARK  Name = 60919
REMARK  4 active torsions:
REMARK  status: ('A' for Active; 'I' for Inactive)
REMARK    1  A    between atoms: C_1  and  C_19
REMARK    2  A    between atoms: C_4  and  C_7
REMARK    3  A    between atoms: C_8  and  C_17
REMARK    4  A    between atoms: C_19  and  N_21
REMARK                            x       y       z     vdW  Elec       q    Type
REMARK                         _______ _______ _______ _____ _____    ______ ____
ROOT
ATOM      1  C   UNL     1      33.438 -13.378 -25.148  0.00  0.00    -0.002 C 
ATOM      2  C   UNL     1      34.120 -13.424 -23.940  0.00  0.00    -0.003 C 
ATOM      3  C   UNL     1      33.088 -14.543 -25.816  0.00  0.00    -0.003 C 
ATOM      4  C   UNL     1      34.111 -15.837 -24.051  0.00  0.00    +0.001 C 
ATOM      5  C   UNL     1      34.457 -14.660 -23.388  0.00  0.00    -0.000 C 
ATOM      6  C   UNL     1      33.426 -15.779 -25.264  0.00  0.00    -0.000 C 
ENDROOT
BRANCH   4   7
ATOM      7  C   UNL     1      34.461 -17.119 -23.478  0.00  0.00    +0.009 C 
ATOM      8  C   UNL     1      34.389 -17.355 -22.103  0.00  0.00    +0.065 C 
ATOM      9  C   UNL     1      34.880 -18.139 -24.335  0.00  0.00    +0.001 C 
ATOM     10  C   UNL     1      34.734 -18.605 -21.588  0.00  0.00    +0.010 C 
ATOM     11  C   UNL     1      35.225 -19.389 -23.820  0.00  0.00    +0.000 C 
ATOM     12  C   UNL     1      35.153 -19.622 -22.446  0.00  0.00    +0.001 C 
BRANCH   8  17
ATOM     13  N   UNL     1      34.809 -15.586 -20.477  0.00  0.00    -0.110 NA
ATOM     14  N   UNL     1      32.649 -16.054 -20.970  0.00  0.00    -0.087 NA
ATOM     15  N   UNL     1      33.921 -14.830 -19.814  0.00  0.00    -0.140 N 
ATOM     16  N   UNL     1      32.629 -15.074 -20.076  0.00  0.00    -0.022 NA
ATOM     17  C   UNL     1      33.963 -16.333 -21.184  0.00  0.00    +0.073 C 
ATOM     18  H   UNL     1      34.202 -14.138 -19.173  0.00  0.00    +0.197 HD
ENDBRANCH   8  17
ENDBRANCH   4   7
BRANCH   1  19
ATOM     19  C   UNL     1      33.073 -12.045 -25.743  0.00  0.00    +0.127 C 
BRANCH  19  21
ATOM     20  O   UNL     1      35.441 -10.757 -26.648  0.00  0.00    -0.274 OA
ATOM     21  N   UNL     1      33.745 -10.942 -25.062  0.00  0.00    -0.232 N 
ATOM     22  N   UNL     1      32.079 -11.098 -23.332  0.00  0.00    -0.332 NA
ATOM     23  N   UNL     1      31.927  -9.432 -21.602  0.00  0.00    -0.352 NA
ATOM     24  C   UNL     1      34.710  -8.488 -23.971  0.00  0.00    +0.025 C 
ATOM     25  C   UNL     1      33.615  -9.261 -23.316  0.00  0.00    +0.118 C 
ATOM     26  C   UNL     1      35.658  -9.438 -24.677  0.00  0.00    +0.087 C 
ATOM     27  C   UNL     1      33.132 -10.438 -23.872  0.00  0.00    +0.184 C 
ATOM     28  C   UNL     1      34.930 -10.414 -25.580  0.00  0.00    +0.231 C 
ATOM     29  C   UNL     1      32.964  -8.799 -22.182  0.00  0.00    +0.107 C 
ATOM     30  C   UNL     1      31.539 -10.559 -22.221  0.00  0.00    +0.115 C 
ATOM     31  C   UNL     1      33.373  -7.522 -21.523  0.00  0.00    +0.063 C 
ATOM     32  C   UNL     1      30.389 -11.289 -21.618  0.00  0.00    +0.143 C 
ENDBRANCH  19  21
ENDBRANCH   1  19
TORSDOF 4
ENDMDL
MODEL 4
REMARK VINA RESULT:      -9.7      2.521      8.380
REMARK  Name = 60919
REMARK  4 active torsions:
REMARK  status: ('A' for Active; 'I' for Inactive)
REMARK    1  A    between atoms: C_1  and  C_19
REMARK    2  A    between atoms: C_4  and  C_7
REMARK    3  A    between atoms: C_8  and  C_17
REMARK    4  A    between atoms: C_19  and  N_21
REMARK                            x       y       z     vdW  Elec       q    Type
REMARK                         _______ _______ _______ _____ _____    ______ ____
ROOT
ATOM      1  C   UNL     1      34.181  -6.947 -24.552  0.00  0.00    -0.002 C 
ATOM      2  C   UNL     1      32.844  -6.648 -24.327  0.00  0.00    -0.003 C 
ATOM      3  C   UNL     1      34.906  -6.287 -25.535  0.00  0.00    -0.003 C 
ATOM      4  C   UNL     1      32.939  -4.998 -26.089  0.00  0.00    +0.001 C 
ATOM      5  C   UNL     1      32.220  -5.668 -25.099  0.00  0.00    -0.000 C 
ATOM      6  C   UNL     1      34.282  -5.307 -26.307  0.00  0.00    -0.000 C 
ENDROOT
BRANCH   4   7
ATOM      7  C   UNL     1      32.292  -3.981 -26.890  0.00  0.00    +0.009 C 
ATOM      8  C   UNL     1      31.568  -2.938 -26.309  0.00  0.00    +0.065 C 
ATOM      9  C   UNL     1      32.404  -4.057 -28.280  0.00  0.00    +0.001 C 
ATOM     10  C   UNL     1      30.958  -1.975 -27.115  0.00  0.00    +0.010 C 
ATOM     11  C   UNL     1      31.794  -3.094 -29.086  0.00  0.00    +0.000 C 
ATOM     12  C   UNL     1      31.070  -2.053 -28.502  0.00  0.00    +0.001 C 
BRANCH   8  17
ATOM     13  N   UNL     1      32.280  -2.147 -24.114  0.00  0.00    -0.110 NA
ATOM     14  N   UNL     1      30.397  -3.401 -24.207  0.00  0.00    -0.087 NA
ATOM     15  N   UNL     1      31.701  -2.354 -22.922  0.00  0.00    -0.140 N 
ATOM     16  N   UNL     1      30.583  -3.092 -22.930  0.00  0.00    -0.022 NA
ATOM     17  C   UNL     1      31.426  -2.821 -24.881  0.00  0.00    +0.073 C 
ATOM     18  H   UNL     1      32.077  -1.986 -22.090  0.00  0.00    +0.197 HD
ENDBRANCH   8  17
ENDBRANCH   4   7
BRANCH   1  19
ATOM     19  C   UNL     1      34.854  -8.004 -23.719  0.00  0.00    +0.127 C 
BRANCH  19  21
ATOM     20  O   UNL     1      35.714  -9.519 -25.967  0.00  0.00    -0.274 OA
ATOM     21  N   UNL     1      34.388  -9.345 -24.059  0.00  0.00    -0.232 N 
ATOM     22  N   UNL     1      32.927  -9.236 -22.149  0.00  0.00    -0.332 NA
ATOM     23  N   UNL     1      31.717 -11.177 -21.401  0.00  0.00    -0.352 NA
ATOM     24  C   UNL     1      33.831 -12.126 -24.382  0.00  0.00    +0.025 C 
ATOM     25  C   UNL     1      33.162 -11.309 -23.328  0.00  0.00    +0.118 C 
ATOM     26  C   UNL     1      34.132 -11.259 -25.589  0.00  0.00    +0.087 C 
ATOM     27  C   UNL     1      33.463  -9.963 -23.160  0.00  0.00    +0.184 C 
ATOM     28  C   UNL     1      34.850  -9.978 -25.215  0.00  0.00    +0.231 C 
ATOM     29  C   UNL     1      32.286 -11.866 -22.409  0.00  0.00    +0.107 C 
ATOM     30  C   UNL     1      32.077  -9.886 -21.329  0.00  0.00    +0.115 C 
ATOM     31  C   UNL     1      31.922 -13.314 -22.469  0.00  0.00    +0.063 C 
ATOM     32  C   UNL     1      31.477  -9.086 -20.224  0.00  0.00    +0.143 C 
ENDBRANCH  19  21
ENDBRANCH   1  19
TORSDOF 4
ENDMDL
MODEL 5
REMARK VINA RESULT:      -9.3      8.892     14.260
REMARK  Name = 60919
REMARK  4 active torsions:
REMARK  status: ('A' for Active; 'I' for Inactive)
REMARK    1  A    between atoms: C_1  and  C_19
REMARK    2  A    between atoms: C_4  and  C_7
REMARK    3  A    between atoms: C_8  and  C_17
REMARK    4  A    between atoms: C_19  and  N_21
REMARK                            x       y       z     vdW  Elec       q    Type
REMARK                         _______ _______ _______ _____ _____    ______ ____
ROOT
ATOM      1  C   UNL     1      33.852 -21.255 -19.868  0.00  0.00    -0.002 C 
ATOM      2  C   UNL     1      32.738 -20.463 -20.108  0.00  0.00    -0.003 C 
ATOM      3  C   UNL     1      35.134 -20.777 -20.103  0.00  0.00    -0.003 C 
ATOM      4  C   UNL     1      34.192 -18.675 -20.832  0.00  0.00    +0.001 C 
ATOM      5  C   UNL     1      32.909 -19.166 -20.592  0.00  0.00    -0.000 C 
ATOM      6  C   UNL     1      35.305 -19.480 -20.587  0.00  0.00    -0.000 C 
ENDROOT
BRANCH   4   7
ATOM      7  C   UNL     1      34.370 -17.330 -21.334  0.00  0.00    +0.009 C 
ATOM      8  C   UNL     1      34.582 -17.073 -22.691  0.00  0.00    +0.065 C 
ATOM      9  C   UNL     1      34.326 -16.268 -20.428  0.00  0.00    +0.001 C 
ATOM     10  C   UNL     1      34.749 -15.761 -23.138  0.00  0.00    +0.010 C 
ATOM     11  C   UNL     1      34.493 -14.957 -20.874  0.00  0.00    +0.000 C 
ATOM     12  C   UNL     1      34.705 -14.704 -22.230  0.00  0.00    +0.001 C 
BRANCH   8  17
ATOM     13  N   UNL     1      35.363 -19.239 -23.496  0.00  0.00    -0.110 NA
ATOM     14  N   UNL     1      33.939 -18.087 -24.827  0.00  0.00    -0.087 NA
ATOM     15  N   UNL     1      35.063 -19.863 -24.645  0.00  0.00    -0.140 N 
ATOM     16  N   UNL     1      34.222 -19.216 -25.464  0.00  0.00    -0.022 NA
ATOM     17  C   UNL     1      34.636 -18.136 -23.660  0.00  0.00    +0.073 C 
ATOM     18  H   UNL     1      35.438 -20.743 -24.874  0.00  0.00    +0.197 HD
ENDBRANCH   8  17
ENDBRANCH   4   7
BRANCH   1  19
ATOM     19  C   UNL     1      33.667 -22.654 -19.344  0.00  0.00    +0.127 C 
BRANCH  19  21
ATOM     20  O   UNL     1      36.310 -22.398 -18.325  0.00  0.00    -0.274 OA
ATOM     21  N   UNL     1      34.042 -22.763 -17.938  0.00  0.00    -0.232 N 
ATOM     22  N   UNL     1      31.732 -23.221 -17.439  0.00  0.00    -0.332 NA
ATOM     23  N   UNL     1      30.947 -23.305 -15.166  0.00  0.00    -0.352 NA
ATOM     24  C   UNL     1      34.631 -22.479 -15.159  0.00  0.00    +0.025 C 
ATOM     25  C   UNL     1      33.270 -22.859 -15.638  0.00  0.00    +0.118 C 
ATOM     26  C   UNL     1      35.679 -23.017 -16.114  0.00  0.00    +0.087 C 
ATOM     27  C   UNL     1      32.986 -22.965 -16.994  0.00  0.00    +0.184 C 
ATOM     28  C   UNL     1      35.382 -22.661 -17.557  0.00  0.00    +0.231 C 
ATOM     29  C   UNL     1      32.204 -23.030 -14.768  0.00  0.00    +0.107 C 
ATOM     30  C   UNL     1      30.783 -23.383 -16.496  0.00  0.00    +0.115 C 
ATOM     31  C   UNL     1      32.385 -22.900 -13.291  0.00  0.00    +0.063 C 
ATOM     32  C   UNL     1      29.405 -23.678 -16.983  0.00  0.00    +0.143 C 
ENDBRANCH  19  21
ENDBRANCH   1  19
TORSDOF 4
ENDMDL
MODEL 6
REMARK VINA RESULT:      -9.1      2.732      4.571
REMARK  Name = 60919
REMARK  4 active torsions:
REMARK  status: ('A' for Active; 'I' for Inactive)
REMARK    1  A    between atoms: C_1  and  C_19
REMARK    2  A    between atoms: C_4  and  C_7
REMARK    3  A    between atoms: C_8  and  C_17
REMARK    4  A    between atoms: C_19  and  N_21
REMARK                            x       y       z     vdW  Elec       q    Type
REMARK                         _______ _______ _______ _____ _____    ______ ____
ROOT
ATOM      1  C   UNL     1      33.531 -12.891 -24.408  0.00  0.00    -0.002 C 
ATOM      2  C   UNL     1      34.319 -13.323 -23.350  0.00  0.00    -0.003 C 
ATOM      3  C   UNL     1      33.019 -13.791 -25.333  0.00  0.00    -0.003 C 
ATOM      4  C   UNL     1      34.093 -15.595 -24.137  0.00  0.00    +0.001 C 
ATOM      5  C   UNL     1      34.601 -14.682 -23.214  0.00  0.00    -0.000 C 
ATOM      6  C   UNL     1      33.301 -15.150 -25.196  0.00  0.00    -0.000 C 
ENDROOT
BRANCH   4   7
ATOM      7  C   UNL     1      34.385 -17.005 -23.996  0.00  0.00    +0.009 C 
ATOM      8  C   UNL     1      34.482 -17.615 -22.742  0.00  0.00    +0.065 C 
ATOM      9  C   UNL     1      34.572 -17.766 -25.152  0.00  0.00    +0.001 C 
ATOM     10  C   UNL     1      34.765 -18.978 -22.646  0.00  0.00    +0.010 C 
ATOM     11  C   UNL     1      34.855 -19.130 -25.056  0.00  0.00    +0.000 C 
ATOM     12  C   UNL     1      34.952 -19.735 -23.803  0.00  0.00    +0.001 C 
BRANCH   8  17
ATOM     13  N   UNL     1      33.118 -16.395 -21.130  0.00  0.00    -0.110 NA
ATOM     14  N   UNL     1      35.330 -16.591 -20.683  0.00  0.00    -0.087 NA
ATOM     15  N   UNL     1      33.500 -15.807 -19.985  0.00  0.00    -0.140 N 
ATOM     16  N   UNL     1      34.802 -15.899 -19.682  0.00  0.00    -0.022 NA
ATOM     17  C   UNL     1      34.298 -16.868 -21.525  0.00  0.00    +0.073 C 
ATOM     18  H   UNL     1      32.861 -15.336 -19.404  0.00  0.00    +0.197 HD
ENDBRANCH   8  17
ENDBRANCH   4   7
BRANCH   1  19
ATOM     19  C   UNL     1      33.225 -11.424 -24.555  0.00  0.00    +0.127 C 
BRANCH  19  21
ATOM     20  O   UNL     1      31.647 -12.902 -22.708  0.00  0.00    -0.274 OA
ATOM     21  N   UNL     1      32.596 -10.877 -23.357  0.00  0.00    -0.232 N 
ATOM     22  N   UNL     1      33.473  -8.722 -23.977  0.00  0.00    -0.332 NA
ATOM     23  N   UNL     1      33.340  -6.849 -22.472  0.00  0.00    -0.352 NA
ATOM     24  C   UNL     1      31.830  -9.876 -20.795  0.00  0.00    +0.025 C 
ATOM     25  C   UNL     1      32.440  -8.993 -21.832  0.00  0.00    +0.118 C 
ATOM     26  C   UNL     1      31.021 -10.970 -21.464  0.00  0.00    +0.087 C 
ATOM     27  C   UNL     1      32.837  -9.497 -23.064  0.00  0.00    +0.184 C 
ATOM     28  C   UNL     1      31.805 -11.691 -22.543  0.00  0.00    +0.231 C 
ATOM     29  C   UNL     1      32.728  -7.659 -21.588  0.00  0.00    +0.107 C 
ATOM     30  C   UNL     1      33.682  -7.437 -23.629  0.00  0.00    +0.115 C 
ATOM     31  C   UNL     1      32.382  -7.022 -20.281  0.00  0.00    +0.063 C 
ATOM     32  C   UNL     1      34.370  -6.579 -24.635  0.00  0.00    +0.143 C 
ENDBRANCH  19  21
ENDBRANCH   1  19
TORSDOF 4
ENDMDL
MODEL 7
REMARK VINA RESULT:      -8.8      2.307      7.979
REMARK  Name = 60919
REMARK  4 active torsions:
REMARK  status: ('A' for Active; 'I' for Inactive)
REMARK    1  A    between atoms: C_1  and  C_19
REMARK    2  A    between atoms: C_4  and  C_7
REMARK    3  A    between atoms: C_8  and  C_17
REMARK    4  A    between atoms: C_19  and  N_21
REMARK                            x       y       z     vdW  Elec       q    Type
REMARK                         _______ _______ _______ _____ _____    ______ ____
ROOT
ATOM      1  C   UNL     1      33.663  -6.693 -23.827  0.00  0.00    -0.002 C 
ATOM      2  C   UNL     1      34.588  -6.360 -24.807  0.00  0.00    -0.003 C 
ATOM      3  C   UNL     1      32.341  -6.281 -23.923  0.00  0.00    -0.003 C 
ATOM      4  C   UNL     1      32.857  -5.184 -26.013  0.00  0.00    +0.001 C 
ATOM      5  C   UNL     1      34.183  -5.602 -25.906  0.00  0.00    -0.000 C 
ATOM      6  C   UNL     1      31.936  -5.523 -25.022  0.00  0.00    -0.000 C 
ENDROOT
BRANCH   4   7
ATOM      7  C   UNL     1      32.436  -4.398 -27.152  0.00  0.00    +0.009 C 
ATOM      8  C   UNL     1      31.754  -3.188 -27.000  0.00  0.00    +0.065 C 
ATOM      9  C   UNL     1      32.726  -4.873 -28.433  0.00  0.00    +0.001 C 
ATOM     10  C   UNL     1      31.365  -2.457 -28.124  0.00  0.00    +0.010 C 
ATOM     11  C   UNL     1      32.337  -4.142 -29.557  0.00  0.00    +0.000 C 
ATOM     12  C   UNL     1      31.656  -2.935 -29.402  0.00  0.00    +0.001 C 
BRANCH   8  17
ATOM     13  N   UNL     1      32.329  -2.075 -24.907  0.00  0.00    -0.110 NA
ATOM     14  N   UNL     1      30.178  -2.727 -25.182  0.00  0.00    -0.087 NA
ATOM     15  N   UNL     1      31.532  -1.786 -23.867  0.00  0.00    -0.140 N 
ATOM     16  N   UNL     1      30.249  -2.155 -23.987  0.00  0.00    -0.022 NA
ATOM     17  C   UNL     1      31.434  -2.661 -25.700  0.00  0.00    +0.073 C 
ATOM     18  H   UNL     1      31.871  -1.331 -23.063  0.00  0.00    +0.197 HD
ENDBRANCH   8  17
ENDBRANCH   4   7
BRANCH   1  19
ATOM     19  C   UNL     1      34.100  -7.511 -22.642  0.00  0.00    +0.127 C 
BRANCH  19  21
ATOM     20  O   UNL     1      32.036  -8.116 -20.781  0.00  0.00    -0.274 OA
ATOM     21  N   UNL     1      33.383  -8.780 -22.562  0.00  0.00    -0.232 N 
ATOM     22  N   UNL     1      34.773  -9.588 -24.354  0.00  0.00    -0.332 NA
ATOM     23  N   UNL     1      34.311 -11.689 -25.432  0.00  0.00    -0.352 NA
ATOM     24  C   UNL     1      31.689 -11.066 -22.788  0.00  0.00    +0.025 C 
ATOM     25  C   UNL     1      32.912 -10.910 -23.629  0.00  0.00    +0.118 C 
ATOM     26  C   UNL     1      31.903 -10.400 -21.443  0.00  0.00    +0.087 C 
ATOM     27  C   UNL     1      33.713  -9.779 -23.532  0.00  0.00    +0.184 C 
ATOM     28  C   UNL     1      32.414  -8.979 -21.577  0.00  0.00    +0.231 C 
ATOM     29  C   UNL     1      33.256 -11.829 -24.607  0.00  0.00    +0.107 C 
ATOM     30  C   UNL     1      35.016 -10.560 -25.255  0.00  0.00    +0.115 C 
ATOM     31  C   UNL     1      32.442 -13.063 -24.827  0.00  0.00    +0.063 C 
ATOM     32  C   UNL     1      36.189 -10.358 -26.152  0.00  0.00    +0.143 C 
ENDBRANCH  19  21
ENDBRANCH   1  19
TORSDOF 4
ENDMDL
MODEL 8
REMARK VINA RESULT:      -8.6      8.033     13.638
REMARK  Name = 60919
REMARK  4 active torsions:
REMARK  status: ('A' for Active; 'I' for Inactive)
REMARK    1  A    between atoms: C_1  and  C_19
REMARK    2  A    between atoms: C_4  and  C_7
REMARK    3  A    between atoms: C_8  and  C_17
REMARK    4  A    between atoms: C_19  and  N_21
REMARK                            x       y       z     vdW  Elec       q    Type
REMARK                         _______ _______ _______ _____ _____    ______ ____
ROOT
ATOM      1  C   UNL     1      34.070 -20.257 -20.514  0.00  0.00    -0.002 C 
ATOM      2  C   UNL     1      32.773 -19.766 -20.587  0.00  0.00    -0.003 C 
ATOM      3  C   UNL     1      35.162 -19.420 -20.696  0.00  0.00    -0.003 C 
ATOM      4  C   UNL     1      33.656 -17.561 -21.031  0.00  0.00    +0.001 C 
ATOM      5  C   UNL     1      32.565 -18.411 -20.846  0.00  0.00    -0.000 C 
ATOM      6  C   UNL     1      34.954 -18.066 -20.955  0.00  0.00    -0.000 C 
ENDROOT
BRANCH   4   7
ATOM      7  C   UNL     1      33.440 -16.156 -21.299  0.00  0.00    +0.009 C 
ATOM      8  C   UNL     1      33.707 -15.597 -22.551  0.00  0.00    +0.065 C 
ATOM      9  C   UNL     1      32.951 -15.348 -20.270  0.00  0.00    +0.001 C 
ATOM     10  C   UNL     1      33.486 -14.237 -22.772  0.00  0.00    +0.010 C 
ATOM     11  C   UNL     1      32.730 -13.988 -20.491  0.00  0.00    +0.000 C 
ATOM     12  C   UNL     1      32.998 -13.433 -21.742  0.00  0.00    +0.001 C 
BRANCH   8  17
ATOM     13  N   UNL     1      35.209 -17.265 -23.506  0.00  0.00    -0.110 NA
ATOM     14  N   UNL     1      33.701 -16.305 -24.897  0.00  0.00    -0.087 NA
ATOM     15  N   UNL     1      35.273 -17.707 -24.771  0.00  0.00    -0.140 N 
ATOM     16  N   UNL     1      34.397 -17.165 -25.629  0.00  0.00    -0.022 NA
ATOM     17  C   UNL     1      34.213 -16.392 -23.640  0.00  0.00    +0.073 C 
ATOM     18  H   UNL     1      35.924 -18.389 -25.053  0.00  0.00    +0.197 HD
ENDBRANCH   8  17
ENDBRANCH   4   7
BRANCH   1  19
ATOM     19  C   UNL     1      34.294 -21.719 -20.234  0.00  0.00    +0.127 C 
BRANCH  19  21
ATOM     20  O   UNL     1      37.070 -21.111 -20.115  0.00  0.00    -0.274 OA
ATOM     21  N   UNL     1      35.153 -21.924 -19.071  0.00  0.00    -0.232 N 
ATOM     22  N   UNL     1      33.248 -22.849 -17.926  0.00  0.00    -0.332 NA
ATOM     23  N   UNL     1      33.334 -23.343 -15.573  0.00  0.00    -0.352 NA
ATOM     24  C   UNL     1      36.644 -21.871 -16.638  0.00  0.00    +0.025 C 
ATOM     25  C   UNL     1      35.262 -22.431 -16.699  0.00  0.00    +0.118 C 
ATOM     26  C   UNL     1      37.347 -22.092 -17.963  0.00  0.00    +0.087 C 
ATOM     27  C   UNL     1      34.534 -22.425 -17.882  0.00  0.00    +0.184 C 
ATOM     28  C   UNL     1      36.516 -21.627 -19.142  0.00  0.00    +0.231 C 
ATOM     29  C   UNL     1      34.605 -22.894 -15.571  0.00  0.00    +0.107 C 
ATOM     30  C   UNL     1      32.723 -23.291 -16.767  0.00  0.00    +0.115 C 
ATOM     31  C   UNL     1      35.277 -22.910 -14.236  0.00  0.00    +0.063 C 
ATOM     32  C   UNL     1      31.312 -23.770 -16.815  0.00  0.00    +0.143 C 
ENDBRANCH  19  21
ENDBRANCH   1  19
TORSDOF 4
ENDMDL
MODEL 9
REMARK VINA RESULT:      -8.6      1.639      2.918
REMARK  Name = 60919
REMARK  4 active torsions:
REMARK  status: ('A' for Active; 'I' for Inactive)
REMARK    1  A    between atoms: C_1  and  C_19
REMARK    2  A    between atoms: C_4  and  C_7
REMARK    3  A    between atoms: C_8  and  C_17
REMARK    4  A    between atoms: C_19  and  N_21
REMARK                            x       y       z     vdW  Elec       q    Type
REMARK                         _______ _______ _______ _____ _____    ______ ____
ROOT
ATOM      1  C   UNL     1      34.594  -9.282 -24.133  0.00  0.00    -0.002 C 
ATOM      2  C   UNL     1      33.476  -9.920 -23.613  0.00  0.00    -0.003 C 
ATOM      3  C   UNL     1      35.347  -9.868 -25.141  0.00  0.00    -0.003 C 
ATOM      4  C   UNL     1      33.854 -11.767 -25.123  0.00  0.00    +0.001 C 
ATOM      5  C   UNL     1      33.104 -11.169 -24.111  0.00  0.00    -0.000 C 
ATOM      6  C   UNL     1      34.975 -11.117 -25.639  0.00  0.00    -0.000 C 
ENDROOT
BRANCH   4   7
ATOM      7  C   UNL     1      33.468 -13.063 -25.640  0.00  0.00    +0.009 C 
ATOM      8  C   UNL     1      33.311 -14.171 -24.805  0.00  0.00    +0.065 C 
ATOM      9  C   UNL     1      33.249 -13.194 -27.013  0.00  0.00    +0.001 C 
ATOM     10  C   UNL     1      32.937 -15.404 -25.340  0.00  0.00    +0.010 C 
ATOM     11  C   UNL     1      32.875 -14.427 -27.549  0.00  0.00    +0.000 C 
ATOM     12  C   UNL     1      32.720 -15.532 -26.712  0.00  0.00    +0.001 C 
BRANCH   8  17
ATOM     13  N   UNL     1      34.705 -14.315 -22.808  0.00  0.00    -0.110 NA
ATOM     14  N   UNL     1      32.531 -13.748 -22.521  0.00  0.00    -0.087 NA
ATOM     15  N   UNL     1      34.360 -14.101 -21.529  0.00  0.00    -0.140 N 
ATOM     16  N   UNL     1      33.081 -13.763 -21.313  0.00  0.00    -0.022 NA
ATOM     17  C   UNL     1      33.528 -14.082 -23.384  0.00  0.00    +0.073 C 
ATOM     18  H   UNL     1      35.007 -14.189 -20.793  0.00  0.00    +0.197 HD
ENDBRANCH   8  17
ENDBRANCH   4   7
BRANCH   1  19
ATOM     19  C   UNL     1      34.995  -7.934 -23.596  0.00  0.00    +0.127 C 
BRANCH  19  21
ATOM     20  O   UNL     1      34.615  -6.473 -26.006  0.00  0.00    -0.274 OA
ATOM     21  N   UNL     1      33.959  -6.930 -23.818  0.00  0.00    -0.232 N 
ATOM     22  N   UNL     1      33.247  -7.276 -21.545  0.00  0.00    -0.332 NA
ATOM     23  N   UNL     1      31.212  -6.294 -20.719  0.00  0.00    -0.352 NA
ATOM     24  C   UNL     1      31.629  -5.372 -24.356  0.00  0.00    +0.025 C 
ATOM     25  C   UNL     1      31.910  -5.919 -22.997  0.00  0.00    +0.118 C 
ATOM     26  C   UNL     1      32.934  -5.071 -25.068  0.00  0.00    +0.087 C 
ATOM     27  C   UNL     1      33.032  -6.701 -22.753  0.00  0.00    +0.184 C 
ATOM     28  C   UNL     1      33.894  -6.243 -25.033  0.00  0.00    +0.231 C 
ATOM     29  C   UNL     1      31.027  -5.757 -21.940  0.00  0.00    +0.107 C 
ATOM     30  C   UNL     1      32.325  -7.033 -20.593  0.00  0.00    +0.115 C 
ATOM     31  C   UNL     1      29.768  -4.968 -22.100  0.00  0.00    +0.063 C 
ATOM     32  C   UNL     1      32.567  -7.654 -19.259  0.00  0.00    +0.143 C 
ENDBRANCH  19  21
ENDBRANCH   1  19
TORSDOF 4
ENDMDL
