MODEL 1
REMARK VINA RESULT:      -5.6      0.000      0.000
REMARK  Name = 46937150
REMARK  7 active torsions:
REMARK  status: ('A' for Active; 'I' for Inactive)
REMARK    1  A    between atoms: C_2  and  C_3
REMARK    2  A    between atoms: C_2  and  C_10
REMARK    3  A    between atoms: C_3  and  C_5
REMARK    4  A    between atoms: C_5  and  O_6
REMARK    5  A    between atoms: C_5  and  C_8
REMARK    6  A    between atoms: C_10  and  P_11
REMARK    7  A    between atoms: P_11  and  O_14
REMARK                            x       y       z     vdW  Elec       q    Type
REMARK                         _______ _______ _______ _____ _____    ______ ____
ROOT
ATOM      1  O   UNL     1      37.131 -26.454 -12.199  0.00  0.00    -0.295 OA
ATOM      2  C   UNL     1      37.425 -25.405 -12.772  0.00  0.00    +0.162 C 
ENDROOT
BRANCH   2   3
ATOM      3  C   UNL     1      36.366 -24.397 -13.220  0.00  0.00    +0.085 C 
ATOM      4  C   UNL     1      35.275 -24.346 -12.150  0.00  0.00    +0.010 C 
BRANCH   3   5
ATOM      5  C   UNL     1      35.790 -24.711 -14.616  0.00  0.00    +0.117 C 
BRANCH   5   6
ATOM      6  O   UNL     1      35.773 -26.126 -14.816  0.00  0.00    -0.384 OA
ATOM      7  H   UNL     1      35.210 -26.540 -14.144  0.00  0.00    +0.210 HD
ENDBRANCH   5   6
BRANCH   5   8
ATOM      8  C   UNL     1      34.383 -24.158 -14.882  0.00  0.00    +0.030 C 
ATOM      9  C   UNL     1      34.245 -23.440 -16.214  0.00  0.00    +0.003 C 
ENDBRANCH   5   8
ENDBRANCH   3   5
ENDBRANCH   2   3
BRANCH   2  10
ATOM     10  C   UNL     1      38.865 -25.030 -13.032  0.00  0.00    +0.147 C 
BRANCH  10  11
ATOM     11  P   UNL     1      39.562 -25.781 -14.516  0.00  0.00    +0.207 P 
ATOM     12  O   UNL     1      40.947 -26.294 -14.217  0.00  0.00    -0.293 OA
ATOM     13  H   UNL     1      39.134 -25.372 -15.762  0.00  0.00    +0.129 HD
BRANCH  11  14
ATOM     14  O   UNL     1      38.521 -27.015 -14.714  0.00  0.00    -0.345 OA
ATOM     15  H   UNL     1      38.988 -27.772 -15.101  0.00  0.00    +0.217 HD
ENDBRANCH  11  14
ENDBRANCH  10  11
ENDBRANCH   2  10
TORSDOF 7
ENDMDL
MODEL 2
REMARK VINA RESULT:      -5.6      1.926      2.335
REMARK  Name = 46937150
REMARK  7 active torsions:
REMARK  status: ('A' for Active; 'I' for Inactive)
REMARK    1  A    between atoms: C_2  and  C_3
REMARK    2  A    between atoms: C_2  and  C_10
REMARK    3  A    between atoms: C_3  and  C_5
REMARK    4  A    between atoms: C_5  and  O_6
REMARK    5  A    between atoms: C_5  and  C_8
REMARK    6  A    between atoms: C_10  and  P_11
REMARK    7  A    between atoms: P_11  and  O_14
REMARK                            x       y       z     vdW  Elec       q    Type
REMARK                         _______ _______ _______ _____ _____    ______ ____
ROOT
ATOM      1  O   UNL     1      37.964 -25.676 -12.117  0.00  0.00    -0.295 OA
ATOM      2  C   UNL     1      37.694 -25.651 -13.318  0.00  0.00    +0.162 C 
ENDROOT
BRANCH   2   3
ATOM      3  C   UNL     1      36.533 -24.825 -13.874  0.00  0.00    +0.085 C 
ATOM      4  C   UNL     1      35.984 -25.546 -15.106  0.00  0.00    +0.010 C 
BRANCH   3   5
ATOM      5  C   UNL     1      36.928 -23.368 -14.187  0.00  0.00    +0.117 C 
BRANCH   5   6
ATOM      6  O   UNL     1      37.863 -22.908 -13.208  0.00  0.00    -0.384 OA
ATOM      7  H   UNL     1      38.471 -23.627 -12.980  0.00  0.00    +0.210 HD
ENDBRANCH   5   6
BRANCH   5   8
ATOM      8  C   UNL     1      37.523 -23.137 -15.583  0.00  0.00    +0.030 C 
ATOM      9  C   UNL     1      36.910 -21.962 -16.327  0.00  0.00    +0.003 C 
ENDBRANCH   5   8
ENDBRANCH   3   5
ENDBRANCH   2   3
BRANCH   2  10
ATOM     10  C   UNL     1      38.525 -26.408 -14.325  0.00  0.00    +0.147 C 
BRANCH  10  11
ATOM     11  P   UNL     1      40.178 -25.730 -14.570  0.00  0.00    +0.207 P 
ATOM     12  O   UNL     1      41.199 -26.665 -13.972  0.00  0.00    -0.293 OA
ATOM     13  H   UNL     1      40.353 -24.368 -14.704  0.00  0.00    +0.129 HD
BRANCH  11  14
ATOM     14  O   UNL     1      40.250 -25.762 -16.194  0.00  0.00    -0.345 OA
ATOM     15  H   UNL     1      39.355 -25.851 -16.556  0.00  0.00    +0.217 HD
ENDBRANCH  11  14
ENDBRANCH  10  11
ENDBRANCH   2  10
TORSDOF 7
ENDMDL
MODEL 3
REMARK VINA RESULT:      -5.5      2.564      3.483
REMARK  Name = 46937150
REMARK  7 active torsions:
REMARK  status: ('A' for Active; 'I' for Inactive)
REMARK    1  A    between atoms: C_2  and  C_3
REMARK    2  A    between atoms: C_2  and  C_10
REMARK    3  A    between atoms: C_3  and  C_5
REMARK    4  A    between atoms: C_5  and  O_6
REMARK    5  A    between atoms: C_5  and  C_8
REMARK    6  A    between atoms: C_10  and  P_11
REMARK    7  A    between atoms: P_11  and  O_14
REMARK                            x       y       z     vdW  Elec       q    Type
REMARK                         _______ _______ _______ _____ _____    ______ ____
ROOT
ATOM      1  O   UNL     1      36.950 -26.548 -11.852  0.00  0.00    -0.295 OA
ATOM      2  C   UNL     1      37.587 -25.737 -12.525  0.00  0.00    +0.162 C 
ENDROOT
BRANCH   2   3
ATOM      3  C   UNL     1      37.958 -26.004 -13.984  0.00  0.00    +0.085 C 
ATOM      4  C   UNL     1      39.363 -25.449 -14.227  0.00  0.00    +0.010 C 
BRANCH   3   5
ATOM      5  C   UNL     1      36.932 -25.429 -14.981  0.00  0.00    +0.117 C 
BRANCH   5   6
ATOM      6  O   UNL     1      35.615 -25.580 -14.447  0.00  0.00    -0.384 OA
ATOM      7  H   UNL     1      35.569 -25.160 -13.574  0.00  0.00    +0.210 HD
ENDBRANCH   5   6
BRANCH   5   8
ATOM      8  C   UNL     1      37.143 -23.956 -15.360  0.00  0.00    +0.030 C 
ATOM      9  C   UNL     1      35.860 -23.221 -15.714  0.00  0.00    +0.003 C 
ENDBRANCH   5   8
ENDBRANCH   3   5
ENDBRANCH   2   3
BRANCH   2  10
ATOM     10  C   UNL     1      38.007 -24.403 -11.956  0.00  0.00    +0.147 C 
BRANCH  10  11
ATOM     11  P   UNL     1      36.633 -23.391 -11.371  0.00  0.00    +0.207 P 
ATOM     12  O   UNL     1      35.441 -23.593 -12.271  0.00  0.00    -0.293 OA
ATOM     13  H   UNL     1      36.881 -22.241 -10.652  0.00  0.00    +0.129 HD
BRANCH  11  14
ATOM     14  O   UNL     1      36.382 -24.081  -9.920  0.00  0.00    -0.345 OA
ATOM     15  H   UNL     1      37.084 -24.727  -9.743  0.00  0.00    +0.217 HD
ENDBRANCH  11  14
ENDBRANCH  10  11
ENDBRANCH   2  10
TORSDOF 7
ENDMDL
MODEL 4
REMARK VINA RESULT:      -5.5      9.891     11.956
REMARK  Name = 46937150
REMARK  7 active torsions:
REMARK  status: ('A' for Active; 'I' for Inactive)
REMARK    1  A    between atoms: C_2  and  C_3
REMARK    2  A    between atoms: C_2  and  C_10
REMARK    3  A    between atoms: C_3  and  C_5
REMARK    4  A    between atoms: C_5  and  O_6
REMARK    5  A    between atoms: C_5  and  C_8
REMARK    6  A    between atoms: C_10  and  P_11
REMARK    7  A    between atoms: P_11  and  O_14
REMARK                            x       y       z     vdW  Elec       q    Type
REMARK                         _______ _______ _______ _____ _____    ______ ____
ROOT
ATOM      1  O   UNL     1      35.258 -16.771 -20.390  0.00  0.00    -0.295 OA
ATOM      2  C   UNL     1      35.020 -17.023 -21.571  0.00  0.00    +0.162 C 
ENDROOT
BRANCH   2   3
ATOM      3  C   UNL     1      35.457 -18.332 -22.228  0.00  0.00    +0.085 C 
ATOM      4  C   UNL     1      34.911 -18.354 -23.656  0.00  0.00    +0.010 C 
BRANCH   3   5
ATOM      5  C   UNL     1      35.029 -19.579 -21.428  0.00  0.00    +0.117 C 
BRANCH   5   6
ATOM      6  O   UNL     1      35.812 -19.671 -20.236  0.00  0.00    -0.384 OA
ATOM      7  H   UNL     1      35.361 -20.244 -19.597  0.00  0.00    +0.210 HD
ENDBRANCH   5   6
BRANCH   5   8
ATOM      8  C   UNL     1      33.543 -19.633 -21.047  0.00  0.00    +0.030 C 
ATOM      9  C   UNL     1      33.213 -20.685 -20.001  0.00  0.00    +0.003 C 
ENDBRANCH   5   8
ENDBRANCH   3   5
ENDBRANCH   2   3
BRANCH   2  10
ATOM     10  C   UNL     1      34.238 -16.063 -22.436  0.00  0.00    +0.147 C 
BRANCH  10  11
ATOM     11  P   UNL     1      33.202 -14.917 -21.506  0.00  0.00    +0.207 P 
ATOM     12  O   UNL     1      32.353 -14.118 -22.463  0.00  0.00    -0.293 OA
ATOM     13  H   UNL     1      33.606 -14.472 -20.265  0.00  0.00    +0.129 HD
BRANCH  11  14
ATOM     14  O   UNL     1      32.291 -15.980 -20.678  0.00  0.00    -0.345 OA
ATOM     15  H   UNL     1      31.930 -16.641 -21.289  0.00  0.00    +0.217 HD
ENDBRANCH  11  14
ENDBRANCH  10  11
ENDBRANCH   2  10
TORSDOF 7
ENDMDL
MODEL 5
REMARK VINA RESULT:      -5.5      9.159     10.949
REMARK  Name = 46937150
REMARK  7 active torsions:
REMARK  status: ('A' for Active; 'I' for Inactive)
REMARK    1  A    between atoms: C_2  and  C_3
REMARK    2  A    between atoms: C_2  and  C_10
REMARK    3  A    between atoms: C_3  and  C_5
REMARK    4  A    between atoms: C_5  and  O_6
REMARK    5  A    between atoms: C_5  and  C_8
REMARK    6  A    between atoms: C_10  and  P_11
REMARK    7  A    between atoms: P_11  and  O_14
REMARK                            x       y       z     vdW  Elec       q    Type
REMARK                         _______ _______ _______ _____ _____    ______ ____
ROOT
ATOM      1  O   UNL     1      35.099 -17.566 -20.804  0.00  0.00    -0.295 OA
ATOM      2  C   UNL     1      35.144 -18.468 -21.641  0.00  0.00    +0.162 C 
ENDROOT
BRANCH   2   3
ATOM      3  C   UNL     1      34.769 -19.911 -21.304  0.00  0.00    +0.085 C 
ATOM      4  C   UNL     1      33.409 -19.898 -20.603  0.00  0.00    +0.010 C 
BRANCH   3   5
ATOM      5  C   UNL     1      35.843 -20.632 -20.464  0.00  0.00    +0.117 C 
BRANCH   5   6
ATOM      6  O   UNL     1      36.753 -19.668 -19.930  0.00  0.00    -0.384 OA
ATOM      7  H   UNL     1      36.839 -18.926 -20.548  0.00  0.00    +0.210 HD
ENDBRANCH   5   6
BRANCH   5   8
ATOM      8  C   UNL     1      35.304 -21.492 -19.313  0.00  0.00    +0.030 C 
ATOM      9  C   UNL     1      36.313 -21.736 -18.202  0.00  0.00    +0.003 C 
ENDBRANCH   5   8
ENDBRANCH   3   5
ENDBRANCH   2   3
BRANCH   2  10
ATOM     10  C   UNL     1      35.536 -18.190 -23.073  0.00  0.00    +0.147 C 
BRANCH  10  11
ATOM     11  P   UNL     1      34.615 -16.841 -23.836  0.00  0.00    +0.207 P 
ATOM     12  O   UNL     1      35.272 -15.527 -23.496  0.00  0.00    -0.293 OA
ATOM     13  H   UNL     1      33.272 -16.992 -24.114  0.00  0.00    +0.129 HD
BRANCH  11  14
ATOM     14  O   UNL     1      34.841 -17.207 -25.405  0.00  0.00    -0.345 OA
ATOM     15  H   UNL     1      35.586 -16.693 -25.753  0.00  0.00    +0.217 HD
ENDBRANCH  11  14
ENDBRANCH  10  11
ENDBRANCH   2  10
TORSDOF 7
ENDMDL
MODEL 6
REMARK VINA RESULT:      -5.4     11.880     13.534
REMARK  Name = 46937150
REMARK  7 active torsions:
REMARK  status: ('A' for Active; 'I' for Inactive)
REMARK    1  A    between atoms: C_2  and  C_3
REMARK    2  A    between atoms: C_2  and  C_10
REMARK    3  A    between atoms: C_3  and  C_5
REMARK    4  A    between atoms: C_5  and  O_6
REMARK    5  A    between atoms: C_5  and  C_8
REMARK    6  A    between atoms: C_10  and  P_11
REMARK    7  A    between atoms: P_11  and  O_14
REMARK                            x       y       z     vdW  Elec       q    Type
REMARK                         _______ _______ _______ _____ _____    ______ ____
ROOT
ATOM      1  O   UNL     1      34.953 -15.176 -20.523  0.00  0.00    -0.295 OA
ATOM      2  C   UNL     1      34.092 -15.748 -21.192  0.00  0.00    +0.162 C 
ENDROOT
BRANCH   2   3
ATOM      3  C   UNL     1      34.321 -17.130 -21.803  0.00  0.00    +0.085 C 
ATOM      4  C   UNL     1      35.360 -17.861 -20.951  0.00  0.00    +0.010 C 
BRANCH   3   5
ATOM      5  C   UNL     1      34.732 -17.071 -23.288  0.00  0.00    +0.117 C 
BRANCH   5   6
ATOM      6  O   UNL     1      35.665 -16.005 -23.481  0.00  0.00    -0.384 OA
ATOM      7  H   UNL     1      36.140 -15.838 -22.652  0.00  0.00    +0.210 HD
ENDBRANCH   5   6
BRANCH   5   8
ATOM      8  C   UNL     1      35.338 -18.364 -23.850  0.00  0.00    +0.030 C 
ATOM      9  C   UNL     1      34.410 -19.124 -24.785  0.00  0.00    +0.003 C 
ENDBRANCH   5   8
ENDBRANCH   3   5
ENDBRANCH   2   3
BRANCH   2  10
ATOM     10  C   UNL     1      32.733 -15.128 -21.416  0.00  0.00    +0.147 C 
BRANCH  10  11
ATOM     11  P   UNL     1      32.732 -13.775 -22.608  0.00  0.00    +0.207 P 
ATOM     12  O   UNL     1      32.142 -12.543 -21.969  0.00  0.00    -0.293 OA
ATOM     13  H   UNL     1      32.695 -14.046 -23.960  0.00  0.00    +0.129 HD
BRANCH  11  14
ATOM     14  O   UNL     1      34.334 -13.599 -22.826  0.00  0.00    -0.345 OA
ATOM     15  H   UNL     1      34.585 -12.679 -22.650  0.00  0.00    +0.217 HD
ENDBRANCH  11  14
ENDBRANCH  10  11
ENDBRANCH   2  10
TORSDOF 7
ENDMDL
MODEL 7
REMARK VINA RESULT:      -5.4      1.828      2.454
REMARK  Name = 46937150
REMARK  7 active torsions:
REMARK  status: ('A' for Active; 'I' for Inactive)
REMARK    1  A    between atoms: C_2  and  C_3
REMARK    2  A    between atoms: C_2  and  C_10
REMARK    3  A    between atoms: C_3  and  C_5
REMARK    4  A    between atoms: C_5  and  O_6
REMARK    5  A    between atoms: C_5  and  C_8
REMARK    6  A    between atoms: C_10  and  P_11
REMARK    7  A    between atoms: P_11  and  O_14
REMARK                            x       y       z     vdW  Elec       q    Type
REMARK                         _______ _______ _______ _____ _____    ______ ____
ROOT
ATOM      1  O   UNL     1      38.099 -23.509 -13.830  0.00  0.00    -0.295 OA
ATOM      2  C   UNL     1      37.016 -24.072 -13.667  0.00  0.00    +0.162 C 
ENDROOT
BRANCH   2   3
ATOM      3  C   UNL     1      35.685 -23.335 -13.819  0.00  0.00    +0.085 C 
ATOM      4  C   UNL     1      34.597 -24.176 -13.150  0.00  0.00    +0.010 C 
BRANCH   3   5
ATOM      5  C   UNL     1      35.341 -23.010 -15.287  0.00  0.00    +0.117 C 
BRANCH   5   6
ATOM      6  O   UNL     1      36.359 -23.536 -16.141  0.00  0.00    -0.384 OA
ATOM      7  H   UNL     1      36.766 -24.309 -15.720  0.00  0.00    +0.210 HD
ENDBRANCH   5   6
BRANCH   5   8
ATOM      8  C   UNL     1      33.978 -23.527 -15.769  0.00  0.00    +0.030 C 
ATOM      9  C   UNL     1      33.675 -23.200 -17.222  0.00  0.00    +0.003 C 
ENDBRANCH   5   8
ENDBRANCH   3   5
ENDBRANCH   2   3
BRANCH   2  10
ATOM     10  C   UNL     1      36.938 -25.545 -13.347  0.00  0.00    +0.147 C 
BRANCH  10  11
ATOM     11  P   UNL     1      37.213 -26.620 -14.768  0.00  0.00    +0.207 P 
ATOM     12  O   UNL     1      36.021 -26.553 -15.688  0.00  0.00    -0.293 OA
ATOM     13  H   UNL     1      38.052 -27.710 -14.658  0.00  0.00    +0.129 HD
BRANCH  11  14
ATOM     14  O   UNL     1      38.496 -25.873 -15.434  0.00  0.00    -0.345 OA
ATOM     15  H   UNL     1      38.441 -25.936 -16.400  0.00  0.00    +0.217 HD
ENDBRANCH  11  14
ENDBRANCH  10  11
ENDBRANCH   2  10
TORSDOF 7
ENDMDL
MODEL 8
REMARK VINA RESULT:      -5.3      6.557      8.751
REMARK  Name = 46937150
REMARK  7 active torsions:
REMARK  status: ('A' for Active; 'I' for Inactive)
REMARK    1  A    between atoms: C_2  and  C_3
REMARK    2  A    between atoms: C_2  and  C_10
REMARK    3  A    between atoms: C_3  and  C_5
REMARK    4  A    between atoms: C_5  and  O_6
REMARK    5  A    between atoms: C_5  and  C_8
REMARK    6  A    between atoms: C_10  and  P_11
REMARK    7  A    between atoms: P_11  and  O_14
REMARK                            x       y       z     vdW  Elec       q    Type
REMARK                         _______ _______ _______ _____ _____    ______ ____
ROOT
ATOM      1  O   UNL     1      30.820 -22.673 -16.905  0.00  0.00    -0.295 OA
ATOM      2  C   UNL     1      30.195 -23.172 -15.969  0.00  0.00    +0.162 C 
ENDROOT
BRANCH   2   3
ATOM      3  C   UNL     1      30.714 -24.388 -15.200  0.00  0.00    +0.085 C 
ATOM      4  C   UNL     1      29.554 -25.369 -15.023  0.00  0.00    +0.010 C 
BRANCH   3   5
ATOM      5  C   UNL     1      31.365 -24.015 -13.853  0.00  0.00    +0.117 C 
BRANCH   5   6
ATOM      6  O   UNL     1      30.722 -24.735 -12.799  0.00  0.00    -0.384 OA
ATOM      7  H   UNL     1      30.781 -25.686 -12.976  0.00  0.00    +0.210 HD
ENDBRANCH   5   6
BRANCH   5   8
ATOM      8  C   UNL     1      32.878 -24.262 -13.768  0.00  0.00    +0.030 C 
ATOM      9  C   UNL     1      33.682 -23.527 -14.827  0.00  0.00    +0.003 C 
ENDBRANCH   5   8
ENDBRANCH   3   5
ENDBRANCH   2   3
BRANCH   2  10
ATOM     10  C   UNL     1      28.889 -22.582 -15.495  0.00  0.00    +0.147 C 
BRANCH  10  11
ATOM     11  P   UNL     1      27.628 -22.466 -16.779  0.00  0.00    +0.207 P 
ATOM     12  O   UNL     1      27.574 -23.761 -17.550  0.00  0.00    -0.293 OA
ATOM     13  H   UNL     1      27.283 -21.235 -17.298  0.00  0.00    +0.129 HD
BRANCH  11  14
ATOM     14  O   UNL     1      26.305 -22.293 -15.850  0.00  0.00    -0.345 OA
ATOM     15  H   UNL     1      25.665 -22.989 -16.066  0.00  0.00    +0.217 HD
ENDBRANCH  11  14
ENDBRANCH  10  11
ENDBRANCH   2  10
TORSDOF 7
ENDMDL
MODEL 9
REMARK VINA RESULT:      -5.3      2.451      4.126
REMARK  Name = 46937150
REMARK  7 active torsions:
REMARK  status: ('A' for Active; 'I' for Inactive)
REMARK    1  A    between atoms: C_2  and  C_3
REMARK    2  A    between atoms: C_2  and  C_10
REMARK    3  A    between atoms: C_3  and  C_5
REMARK    4  A    between atoms: C_5  and  O_6
REMARK    5  A    between atoms: C_5  and  C_8
REMARK    6  A    between atoms: C_10  and  P_11
REMARK    7  A    between atoms: P_11  and  O_14
REMARK                            x       y       z     vdW  Elec       q    Type
REMARK                         _______ _______ _______ _____ _____    ______ ____
ROOT
ATOM      1  O   UNL     1      34.917 -24.979 -11.554  0.00  0.00    -0.295 OA
ATOM      2  C   UNL     1      35.827 -24.427 -12.173  0.00  0.00    +0.162 C 
ENDROOT
BRANCH   2   3
ATOM      3  C   UNL     1      37.299 -24.668 -11.841  0.00  0.00    +0.085 C 
ATOM      4  C   UNL     1      38.051 -23.349 -12.030  0.00  0.00    +0.010 C 
BRANCH   3   5
ATOM      5  C   UNL     1      37.923 -25.811 -12.668  0.00  0.00    +0.117 C 
BRANCH   5   6
ATOM      6  O   UNL     1      36.908 -26.755 -13.015  0.00  0.00    -0.384 OA
ATOM      7  H   UNL     1      36.061 -26.295 -13.118  0.00  0.00    +0.210 HD
ENDBRANCH   5   6
BRANCH   5   8
ATOM      8  C   UNL     1      38.646 -25.371 -13.949  0.00  0.00    +0.030 C 
ATOM      9  C   UNL     1      40.117 -25.752 -13.988  0.00  0.00    +0.003 C 
ENDBRANCH   5   8
ENDBRANCH   3   5
ENDBRANCH   2   3
BRANCH   2  10
ATOM     10  C   UNL     1      35.539 -23.504 -13.332  0.00  0.00    +0.147 C 
BRANCH  10  11
ATOM     11  P   UNL     1      34.655 -24.290 -14.694  0.00  0.00    +0.207 P 
ATOM     12  O   UNL     1      35.545 -25.321 -15.342  0.00  0.00    -0.293 OA
ATOM     13  H   UNL     1      33.645 -23.613 -15.344  0.00  0.00    +0.129 HD
BRANCH  11  14
ATOM     14  O   UNL     1      33.454 -25.007 -13.864  0.00  0.00    -0.345 OA
ATOM     15  H   UNL     1      33.814 -25.744 -13.345  0.00  0.00    +0.217 HD
ENDBRANCH  11  14
ENDBRANCH  10  11
ENDBRANCH   2  10
TORSDOF 7
ENDMDL
