MODEL 1
REMARK VINA RESULT:     -10.2      0.000      0.000
REMARK  Name = 5745
REMARK  5 active torsions:
REMARK  status: ('A' for Active; 'I' for Inactive)
REMARK    1  A    between atoms: C_7  and  O_22
REMARK    2  A    between atoms: C_7  and  C_25
REMARK    3  A    between atoms: C_25  and  C_26
REMARK    4  A    between atoms: C_26  and  O_27
REMARK    5  A    between atoms: O_27  and  C_29
REMARK                            x       y       z     vdW  Elec       q    Type
REMARK                         _______ _______ _______ _____ _____    ______ ____
ROOT
ATOM      1  O   UNL     1      34.030 -24.851 -12.155  0.00  0.00    -0.296 OA
ATOM      2  O   UNL     1      40.203 -26.096 -14.183  0.00  0.00    -0.291 OA
ATOM      3  C   UNL     1      33.187 -23.604 -15.923  0.00  0.00    +0.004 C 
ATOM      4  C   UNL     1      32.097 -23.714 -14.829  0.00  0.00    +0.036 C 
ATOM      5  C   UNL     1      34.584 -23.322 -15.353  0.00  0.00    +0.008 C 
ATOM      6  C   UNL     1      34.986 -24.473 -14.382  0.00  0.00    +0.061 C 
ATOM      7  C   UNL     1      30.845 -23.873 -15.729  0.00  0.00    +0.143 C 
ATOM      8  C   UNL     1      36.426 -24.291 -13.771  0.00  0.00    +0.022 C 
ATOM      9  C   UNL     1      32.596 -22.605 -16.916  0.00  0.00    +0.003 C 
ATOM     10  C   UNL     1      32.450 -24.909 -13.940  0.00  0.00    +0.067 C 
ATOM     11  C   UNL     1      31.080 -22.879 -16.886  0.00  0.00    +0.034 C 
ATOM     12  C   UNL     1      35.624 -23.192 -16.473  0.00  0.00    +0.005 C 
ATOM     13  C   UNL     1      33.848 -24.726 -13.365  0.00  0.00    +0.151 C 
ATOM     14  C   UNL     1      31.979 -22.439 -13.947  0.00  0.00    +0.003 C 
ATOM     15  C   UNL     1      37.421 -23.992 -14.905  0.00  0.00    -0.042 C 
ATOM     16  C   UNL     1      37.013 -22.936 -15.905  0.00  0.00    +0.022 C 
ATOM     17  C   UNL     1      36.832 -25.614 -13.059  0.00  0.00    +0.012 C 
ATOM     18  C   UNL     1      36.493 -23.117 -12.768  0.00  0.00    +0.004 C 
ATOM     19  C   UNL     1      38.319 -25.715 -12.756  0.00  0.00    +0.069 C 
ATOM     20  C   UNL     1      38.618 -24.587 -15.035  0.00  0.00    +0.029 C 
ATOM     21  C   UNL     1      39.122 -25.536 -14.017  0.00  0.00    +0.173 C 
ENDROOT
BRANCH   7  22
ATOM     22  O   UNL     1      30.756 -25.196 -16.249  0.00  0.00    -0.380 OA
ATOM     23  H   UNL     1      30.338 -25.775 -15.592  0.00  0.00    +0.211 HD
ENDBRANCH   7  22
BRANCH   7  25
ATOM     24  O   UNL     1      29.089 -24.492 -14.244  0.00  0.00    -0.290 OA
ATOM     25  C   UNL     1      29.538 -23.659 -15.029  0.00  0.00    +0.218 C 
BRANCH  25  26
ATOM     26  C   UNL     1      28.811 -22.369 -15.346  0.00  0.00    +0.274 C 
BRANCH  26  27
ATOM     27  O   UNL     1      27.488 -22.632 -15.764  0.00  0.00    -0.440 OA
BRANCH  27  29
ATOM     28  O   UNL     1      27.726 -23.322 -17.956  0.00  0.00    -0.250 OA
ATOM     29  C   UNL     1      27.257 -22.568 -17.116  0.00  0.00    +0.318 C 
ATOM     30  C   UNL     1      26.336 -21.430 -17.431  0.00  0.00    +0.121 C 
ENDBRANCH  27  29
ENDBRANCH  26  27
ENDBRANCH  25  26
ENDBRANCH   7  25
TORSDOF 5
ENDMDL
MODEL 2
REMARK VINA RESULT:      -9.1      1.510      8.198
REMARK  Name = 5745
REMARK  5 active torsions:
REMARK  status: ('A' for Active; 'I' for Inactive)
REMARK    1  A    between atoms: C_7  and  O_22
REMARK    2  A    between atoms: C_7  and  C_25
REMARK    3  A    between atoms: C_25  and  C_26
REMARK    4  A    between atoms: C_26  and  O_27
REMARK    5  A    between atoms: O_27  and  C_29
REMARK                            x       y       z     vdW  Elec       q    Type
REMARK                         _______ _______ _______ _____ _____    ______ ____
ROOT
ATOM      1  O   UNL     1      32.162 -25.274 -13.014  0.00  0.00    -0.296 OA
ATOM      2  O   UNL     1      27.717 -21.709 -16.377  0.00  0.00    -0.291 OA
ATOM      3  C   UNL     1      35.076 -23.265 -14.999  0.00  0.00    +0.004 C 
ATOM      4  C   UNL     1      35.394 -24.269 -13.864  0.00  0.00    +0.036 C 
ATOM      5  C   UNL     1      33.774 -23.594 -15.744  0.00  0.00    +0.008 C 
ATOM      6  C   UNL     1      32.586 -23.579 -14.736  0.00  0.00    +0.061 C 
ATOM      7  C   UNL     1      36.779 -23.728 -13.425  0.00  0.00    +0.143 C 
ATOM      8  C   UNL     1      31.196 -23.871 -15.414  0.00  0.00    +0.022 C 
ATOM      9  C   UNL     1      36.374 -23.211 -15.802  0.00  0.00    +0.003 C 
ATOM     10  C   UNL     1      34.269 -24.173 -12.830  0.00  0.00    +0.067 C 
ATOM     11  C   UNL     1      37.487 -23.376 -14.750  0.00  0.00    +0.034 C 
ATOM     12  C   UNL     1      33.515 -22.592 -16.876  0.00  0.00    +0.005 C 
ATOM     13  C   UNL     1      32.930 -24.447 -13.502  0.00  0.00    +0.151 C 
ATOM     14  C   UNL     1      35.512 -25.738 -14.356  0.00  0.00    +0.003 C 
ATOM     15  C   UNL     1      31.039 -22.968 -16.650  0.00  0.00    -0.042 C 
ATOM     16  C   UNL     1      32.213 -22.906 -17.599  0.00  0.00    +0.022 C 
ATOM     17  C   UNL     1      30.068 -23.550 -14.390  0.00  0.00    +0.012 C 
ATOM     18  C   UNL     1      31.070 -25.337 -15.887  0.00  0.00    +0.004 C 
ATOM     19  C   UNL     1      28.688 -23.425 -15.018  0.00  0.00    +0.069 C 
ATOM     20  C   UNL     1      29.928 -22.270 -16.938  0.00  0.00    +0.029 C 
ATOM     21  C   UNL     1      28.705 -22.392 -16.113  0.00  0.00    +0.173 C 
ENDROOT
BRANCH   7  22
ATOM     22  O   UNL     1      36.639 -22.552 -12.634  0.00  0.00    -0.380 OA
ATOM     23  H   UNL     1      37.419 -21.988 -12.752  0.00  0.00    +0.211 HD
ENDBRANCH   7  22
BRANCH   7  25
ATOM     24  O   UNL     1      37.051 -25.283 -11.642  0.00  0.00    -0.290 OA
ATOM     25  C   UNL     1      37.574 -24.663 -12.566  0.00  0.00    +0.218 C 
BRANCH  25  26
ATOM     26  C   UNL     1      39.046 -24.794 -12.900  0.00  0.00    +0.274 C 
BRANCH  26  27
ATOM     27  O   UNL     1      39.334 -26.088 -13.383  0.00  0.00    -0.440 OA
BRANCH  27  29
ATOM     28  O   UNL     1      41.390 -26.938 -14.005  0.00  0.00    -0.250 OA
ATOM     29  C   UNL     1      40.434 -26.200 -14.196  0.00  0.00    +0.318 C 
ATOM     30  C   UNL     1      40.306 -25.279 -15.371  0.00  0.00    +0.121 C 
ENDBRANCH  27  29
ENDBRANCH  26  27
ENDBRANCH  25  26
ENDBRANCH   7  25
TORSDOF 5
ENDMDL
MODEL 3
REMARK VINA RESULT:      -8.6      9.636     12.361
REMARK  Name = 5745
REMARK  5 active torsions:
REMARK  status: ('A' for Active; 'I' for Inactive)
REMARK    1  A    between atoms: C_7  and  O_22
REMARK    2  A    between atoms: C_7  and  C_25
REMARK    3  A    between atoms: C_25  and  C_26
REMARK    4  A    between atoms: C_26  and  O_27
REMARK    5  A    between atoms: O_27  and  C_29
REMARK                            x       y       z     vdW  Elec       q    Type
REMARK                         _______ _______ _______ _____ _____    ______ ____
ROOT
ATOM      1  O   UNL     1      34.059 -14.625 -20.750  0.00  0.00    -0.296 OA
ATOM      2  O   UNL     1      34.169 -10.278 -25.736  0.00  0.00    -0.291 OA
ATOM      3  C   UNL     1      34.854 -17.544 -23.455  0.00  0.00    +0.004 C 
ATOM      4  C   UNL     1      34.801 -17.823 -21.934  0.00  0.00    +0.036 C 
ATOM      5  C   UNL     1      33.957 -16.373 -23.882  0.00  0.00    +0.008 C 
ATOM      6  C   UNL     1      34.406 -15.081 -23.135  0.00  0.00    +0.061 C 
ATOM      7  C   UNL     1      35.692 -19.091 -21.874  0.00  0.00    +0.143 C 
ATOM      8  C   UNL     1      33.565 -13.812 -23.536  0.00  0.00    +0.022 C 
ATOM      9  C   UNL     1      34.601 -18.914 -24.079  0.00  0.00    +0.003 C 
ATOM     10  C   UNL     1      35.338 -16.583 -21.213  0.00  0.00    +0.067 C 
ATOM     11  C   UNL     1      35.269 -19.910 -23.112  0.00  0.00    +0.034 C 
ATOM     12  C   UNL     1      34.019 -16.152 -25.399  0.00  0.00    +0.005 C 
ATOM     13  C   UNL     1      34.523 -15.362 -21.618  0.00  0.00    +0.151 C 
ATOM     14  C   UNL     1      33.370 -18.136 -21.414  0.00  0.00    +0.003 C 
ATOM     15  C   UNL     1      33.501 -13.713 -25.069  0.00  0.00    -0.042 C 
ATOM     16  C   UNL     1      33.148 -14.976 -25.817  0.00  0.00    +0.022 C 
ATOM     17  C   UNL     1      34.271 -12.549 -22.962  0.00  0.00    +0.012 C 
ATOM     18  C   UNL     1      32.113 -13.881 -23.011  0.00  0.00    +0.004 C 
ATOM     19  C   UNL     1      33.789 -11.244 -23.579  0.00  0.00    +0.069 C 
ATOM     20  C   UNL     1      33.712 -12.581 -25.762  0.00  0.00    +0.029 C 
ATOM     21  C   UNL     1      33.938 -11.289 -25.076  0.00  0.00    +0.173 C 
ENDROOT
BRANCH   7  22
ATOM     22  O   UNL     1      37.071 -18.750 -21.979  0.00  0.00    -0.380 OA
ATOM     23  H   UNL     1      37.609 -19.454 -21.584  0.00  0.00    +0.211 HD
ENDBRANCH   7  22
BRANCH   7  25
ATOM     24  O   UNL     1      36.458 -19.774 -19.725  0.00  0.00    -0.290 OA
ATOM     25  C   UNL     1      35.595 -19.867 -20.597  0.00  0.00    +0.218 C 
BRANCH  25  26
ATOM     26  C   UNL     1      34.385 -20.766 -20.448  0.00  0.00    +0.274 C 
BRANCH  26  27
ATOM     27  O   UNL     1      34.315 -21.295 -19.141  0.00  0.00    -0.440 OA
BRANCH  27  29
ATOM     28  O   UNL     1      34.188 -23.501 -19.811  0.00  0.00    -0.250 OA
ATOM     29  C   UNL     1      33.902 -22.599 -19.037  0.00  0.00    +0.318 C 
ATOM     30  C   UNL     1      33.036 -22.775 -17.827  0.00  0.00    +0.121 C 
ENDBRANCH  27  29
ENDBRANCH  26  27
ENDBRANCH  25  26
ENDBRANCH   7  25
TORSDOF 5
ENDMDL
MODEL 4
REMARK VINA RESULT:      -8.2      3.091      7.643
REMARK  Name = 5745
REMARK  5 active torsions:
REMARK  status: ('A' for Active; 'I' for Inactive)
REMARK    1  A    between atoms: C_7  and  O_22
REMARK    2  A    between atoms: C_7  and  C_25
REMARK    3  A    between atoms: C_25  and  C_26
REMARK    4  A    between atoms: C_26  and  O_27
REMARK    5  A    between atoms: O_27  and  C_29
REMARK                            x       y       z     vdW  Elec       q    Type
REMARK                         _______ _______ _______ _____ _____    ______ ____
ROOT
ATOM      1  O   UNL     1      32.699 -23.564 -17.241  0.00  0.00    -0.296 OA
ATOM      2  O   UNL     1      33.482 -18.772 -21.734  0.00  0.00    -0.291 OA
ATOM      3  C   UNL     1      36.368 -22.619 -15.790  0.00  0.00    +0.004 C 
ATOM      4  C   UNL     1      35.456 -23.665 -15.104  0.00  0.00    +0.036 C 
ATOM      5  C   UNL     1      36.128 -22.513 -17.303  0.00  0.00    +0.008 C 
ATOM      6  C   UNL     1      34.646 -22.108 -17.562  0.00  0.00    +0.061 C 
ATOM      7  C   UNL     1      36.028 -23.599 -13.665  0.00  0.00    +0.143 C 
ATOM      8  C   UNL     1      34.311 -21.938 -19.091  0.00  0.00    +0.022 C 
ATOM      9  C   UNL     1      37.767 -22.992 -15.305  0.00  0.00    +0.003 C 
ATOM     10  C   UNL     1      34.007 -23.204 -15.280  0.00  0.00    +0.067 C 
ATOM     11  C   UNL     1      37.555 -23.504 -13.866  0.00  0.00    +0.034 C 
ATOM     12  C   UNL     1      37.073 -21.488 -17.943  0.00  0.00    +0.005 C 
ATOM     13  C   UNL     1      33.699 -23.033 -16.762  0.00  0.00    +0.151 C 
ATOM     14  C   UNL     1      35.612 -25.096 -15.690  0.00  0.00    +0.003 C 
ATOM     15  C   UNL     1      35.375 -21.040 -19.744  0.00  0.00    -0.042 C 
ATOM     16  C   UNL     1      36.818 -21.367 -19.439  0.00  0.00    +0.022 C 
ATOM     17  C   UNL     1      32.913 -21.264 -19.219  0.00  0.00    +0.012 C 
ATOM     18  C   UNL     1      34.309 -23.287 -19.845  0.00  0.00    +0.004 C 
ATOM     19  C   UNL     1      32.629 -20.702 -20.603  0.00  0.00    +0.069 C 
ATOM     20  C   UNL     1      35.097 -20.022 -20.574  0.00  0.00    +0.029 C 
ATOM     21  C   UNL     1      33.711 -19.736 -21.007  0.00  0.00    +0.173 C 
ENDROOT
BRANCH   7  22
ATOM     22  O   UNL     1      35.564 -22.436 -12.985  0.00  0.00    -0.380 OA
ATOM     23  H   UNL     1      34.782 -22.086 -13.440  0.00  0.00    +0.211 HD
ENDBRANCH   7  22
BRANCH   7  25
ATOM     24  O   UNL     1      34.445 -24.937 -12.492  0.00  0.00    -0.290 OA
ATOM     25  C   UNL     1      35.624 -24.736 -12.777  0.00  0.00    +0.218 C 
BRANCH  25  26
ATOM     26  C   UNL     1      36.746 -25.611 -12.256  0.00  0.00    +0.274 C 
BRANCH  26  27
ATOM     27  O   UNL     1      36.903 -26.756 -13.067  0.00  0.00    -0.440 OA
BRANCH  27  29
ATOM     28  O   UNL     1      38.073 -27.352 -14.967  0.00  0.00    -0.250 OA
ATOM     29  C   UNL     1      37.994 -26.761 -13.901  0.00  0.00    +0.318 C 
ATOM     30  C   UNL     1      39.096 -25.930 -13.318  0.00  0.00    +0.121 C 
ENDBRANCH  27  29
ENDBRANCH  26  27
ENDBRANCH  25  26
ENDBRANCH   7  25
TORSDOF 5
ENDMDL
MODEL 5
REMARK VINA RESULT:      -8.0      1.722      7.724
REMARK  Name = 5745
REMARK  5 active torsions:
REMARK  status: ('A' for Active; 'I' for Inactive)
REMARK    1  A    between atoms: C_7  and  O_22
REMARK    2  A    between atoms: C_7  and  C_25
REMARK    3  A    between atoms: C_25  and  C_26
REMARK    4  A    between atoms: C_26  and  O_27
REMARK    5  A    between atoms: O_27  and  C_29
REMARK                            x       y       z     vdW  Elec       q    Type
REMARK                         _______ _______ _______ _____ _____    ______ ____
ROOT
ATOM      1  O   UNL     1      32.469 -25.304 -13.232  0.00  0.00    -0.296 OA
ATOM      2  O   UNL     1      27.358 -21.896 -15.687  0.00  0.00    -0.291 OA
ATOM      3  C   UNL     1      34.914 -23.060 -15.566  0.00  0.00    +0.004 C 
ATOM      4  C   UNL     1      35.464 -24.081 -14.541  0.00  0.00    +0.036 C 
ATOM      5  C   UNL     1      33.528 -23.439 -16.108  0.00  0.00    +0.008 C 
ATOM      6  C   UNL     1      32.519 -23.529 -14.924  0.00  0.00    +0.061 C 
ATOM      7  C   UNL     1      36.871 -23.475 -14.304  0.00  0.00    +0.143 C 
ATOM      8  C   UNL     1      31.055 -23.879 -15.385  0.00  0.00    +0.022 C 
ATOM      9  C   UNL     1      36.060 -22.901 -16.562  0.00  0.00    +0.003 C 
ATOM     10  C   UNL     1      34.517 -24.088 -13.338  0.00  0.00    +0.067 C 
ATOM     11  C   UNL     1      37.336 -23.036 -15.708  0.00  0.00    +0.034 C 
ATOM     12  C   UNL     1      33.038 -22.416 -17.140  0.00  0.00    +0.005 C 
ATOM     13  C   UNL     1      33.103 -24.417 -13.799  0.00  0.00    +0.151 C 
ATOM     14  C   UNL     1      35.578 -25.523 -15.109  0.00  0.00    +0.003 C 
ATOM     15  C   UNL     1      30.653 -22.946 -16.539  0.00  0.00    -0.042 C 
ATOM     16  C   UNL     1      31.654 -22.781 -17.659  0.00  0.00    +0.022 C 
ATOM     17  C   UNL     1      30.092 -23.662 -14.181  0.00  0.00    +0.012 C 
ATOM     18  C   UNL     1      30.933 -25.333 -15.894  0.00  0.00    +0.004 C 
ATOM     19  C   UNL     1      28.624 -23.596 -14.576  0.00  0.00    +0.069 C 
ATOM     20  C   UNL     1      29.475 -22.305 -16.616  0.00  0.00    +0.029 C 
ATOM     21  C   UNL     1      28.410 -22.527 -15.613  0.00  0.00    +0.173 C 
ENDROOT
BRANCH   7  22
ATOM     22  O   UNL     1      36.798 -22.336 -13.450  0.00  0.00    -0.380 OA
ATOM     23  H   UNL     1      37.222 -22.541 -12.602  0.00  0.00    +0.211 HD
ENDBRANCH   7  22
BRANCH   7  25
ATOM     24  O   UNL     1      39.002 -24.499 -14.019  0.00  0.00    -0.290 OA
ATOM     25  C   UNL     1      37.842 -24.390 -13.624  0.00  0.00    +0.218 C 
BRANCH  25  26
ATOM     26  C   UNL     1      37.314 -25.165 -12.434  0.00  0.00    +0.274 C 
BRANCH  26  27
ATOM     27  O   UNL     1      37.700 -24.547 -11.225  0.00  0.00    -0.440 OA
BRANCH  27  29
ATOM     28  O   UNL     1      36.948 -22.435 -10.672  0.00  0.00    -0.250 OA
ATOM     29  C   UNL     1      36.809 -23.649 -10.693  0.00  0.00    +0.318 C 
ATOM     30  C   UNL     1      35.622 -24.369 -10.130  0.00  0.00    +0.121 C 
ENDBRANCH  27  29
ENDBRANCH  26  27
ENDBRANCH  25  26
ENDBRANCH   7  25
TORSDOF 5
ENDMDL
MODEL 6
REMARK VINA RESULT:      -8.0     14.800     16.850
REMARK  Name = 5745
REMARK  5 active torsions:
REMARK  status: ('A' for Active; 'I' for Inactive)
REMARK    1  A    between atoms: C_7  and  O_22
REMARK    2  A    between atoms: C_7  and  C_25
REMARK    3  A    between atoms: C_25  and  C_26
REMARK    4  A    between atoms: C_26  and  O_27
REMARK    5  A    between atoms: O_27  and  C_29
REMARK                            x       y       z     vdW  Elec       q    Type
REMARK                         _______ _______ _______ _____ _____    ______ ____
ROOT
ATOM      1  O   UNL     1      33.966 -11.806 -25.207  0.00  0.00    -0.296 OA
ATOM      2  O   UNL     1      34.533 -16.858 -20.973  0.00  0.00    -0.291 OA
ATOM      3  C   UNL     1      32.720  -9.516 -22.098  0.00  0.00    +0.004 C 
ATOM      4  C   UNL     1      32.965  -8.927 -23.508  0.00  0.00    +0.036 C 
ATOM      5  C   UNL     1      32.312 -10.996 -22.127  0.00  0.00    +0.008 C 
ATOM      6  C   UNL     1      33.439 -11.827 -22.811  0.00  0.00    +0.061 C 
ATOM      7  C   UNL     1      33.228  -7.447 -23.126  0.00  0.00    +0.143 C 
ATOM      8  C   UNL     1      33.128 -13.369 -22.857  0.00  0.00    +0.022 C 
ATOM      9  C   UNL     1      31.762  -8.515 -21.454  0.00  0.00    +0.003 C 
ATOM     10  C   UNL     1      34.140  -9.685 -24.131  0.00  0.00    +0.067 C 
ATOM     11  C   UNL     1      32.188  -7.149 -22.025  0.00  0.00    +0.034 C 
ATOM     12  C   UNL     1      32.052 -11.527 -20.712  0.00  0.00    +0.005 C 
ATOM     13  C   UNL     1      33.830 -11.176 -24.159  0.00  0.00    +0.151 C 
ATOM     14  C   UNL     1      31.731  -9.038 -24.445  0.00  0.00    +0.003 C 
ATOM     15  C   UNL     1      32.703 -13.840 -21.456  0.00  0.00    -0.042 C 
ATOM     16  C   UNL     1      31.670 -13.001 -20.742  0.00  0.00    +0.022 C 
ATOM     17  C   UNL     1      34.421 -14.122 -23.289  0.00  0.00    +0.012 C 
ATOM     18  C   UNL     1      31.978 -13.707 -23.833  0.00  0.00    +0.004 C 
ATOM     19  C   UNL     1      34.379 -15.618 -23.014  0.00  0.00    +0.069 C 
ATOM     20  C   UNL     1      33.172 -14.948 -20.858  0.00  0.00    +0.029 C 
ATOM     21  C   UNL     1      34.089 -15.874 -21.560  0.00  0.00    +0.173 C 
ENDROOT
BRANCH   7  22
ATOM     22  O   UNL     1      34.541  -7.283 -22.597  0.00  0.00    -0.380 OA
ATOM     23  H   UNL     1      34.961  -6.511 -23.008  0.00  0.00    +0.211 HD
ENDBRANCH   7  22
BRANCH   7  25
ATOM     24  O   UNL     1      34.124  -6.314 -25.019  0.00  0.00    -0.290 OA
ATOM     25  C   UNL     1      33.163  -6.482 -24.270  0.00  0.00    +0.218 C 
BRANCH  25  26
ATOM     26  C   UNL     1      31.858  -5.734 -24.444  0.00  0.00    +0.274 C 
BRANCH  26  27
ATOM     27  O   UNL     1      32.066  -4.341 -24.354  0.00  0.00    -0.440 OA
BRANCH  27  29
ATOM     28  O   UNL     1      30.443  -4.171 -22.719  0.00  0.00    -0.250 OA
ATOM     29  C   UNL     1      31.325  -3.678 -23.408  0.00  0.00    +0.318 C 
ATOM     30  C   UNL     1      31.747  -2.243 -23.330  0.00  0.00    +0.121 C 
ENDBRANCH  27  29
ENDBRANCH  26  27
ENDBRANCH  25  26
ENDBRANCH   7  25
TORSDOF 5
ENDMDL
MODEL 7
REMARK VINA RESULT:      -7.8      3.068      6.673
REMARK  Name = 5745
REMARK  5 active torsions:
REMARK  status: ('A' for Active; 'I' for Inactive)
REMARK    1  A    between atoms: C_7  and  O_22
REMARK    2  A    between atoms: C_7  and  C_25
REMARK    3  A    between atoms: C_25  and  C_26
REMARK    4  A    between atoms: C_26  and  O_27
REMARK    5  A    between atoms: O_27  and  C_29
REMARK                            x       y       z     vdW  Elec       q    Type
REMARK                         _______ _______ _______ _____ _____    ______ ____
ROOT
ATOM      1  O   UNL     1      32.724 -23.330 -17.365  0.00  0.00    -0.296 OA
ATOM      2  O   UNL     1      33.815 -18.599 -21.859  0.00  0.00    -0.291 OA
ATOM      3  C   UNL     1      36.489 -22.704 -15.987  0.00  0.00    +0.004 C 
ATOM      4  C   UNL     1      35.506 -23.672 -15.286  0.00  0.00    +0.036 C 
ATOM      5  C   UNL     1      36.228 -22.570 -17.495  0.00  0.00    +0.008 C 
ATOM      6  C   UNL     1      34.780 -22.041 -17.722  0.00  0.00    +0.061 C 
ATOM      7  C   UNL     1      36.111 -23.662 -13.859  0.00  0.00    +0.143 C 
ATOM      8  C   UNL     1      34.428 -21.836 -19.242  0.00  0.00    +0.022 C 
ATOM      9  C   UNL     1      37.861 -23.195 -15.532  0.00  0.00    +0.003 C 
ATOM     10  C   UNL     1      34.097 -23.091 -15.430  0.00  0.00    +0.067 C 
ATOM     11  C   UNL     1      37.636 -23.694 -14.092  0.00  0.00    +0.034 C 
ATOM     12  C   UNL     1      37.242 -21.625 -18.151  0.00  0.00    +0.005 C 
ATOM     13  C   UNL     1      33.775 -22.888 -16.905  0.00  0.00    +0.151 C 
ATOM     14  C   UNL     1      35.529 -25.109 -15.879  0.00  0.00    +0.003 C 
ATOM     15  C   UNL     1      35.551 -21.028 -19.915  0.00  0.00    -0.042 C 
ATOM     16  C   UNL     1      36.967 -21.475 -19.641  0.00  0.00    +0.022 C 
ATOM     17  C   UNL     1      33.090 -21.046 -19.339  0.00  0.00    +0.012 C 
ATOM     18  C   UNL     1      34.298 -23.177 -20.000  0.00  0.00    +0.004 C 
ATOM     19  C   UNL     1      32.826 -20.456 -20.716  0.00  0.00    +0.069 C 
ATOM     20  C   UNL     1      35.342 -19.985 -20.736  0.00  0.00    +0.029 C 
ATOM     21  C   UNL     1      33.976 -19.583 -21.139  0.00  0.00    +0.173 C 
ENDROOT
BRANCH   7  22
ATOM     22  O   UNL     1      35.760 -22.468 -13.166  0.00  0.00    -0.380 OA
ATOM     23  H   UNL     1      36.268 -21.724 -13.527  0.00  0.00    +0.211 HD
ENDBRANCH   7  22
BRANCH   7  25
ATOM     24  O   UNL     1      36.314 -25.770 -12.769  0.00  0.00    -0.290 OA
ATOM     25  C   UNL     1      35.632 -24.765 -12.966  0.00  0.00    +0.218 C 
BRANCH  25  26
ATOM     26  C   UNL     1      34.271 -24.571 -12.330  0.00  0.00    +0.274 C 
BRANCH  26  27
ATOM     27  O   UNL     1      33.255 -25.099 -13.155  0.00  0.00    -0.440 OA
BRANCH  27  29
ATOM     28  O   UNL     1      31.919 -23.261 -12.741  0.00  0.00    -0.250 OA
ATOM     29  C   UNL     1      32.101 -24.361 -13.242  0.00  0.00    +0.318 C 
ATOM     30  C   UNL     1      31.073 -25.098 -14.045  0.00  0.00    +0.121 C 
ENDBRANCH  27  29
ENDBRANCH  26  27
ENDBRANCH  25  26
ENDBRANCH   7  25
TORSDOF 5
ENDMDL
MODEL 8
REMARK VINA RESULT:      -7.6     13.507     16.362
REMARK  Name = 5745
REMARK  5 active torsions:
REMARK  status: ('A' for Active; 'I' for Inactive)
REMARK    1  A    between atoms: C_7  and  O_22
REMARK    2  A    between atoms: C_7  and  C_25
REMARK    3  A    between atoms: C_25  and  C_26
REMARK    4  A    between atoms: C_26  and  O_27
REMARK    5  A    between atoms: O_27  and  C_29
REMARK                            x       y       z     vdW  Elec       q    Type
REMARK                         _______ _______ _______ _____ _____    ______ ____
ROOT
ATOM      1  O   UNL     1      34.481  -9.798 -25.047  0.00  0.00    -0.296 OA
ATOM      2  O   UNL     1      30.797  -4.535 -23.470  0.00  0.00    -0.291 OA
ATOM      3  C   UNL     1      32.265 -11.966 -22.428  0.00  0.00    +0.004 C 
ATOM      4  C   UNL     1      33.339 -12.616 -23.334  0.00  0.00    +0.036 C 
ATOM      5  C   UNL     1      32.572 -10.500 -22.091  0.00  0.00    +0.008 C 
ATOM      6  C   UNL     1      32.658  -9.675 -23.410  0.00  0.00    +0.061 C 
ATOM      7  C   UNL     1      32.797 -14.068 -23.372  0.00  0.00    +0.143 C 
ATOM      8  C   UNL     1      32.935  -8.145 -23.165  0.00  0.00    +0.022 C 
ATOM      9  C   UNL     1      32.121 -12.958 -21.276  0.00  0.00    +0.003 C 
ATOM     10  C   UNL     1      33.345 -11.860 -24.665  0.00  0.00    +0.067 C 
ATOM     11  C   UNL     1      32.334 -14.339 -21.925  0.00  0.00    +0.034 C 
ATOM     12  C   UNL     1      31.498  -9.907 -21.170  0.00  0.00    +0.005 C 
ATOM     13  C   UNL     1      33.603 -10.380 -24.412  0.00  0.00    +0.151 C 
ATOM     14  C   UNL     1      34.766 -12.581 -22.720  0.00  0.00    +0.003 C 
ATOM     15  C   UNL     1      31.951  -7.617 -22.108  0.00  0.00    -0.042 C 
ATOM     16  C   UNL     1      31.791  -8.447 -20.855  0.00  0.00    +0.022 C 
ATOM     17  C   UNL     1      32.716  -7.381 -24.505  0.00  0.00    +0.012 C 
ATOM     18  C   UNL     1      34.366  -7.884 -22.645  0.00  0.00    +0.004 C 
ATOM     19  C   UNL     1      32.580  -5.876 -24.336  0.00  0.00    +0.069 C 
ATOM     20  C   UNL     1      31.261  -6.470 -22.224  0.00  0.00    +0.029 C 
ATOM     21  C   UNL     1      31.472  -5.557 -23.369  0.00  0.00    +0.173 C 
ENDROOT
BRANCH   7  22
ATOM     22  O   UNL     1      31.684 -14.174 -24.255  0.00  0.00    -0.380 OA
ATOM     23  H   UNL     1      30.897 -13.798 -23.829  0.00  0.00    +0.211 HD
ENDBRANCH   7  22
BRANCH   7  25
ATOM     24  O   UNL     1      33.783 -15.433 -25.057  0.00  0.00    -0.290 OA
ATOM     25  C   UNL     1      33.771 -15.089 -23.876  0.00  0.00    +0.218 C 
BRANCH  25  26
ATOM     26  C   UNL     1      34.728 -15.666 -22.854  0.00  0.00    +0.274 C 
BRANCH  26  27
ATOM     27  O   UNL     1      34.475 -17.041 -22.655  0.00  0.00    -0.440 OA
BRANCH  27  29
ATOM     28  O   UNL     1      35.302 -16.934 -20.501  0.00  0.00    -0.250 OA
ATOM     29  C   UNL     1      34.702 -17.521 -21.390  0.00  0.00    +0.318 C 
ATOM     30  C   UNL     1      34.106 -18.887 -21.239  0.00  0.00    +0.121 C 
ENDBRANCH  27  29
ENDBRANCH  26  27
ENDBRANCH  25  26
ENDBRANCH   7  25
TORSDOF 5
ENDMDL
