MODEL 1
REMARK VINA RESULT:     -10.4      0.000      0.000
REMARK  Name = 4369567
REMARK  5 active torsions:
REMARK  status: ('A' for Active; 'I' for Inactive)
REMARK    1  A    between atoms: C_1  and  C_14
REMARK    2  A    between atoms: C_4  and  O_12
REMARK    3  A    between atoms: C_14  and  C_15
REMARK    4  A    between atoms: C_15  and  C_18
REMARK    5  A    between atoms: C_20  and  O_23
REMARK                            x       y       z     vdW  Elec       q    Type
REMARK                         _______ _______ _______ _____ _____    ______ ____
ROOT
ATOM      1  C   UNL     1      35.195 -17.157 -22.572  0.00  0.00    +0.011 C 
ATOM      2  C   UNL     1      33.872 -16.377 -22.311  0.00  0.00    +0.049 C 
ATOM      3  C   UNL     1      35.225 -17.745 -24.014  0.00  0.00    +0.022 C 
ATOM      4  C   UNL     1      33.774 -15.790 -20.882  0.00  0.00    +0.115 C 
ATOM      5  C   UNL     1      33.662 -15.303 -23.377  0.00  0.00    -0.025 C 
ATOM      6  C   UNL     1      32.555 -14.879 -20.748  0.00  0.00    +0.034 C 
ATOM      7  C   UNL     1      34.805 -16.712 -25.030  0.00  0.00    -0.027 C 
ATOM      8  C   UNL     1      32.602 -13.718 -21.741  0.00  0.00    +0.028 C 
ATOM      9  C   UNL     1      34.113 -15.606 -24.722  0.00  0.00    -0.009 C 
ATOM     10  C   UNL     1      33.093 -14.117 -23.100  0.00  0.00    -0.030 C 
ATOM     11  C   UNL     1      34.376 -19.005 -24.210  0.00  0.00    +0.005 C 
ENDROOT
BRANCH   4  12
ATOM     12  O   UNL     1      34.931 -15.022 -20.549  0.00  0.00    -0.384 OA
ATOM     13  H   UNL     1      35.729 -15.513 -20.799  0.00  0.00    +0.210 HD
ENDBRANCH   4  12
BRANCH   1  14
ATOM     14  C   UNL     1      35.460 -18.245 -21.525  0.00  0.00    +0.004 C 
BRANCH  14  15
ATOM     15  C   UNL     1      34.155 -18.833 -21.005  0.00  0.00    +0.044 C 
BRANCH  15  18
ATOM     16  O   UNL     1      33.242 -20.654 -19.746  0.00  0.00    -0.452 OA
ATOM     17  O   UNL     1      32.395 -22.231 -18.357  0.00  0.00    -0.250 OA
ATOM     18  C   UNL     1      34.326 -20.298 -20.632  0.00  0.00    +0.171 C 
ATOM     19  C   UNL     1      35.650 -20.541 -19.917  0.00  0.00    +0.073 C 
ATOM     20  C   UNL     1      35.767 -21.999 -19.473  0.00  0.00    +0.125 C 
ATOM     21  C   UNL     1      34.438 -22.746 -19.514  0.00  0.00    +0.139 C 
ATOM     22  C   UNL     1      33.276 -21.865 -19.128  0.00  0.00    +0.319 C 
BRANCH  20  23
ATOM     23  O   UNL     1      36.284 -22.050 -18.144  0.00  0.00    -0.384 OA
ATOM     24  H   UNL     1      36.831 -22.844 -18.040  0.00  0.00    +0.210 HD
ENDBRANCH  20  23
ENDBRANCH  15  18
ENDBRANCH  14  15
ENDBRANCH   1  14
TORSDOF 5
ENDMDL
MODEL 2
REMARK VINA RESULT:      -9.9      4.156      8.538
REMARK  Name = 4369567
REMARK  5 active torsions:
REMARK  status: ('A' for Active; 'I' for Inactive)
REMARK    1  A    between atoms: C_1  and  C_14
REMARK    2  A    between atoms: C_4  and  O_12
REMARK    3  A    between atoms: C_14  and  C_15
REMARK    4  A    between atoms: C_15  and  C_18
REMARK    5  A    between atoms: C_20  and  O_23
REMARK                            x       y       z     vdW  Elec       q    Type
REMARK                         _______ _______ _______ _____ _____    ______ ____
ROOT
ATOM      1  C   UNL     1      34.106 -14.798 -22.877  0.00  0.00    +0.011 C 
ATOM      2  C   UNL     1      33.932 -16.309 -23.213  0.00  0.00    +0.049 C 
ATOM      3  C   UNL     1      33.849 -14.525 -21.366  0.00  0.00    +0.022 C 
ATOM      4  C   UNL     1      34.150 -16.636 -24.711  0.00  0.00    +0.115 C 
ATOM      5  C   UNL     1      34.821 -17.165 -22.314  0.00  0.00    -0.025 C 
ATOM      6  C   UNL     1      34.159 -18.147 -24.943  0.00  0.00    +0.034 C 
ATOM      7  C   UNL     1      34.577 -15.526 -20.504  0.00  0.00    -0.027 C 
ATOM      8  C   UNL     1      35.257 -18.840 -24.136  0.00  0.00    +0.028 C 
ATOM      9  C   UNL     1      35.024 -16.707 -20.952  0.00  0.00    -0.009 C 
ATOM     10  C   UNL     1      35.407 -18.295 -22.747  0.00  0.00    -0.030 C 
ATOM     11  C   UNL     1      32.372 -14.504 -20.960  0.00  0.00    +0.005 C 
ENDROOT
BRANCH   4  12
ATOM     12  O   UNL     1      35.390 -16.115 -25.188  0.00  0.00    -0.384 OA
ATOM     13  H   UNL     1      35.220 -15.448 -25.871  0.00  0.00    +0.210 HD
ENDBRANCH   4  12
BRANCH   1  14
ATOM     14  C   UNL     1      33.239 -13.890 -23.759  0.00  0.00    +0.004 C 
BRANCH  14  15
ATOM     15  C   UNL     1      34.075 -12.788 -24.395  0.00  0.00    +0.044 C 
BRANCH  15  18
ATOM     16  O   UNL     1      34.482 -10.450 -24.069  0.00  0.00    -0.452 OA
ATOM     17  O   UNL     1      35.002  -8.303 -23.565  0.00  0.00    -0.250 OA
ATOM     18  C   UNL     1      33.425 -11.426 -24.197  0.00  0.00    +0.171 C 
ATOM     19  C   UNL     1      32.567 -11.394 -22.939  0.00  0.00    +0.073 C 
ATOM     20  C   UNL     1      31.992  -9.997 -22.709  0.00  0.00    +0.125 C 
ATOM     21  C   UNL     1      32.680  -8.921 -23.543  0.00  0.00    +0.139 C 
ATOM     22  C   UNL     1      34.157  -9.181 -23.702  0.00  0.00    +0.319 C 
BRANCH  20  23
ATOM     23  O   UNL     1      32.109  -9.656 -21.329  0.00  0.00    -0.384 OA
ATOM     24  H   UNL     1      32.552 -10.377 -20.854  0.00  0.00    +0.210 HD
ENDBRANCH  20  23
ENDBRANCH  15  18
ENDBRANCH  14  15
ENDBRANCH   1  14
TORSDOF 5
ENDMDL
MODEL 3
REMARK VINA RESULT:      -9.8      4.115      8.174
REMARK  Name = 4369567
REMARK  5 active torsions:
REMARK  status: ('A' for Active; 'I' for Inactive)
REMARK    1  A    between atoms: C_1  and  C_14
REMARK    2  A    between atoms: C_4  and  O_12
REMARK    3  A    between atoms: C_14  and  C_15
REMARK    4  A    between atoms: C_15  and  C_18
REMARK    5  A    between atoms: C_20  and  O_23
REMARK                            x       y       z     vdW  Elec       q    Type
REMARK                         _______ _______ _______ _____ _____    ______ ____
ROOT
ATOM      1  C   UNL     1      34.101 -15.004 -22.889  0.00  0.00    +0.011 C 
ATOM      2  C   UNL     1      33.960 -16.519 -23.222  0.00  0.00    +0.049 C 
ATOM      3  C   UNL     1      33.882 -14.740 -21.369  0.00  0.00    +0.022 C 
ATOM      4  C   UNL     1      34.143 -16.839 -24.725  0.00  0.00    +0.115 C 
ATOM      5  C   UNL     1      34.899 -17.350 -22.350  0.00  0.00    -0.025 C 
ATOM      6  C   UNL     1      34.188 -18.349 -24.960  0.00  0.00    +0.034 C 
ATOM      7  C   UNL     1      34.663 -15.721 -20.531  0.00  0.00    -0.027 C 
ATOM      8  C   UNL     1      35.328 -19.011 -24.187  0.00  0.00    +0.028 C 
ATOM      9  C   UNL     1      35.130 -16.888 -20.994  0.00  0.00    -0.009 C 
ATOM     10  C   UNL     1      35.505 -18.463 -22.803  0.00  0.00    -0.030 C 
ATOM     11  C   UNL     1      32.418 -14.761 -20.920  0.00  0.00    +0.005 C 
ENDROOT
BRANCH   4  12
ATOM     12  O   UNL     1      35.353 -16.282 -25.238  0.00  0.00    -0.384 OA
ATOM     13  H   UNL     1      36.111 -16.691 -24.793  0.00  0.00    +0.210 HD
ENDBRANCH   4  12
BRANCH   1  14
ATOM     14  C   UNL     1      33.183 -14.120 -23.742  0.00  0.00    +0.004 C 
BRANCH  14  15
ATOM     15  C   UNL     1      33.891 -12.837 -24.155  0.00  0.00    +0.044 C 
BRANCH  15  18
ATOM     16  O   UNL     1      32.187 -12.019 -22.684  0.00  0.00    -0.452 OA
ATOM     17  O   UNL     1      30.415 -11.288 -21.476  0.00  0.00    -0.250 OA
ATOM     18  C   UNL     1      33.451 -11.667 -23.286  0.00  0.00    +0.171 C 
ATOM     19  C   UNL     1      33.271 -10.398 -24.109  0.00  0.00    +0.073 C 
ATOM     20  C   UNL     1      32.747  -9.256 -23.238  0.00  0.00    +0.125 C 
ATOM     21  C   UNL     1      32.197  -9.730 -21.897  0.00  0.00    +0.139 C 
ATOM     22  C   UNL     1      31.498 -11.062 -22.006  0.00  0.00    +0.319 C 
BRANCH  20  23
ATOM     23  O   UNL     1      31.717  -8.559 -23.938  0.00  0.00    -0.384 OA
ATOM     24  H   UNL     1      31.092  -9.198 -24.315  0.00  0.00    +0.210 HD
ENDBRANCH  20  23
ENDBRANCH  15  18
ENDBRANCH  14  15
ENDBRANCH   1  14
TORSDOF 5
ENDMDL
MODEL 4
REMARK VINA RESULT:      -9.8      4.068      6.946
REMARK  Name = 4369567
REMARK  5 active torsions:
REMARK  status: ('A' for Active; 'I' for Inactive)
REMARK    1  A    between atoms: C_1  and  C_14
REMARK    2  A    between atoms: C_4  and  O_12
REMARK    3  A    between atoms: C_14  and  C_15
REMARK    4  A    between atoms: C_15  and  C_18
REMARK    5  A    between atoms: C_20  and  O_23
REMARK                            x       y       z     vdW  Elec       q    Type
REMARK                         _______ _______ _______ _____ _____    ______ ____
ROOT
ATOM      1  C   UNL     1      33.330 -10.961 -23.429  0.00  0.00    +0.011 C 
ATOM      2  C   UNL     1      32.672  -9.568 -23.662  0.00  0.00    +0.049 C 
ATOM      3  C   UNL     1      34.379 -11.278 -24.535  0.00  0.00    +0.022 C 
ATOM      4  C   UNL     1      31.599  -9.209 -22.604  0.00  0.00    +0.115 C 
ATOM      5  C   UNL     1      33.739  -8.482 -23.772  0.00  0.00    -0.025 C 
ATOM      6  C   UNL     1      31.133  -7.763 -22.769  0.00  0.00    +0.034 C 
ATOM      7  C   UNL     1      35.291 -10.100 -24.771  0.00  0.00    -0.027 C 
ATOM      8  C   UNL     1      32.290  -6.774 -22.633  0.00  0.00    +0.028 C 
ATOM      9  C   UNL     1      34.993  -8.845 -24.406  0.00  0.00    -0.009 C 
ATOM     10  C   UNL     1      33.549  -7.236 -23.303  0.00  0.00    -0.030 C 
ATOM     11  C   UNL     1      33.784 -11.719 -25.876  0.00  0.00    +0.005 C 
ENDROOT
BRANCH   4  12
ATOM     12  O   UNL     1      32.100  -9.357 -21.276  0.00  0.00    -0.384 OA
ATOM     13  H   UNL     1      32.696  -8.620 -21.071  0.00  0.00    +0.210 HD
ENDBRANCH   4  12
BRANCH   1  14
ATOM     14  C   UNL     1      32.300 -12.091 -23.302  0.00  0.00    +0.004 C 
BRANCH  14  15
ATOM     15  C   UNL     1      32.349 -12.720 -21.917  0.00  0.00    +0.044 C 
BRANCH  15  18
ATOM     16  O   UNL     1      33.637 -14.425 -20.835  0.00  0.00    -0.452 OA
ATOM     17  O   UNL     1      35.046 -15.881 -19.821  0.00  0.00    -0.250 OA
ATOM     18  C   UNL     1      32.810 -14.168 -21.991  0.00  0.00    +0.171 C 
ATOM     19  C   UNL     1      33.627 -14.430 -23.251  0.00  0.00    +0.073 C 
ATOM     20  C   UNL     1      34.154 -15.865 -23.267  0.00  0.00    +0.125 C 
ATOM     21  C   UNL     1      34.062 -16.553 -21.909  0.00  0.00    +0.139 C 
ATOM     22  C   UNL     1      34.320 -15.599 -20.769  0.00  0.00    +0.319 C 
BRANCH  20  23
ATOM     23  O   UNL     1      35.516 -15.864 -23.692  0.00  0.00    -0.384 OA
ATOM     24  H   UNL     1      36.089 -16.097 -22.945  0.00  0.00    +0.210 HD
ENDBRANCH  20  23
ENDBRANCH  15  18
ENDBRANCH  14  15
ENDBRANCH   1  14
TORSDOF 5
ENDMDL
MODEL 5
REMARK VINA RESULT:      -9.7      3.507      8.047
REMARK  Name = 4369567
REMARK  5 active torsions:
REMARK  status: ('A' for Active; 'I' for Inactive)
REMARK    1  A    between atoms: C_1  and  C_14
REMARK    2  A    between atoms: C_4  and  O_12
REMARK    3  A    between atoms: C_14  and  C_15
REMARK    4  A    between atoms: C_15  and  C_18
REMARK    5  A    between atoms: C_20  and  O_23
REMARK                            x       y       z     vdW  Elec       q    Type
REMARK                         _______ _______ _______ _____ _____    ______ ____
ROOT
ATOM      1  C   UNL     1      33.184 -14.511 -23.466  0.00  0.00    +0.011 C 
ATOM      2  C   UNL     1      34.403 -15.472 -23.591  0.00  0.00    +0.049 C 
ATOM      3  C   UNL     1      32.910 -13.774 -24.810  0.00  0.00    +0.022 C 
ATOM      4  C   UNL     1      34.739 -16.216 -22.275  0.00  0.00    +0.115 C 
ATOM      5  C   UNL     1      34.204 -16.444 -24.752  0.00  0.00    -0.025 C 
ATOM      6  C   UNL     1      35.811 -17.281 -22.508  0.00  0.00    +0.034 C 
ATOM      7  C   UNL     1      32.931 -14.737 -25.971  0.00  0.00    -0.027 C 
ATOM      8  C   UNL     1      35.369 -18.314 -23.544  0.00  0.00    +0.028 C 
ATOM      9  C   UNL     1      33.506 -15.946 -25.923  0.00  0.00    -0.009 C 
ATOM     10  C   UNL     1      34.643 -17.715 -24.711  0.00  0.00    -0.030 C 
ATOM     11  C   UNL     1      33.865 -12.615 -25.111  0.00  0.00    +0.005 C 
ENDROOT
BRANCH   4  12
ATOM     12  O   UNL     1      33.591 -16.866 -21.730  0.00  0.00    -0.384 OA
ATOM     13  H   UNL     1      32.792 -16.528 -22.163  0.00  0.00    +0.210 HD
ENDBRANCH   4  12
BRANCH   1  14
ATOM     14  C   UNL     1      33.327 -13.516 -22.307  0.00  0.00    +0.004 C 
BRANCH  14  15
ATOM     15  C   UNL     1      31.983 -13.255 -21.643  0.00  0.00    +0.044 C 
BRANCH  15  18
ATOM     16  O   UNL     1      32.574 -11.106 -22.518  0.00  0.00    -0.452 OA
ATOM     17  O   UNL     1      33.362  -9.120 -23.271  0.00  0.00    -0.250 OA
ATOM     18  C   UNL     1      31.675 -11.766 -21.601  0.00  0.00    +0.171 C 
ATOM     19  C   UNL     1      31.884 -11.192 -20.204  0.00  0.00    +0.073 C 
ATOM     20  C   UNL     1      31.653  -9.680 -20.200  0.00  0.00    +0.125 C 
ATOM     21  C   UNL     1      31.637  -9.072 -21.598  0.00  0.00    +0.139 C 
ATOM     22  C   UNL     1      32.618  -9.747 -22.524  0.00  0.00    +0.319 C 
BRANCH  20  23
ATOM     23  O   UNL     1      32.677  -9.047 -19.433  0.00  0.00    -0.384 OA
ATOM     24  H   UNL     1      33.404  -9.672 -19.286  0.00  0.00    +0.210 HD
ENDBRANCH  20  23
ENDBRANCH  15  18
ENDBRANCH  14  15
ENDBRANCH   1  14
TORSDOF 5
ENDMDL
MODEL 6
REMARK VINA RESULT:      -9.4      5.038      8.731
REMARK  Name = 4369567
REMARK  5 active torsions:
REMARK  status: ('A' for Active; 'I' for Inactive)
REMARK    1  A    between atoms: C_1  and  C_14
REMARK    2  A    between atoms: C_4  and  O_12
REMARK    3  A    between atoms: C_14  and  C_15
REMARK    4  A    between atoms: C_15  and  C_18
REMARK    5  A    between atoms: C_20  and  O_23
REMARK                            x       y       z     vdW  Elec       q    Type
REMARK                         _______ _______ _______ _____ _____    ______ ____
ROOT
ATOM      1  C   UNL     1      33.136 -13.868 -21.892  0.00  0.00    +0.011 C 
ATOM      2  C   UNL     1      33.129 -14.882 -23.075  0.00  0.00    +0.049 C 
ATOM      3  C   UNL     1      33.287 -14.599 -20.526  0.00  0.00    +0.022 C 
ATOM      4  C   UNL     1      32.956 -14.213 -24.460  0.00  0.00    +0.115 C 
ATOM      5  C   UNL     1      34.372 -15.769 -23.029  0.00  0.00    -0.025 C 
ATOM      6  C   UNL     1      33.151 -15.228 -25.585  0.00  0.00    +0.034 C 
ATOM      7  C   UNL     1      34.391 -15.625 -20.579  0.00  0.00    -0.027 C 
ATOM      8  C   UNL     1      34.536 -15.873 -25.534  0.00  0.00    +0.028 C 
ATOM      9  C   UNL     1      34.881 -16.131 -21.719  0.00  0.00    -0.009 C 
ATOM     10  C   UNL     1      34.989 -16.201 -24.143  0.00  0.00    -0.030 C 
ATOM     11  C   UNL     1      32.010 -15.273 -20.015  0.00  0.00    +0.005 C 
ENDROOT
BRANCH   4  12
ATOM     12  O   UNL     1      33.898 -13.158 -24.656  0.00  0.00    -0.384 OA
ATOM     13  H   UNL     1      34.250 -13.203 -25.558  0.00  0.00    +0.210 HD
ENDBRANCH   4  12
BRANCH   1  14
ATOM     14  C   UNL     1      31.911 -12.944 -21.894  0.00  0.00    +0.004 C 
BRANCH  14  15
ATOM     15  C   UNL     1      31.856 -12.108 -20.623  0.00  0.00    +0.044 C 
BRANCH  15  18
ATOM     16  O   UNL     1      32.474 -10.342 -22.119  0.00  0.00    -0.452 OA
ATOM     17  O   UNL     1      33.293  -8.726 -23.478  0.00  0.00    -0.250 OA
ATOM     18  C   UNL     1      31.680 -10.632 -20.948  0.00  0.00    +0.171 C 
ATOM     19  C   UNL     1      32.151  -9.748 -19.800  0.00  0.00    +0.073 C 
ATOM     20  C   UNL     1      32.047  -8.270 -20.176  0.00  0.00    +0.125 C 
ATOM     21  C   UNL     1      31.861  -8.044 -21.672  0.00  0.00    +0.139 C 
ATOM     22  C   UNL     1      32.626  -9.046 -22.500  0.00  0.00    +0.319 C 
BRANCH  20  23
ATOM     23  O   UNL     1      33.226  -7.589 -19.749  0.00  0.00    -0.384 OA
ATOM     24  H   UNL     1      33.004  -6.675 -19.512  0.00  0.00    +0.210 HD
ENDBRANCH  20  23
ENDBRANCH  15  18
ENDBRANCH  14  15
ENDBRANCH   1  14
TORSDOF 5
ENDMDL
MODEL 7
REMARK VINA RESULT:      -9.4      4.344      8.761
REMARK  Name = 4369567
REMARK  5 active torsions:
REMARK  status: ('A' for Active; 'I' for Inactive)
REMARK    1  A    between atoms: C_1  and  C_14
REMARK    2  A    between atoms: C_4  and  O_12
REMARK    3  A    between atoms: C_14  and  C_15
REMARK    4  A    between atoms: C_15  and  C_18
REMARK    5  A    between atoms: C_20  and  O_23
REMARK                            x       y       z     vdW  Elec       q    Type
REMARK                         _______ _______ _______ _____ _____    ______ ____
ROOT
ATOM      1  C   UNL     1      34.057 -14.423 -23.280  0.00  0.00    +0.011 C 
ATOM      2  C   UNL     1      33.850 -15.949 -23.510  0.00  0.00    +0.049 C 
ATOM      3  C   UNL     1      33.779 -14.035 -21.798  0.00  0.00    +0.022 C 
ATOM      4  C   UNL     1      34.088 -16.390 -24.975  0.00  0.00    +0.115 C 
ATOM      5  C   UNL     1      34.699 -16.759 -22.533  0.00  0.00    -0.025 C 
ATOM      6  C   UNL     1      34.063 -17.913 -25.098  0.00  0.00    +0.034 C 
ATOM      7  C   UNL     1      34.464 -14.988 -20.851  0.00  0.00    -0.027 C 
ATOM      8  C   UNL     1      35.126 -18.572 -24.220  0.00  0.00    +0.028 C 
ATOM      9  C   UNL     1      34.888 -16.209 -21.203  0.00  0.00    -0.009 C 
ATOM     10  C   UNL     1      35.265 -17.932 -22.871  0.00  0.00    -0.030 C 
ATOM     11  C   UNL     1      32.296 -13.948 -21.425  0.00  0.00    +0.005 C 
ENDROOT
BRANCH   4  12
ATOM     12  O   UNL     1      35.350 -15.935 -25.463  0.00  0.00    -0.384 OA
ATOM     13  H   UNL     1      35.948 -15.778 -24.716  0.00  0.00    +0.210 HD
ENDBRANCH   4  12
BRANCH   1  14
ATOM     14  C   UNL     1      33.231 -13.560 -24.243  0.00  0.00    +0.004 C 
BRANCH  14  15
ATOM     15  C   UNL     1      34.091 -12.478 -24.880  0.00  0.00    +0.044 C 
BRANCH  15  18
ATOM     16  O   UNL     1      32.687 -10.794 -23.915  0.00  0.00    -0.452 OA
ATOM     17  O   UNL     1      31.271  -9.165 -23.229  0.00  0.00    -0.250 OA
ATOM     18  C   UNL     1      34.066 -11.201 -24.052  0.00  0.00    +0.171 C 
ATOM     19  C   UNL     1      34.848 -10.081 -24.728  0.00  0.00    +0.073 C 
ATOM     20  C   UNL     1      34.740  -8.784 -23.927  0.00  0.00    +0.125 C 
ATOM     21  C   UNL     1      33.623  -8.812 -22.888  0.00  0.00    +0.139 C 
ATOM     22  C   UNL     1      32.417  -9.579 -23.369  0.00  0.00    +0.319 C 
BRANCH  20  23
ATOM     23  O   UNL     1      34.513  -7.693 -24.819  0.00  0.00    -0.384 OA
ATOM     24  H   UNL     1      34.849  -7.920 -25.699  0.00  0.00    +0.210 HD
ENDBRANCH  20  23
ENDBRANCH  15  18
ENDBRANCH  14  15
ENDBRANCH   1  14
TORSDOF 5
ENDMDL
MODEL 8
REMARK VINA RESULT:      -9.3      3.987      8.929
REMARK  Name = 4369567
REMARK  5 active torsions:
REMARK  status: ('A' for Active; 'I' for Inactive)
REMARK    1  A    between atoms: C_1  and  C_14
REMARK    2  A    between atoms: C_4  and  O_12
REMARK    3  A    between atoms: C_14  and  C_15
REMARK    4  A    between atoms: C_15  and  C_18
REMARK    5  A    between atoms: C_20  and  O_23
REMARK                            x       y       z     vdW  Elec       q    Type
REMARK                         _______ _______ _______ _____ _____    ______ ____
ROOT
ATOM      1  C   UNL     1      32.702 -13.792 -22.779  0.00  0.00    +0.011 C 
ATOM      2  C   UNL     1      33.888 -14.747 -22.449  0.00  0.00    +0.049 C 
ATOM      3  C   UNL     1      32.855 -13.178 -24.203  0.00  0.00    +0.022 C 
ATOM      4  C   UNL     1      33.803 -15.369 -21.034  0.00  0.00    +0.115 C 
ATOM      5  C   UNL     1      34.030 -15.819 -23.528  0.00  0.00    -0.025 C 
ATOM      6  C   UNL     1      34.877 -16.438 -20.842  0.00  0.00    +0.034 C 
ATOM      7  C   UNL     1      33.207 -14.239 -25.215  0.00  0.00    -0.027 C 
ATOM      8  C   UNL     1      34.749 -17.563 -21.868  0.00  0.00    +0.028 C 
ATOM      9  C   UNL     1      33.722 -15.433 -24.892  0.00  0.00    -0.009 C 
ATOM     10  C   UNL     1      34.415 -17.077 -23.246  0.00  0.00    -0.030 C 
ATOM     11  C   UNL     1      33.875 -12.040 -24.304  0.00  0.00    +0.005 C 
ENDROOT
BRANCH   4  12
ATOM     12  O   UNL     1      32.533 -15.980 -20.804  0.00  0.00    -0.384 OA
ATOM     13  H   UNL     1      32.624 -16.668 -20.126  0.00  0.00    +0.210 HD
ENDBRANCH   4  12
BRANCH   1  14
ATOM     14  C   UNL     1      32.509 -12.698 -21.722  0.00  0.00    +0.004 C 
BRANCH  14  15
ATOM     15  C   UNL     1      31.508 -11.652 -22.195  0.00  0.00    +0.044 C 
BRANCH  15  18
ATOM     16  O   UNL     1      31.884  -9.816 -20.704  0.00  0.00    -0.452 OA
ATOM     17  O   UNL     1      31.997  -8.081 -19.251  0.00  0.00    -0.250 OA
ATOM     18  C   UNL     1      32.083 -10.249 -22.067  0.00  0.00    +0.171 C 
ATOM     19  C   UNL     1      31.383  -9.272 -23.004  0.00  0.00    +0.073 C 
ATOM     20  C   UNL     1      31.912  -7.853 -22.801  0.00  0.00    +0.125 C 
ATOM     21  C   UNL     1      32.710  -7.689 -21.512  0.00  0.00    +0.139 C 
ATOM     22  C   UNL     1      32.150  -8.521 -20.386  0.00  0.00    +0.319 C 
BRANCH  20  23
ATOM     23  O   UNL     1      30.819  -6.936 -22.787  0.00  0.00    -0.384 OA
ATOM     24  H   UNL     1      29.989  -7.421 -22.915  0.00  0.00    +0.210 HD
ENDBRANCH  20  23
ENDBRANCH  15  18
ENDBRANCH  14  15
ENDBRANCH   1  14
TORSDOF 5
ENDMDL
MODEL 9
REMARK VINA RESULT:      -9.2      2.649      4.792
REMARK  Name = 4369567
REMARK  5 active torsions:
REMARK  status: ('A' for Active; 'I' for Inactive)
REMARK    1  A    between atoms: C_1  and  C_14
REMARK    2  A    between atoms: C_4  and  O_12
REMARK    3  A    between atoms: C_14  and  C_15
REMARK    4  A    between atoms: C_15  and  C_18
REMARK    5  A    between atoms: C_20  and  O_23
REMARK                            x       y       z     vdW  Elec       q    Type
REMARK                         _______ _______ _______ _____ _____    ______ ____
ROOT
ATOM      1  C   UNL     1      33.322 -13.356 -22.819  0.00  0.00    +0.011 C 
ATOM      2  C   UNL     1      32.172 -12.325 -22.615  0.00  0.00    +0.049 C 
ATOM      3  C   UNL     1      33.849 -13.326 -24.285  0.00  0.00    +0.022 C 
ATOM      4  C   UNL     1      31.590 -12.328 -21.180  0.00  0.00    +0.115 C 
ATOM      5  C   UNL     1      32.620 -10.928 -23.039  0.00  0.00    -0.025 C 
ATOM      6  C   UNL     1      30.609 -11.172 -20.987  0.00  0.00    +0.034 C 
ATOM      7  C   UNL     1      34.082 -11.910 -24.749  0.00  0.00    -0.027 C 
ATOM      8  C   UNL     1      31.271  -9.817 -21.234  0.00  0.00    +0.028 C 
ATOM      9  C   UNL     1      33.532 -10.837 -24.165  0.00  0.00    -0.009 C 
ATOM     10  C   UNL     1      32.207  -9.816 -22.405  0.00  0.00    -0.030 C 
ATOM     11  C   UNL     1      32.952 -14.039 -25.302  0.00  0.00    +0.005 C 
ENDROOT
BRANCH   4  12
ATOM     12  O   UNL     1      32.617 -12.196 -20.196  0.00  0.00    -0.384 OA
ATOM     13  H   UNL     1      33.051 -11.334 -20.295  0.00  0.00    +0.210 HD
ENDBRANCH   4  12
BRANCH   1  14
ATOM     14  C   UNL     1      32.928 -14.778 -22.401  0.00  0.00    +0.004 C 
BRANCH  14  15
ATOM     15  C   UNL     1      33.890 -15.326 -21.357  0.00  0.00    +0.044 C 
BRANCH  15  18
ATOM     16  O   UNL     1      34.294 -16.698 -23.277  0.00  0.00    -0.452 OA
ATOM     17  O   UNL     1      34.443 -18.074 -25.071  0.00  0.00    -0.250 OA
ATOM     18  C   UNL     1      34.782 -16.407 -21.950  0.00  0.00    +0.171 C 
ATOM     19  C   UNL     1      34.742 -17.682 -21.117  0.00  0.00    +0.073 C 
ATOM     20  C   UNL     1      35.574 -18.784 -21.773  0.00  0.00    +0.125 C 
ATOM     21  C   UNL     1      35.926 -18.485 -23.226  0.00  0.00    +0.139 C 
ATOM     22  C   UNL     1      34.814 -17.763 -23.945  0.00  0.00    +0.319 C 
BRANCH  20  23
ATOM     23  O   UNL     1      34.857 -20.017 -21.716  0.00  0.00    -0.384 OA
ATOM     24  H   UNL     1      34.952 -20.406 -20.833  0.00  0.00    +0.210 HD
ENDBRANCH  20  23
ENDBRANCH  15  18
ENDBRANCH  14  15
ENDBRANCH   1  14
TORSDOF 5
ENDMDL
