MODEL 1
REMARK VINA RESULT:     -10.8      0.000      0.000
REMARK  Name = 44480399
REMARK  5 active torsions:
REMARK  status: ('A' for Active; 'I' for Inactive)
REMARK    1  A    between atoms: O_1  and  C_9
REMARK    2  A    between atoms: O_1  and  C_20
REMARK    3  A    between atoms: C_5  and  C_14
REMARK    4  A    between atoms: C_23  and  O_27
REMARK    5  A    between atoms: C_25  and  O_29
REMARK                            x       y       z     vdW  Elec       q    Type
REMARK                         _______ _______ _______ _____ _____    ______ ____
ROOT
ATOM      1  O   UNL     1      33.527 -23.501 -18.351  0.00  0.00    -0.439 OA
ENDROOT
BRANCH   1   9
ATOM      2  O   UNL     1      36.631 -20.477 -20.510  0.00  0.00    -0.457 OA
ATOM      3  C   UNL     1      34.415 -20.039 -20.515  0.00  0.00    +0.042 A 
ATOM      4  C   UNL     1      35.409 -20.921 -20.103  0.00  0.00    +0.148 A 
ATOM      5  C   UNL     1      35.086 -19.000 -21.210  0.00  0.00    +0.087 A 
ATOM      6  C   UNL     1      36.425 -19.312 -21.178  0.00  0.00    +0.128 A 
ATOM      7  C   UNL     1      33.080 -20.333 -20.188  0.00  0.00    +0.006 C 
ATOM      8  C   UNL     1      35.168 -22.089 -19.381  0.00  0.00    +0.075 C 
ATOM      9  C   UNL     1      33.833 -22.361 -19.066  0.00  0.00    +0.150 C 
ATOM     10  C   UNL     1      32.806 -21.500 -19.461  0.00  0.00    +0.038 C 
ATOM     11  C   UNL     1      37.629 -18.655 -21.708  0.00  0.00    +0.073 C 
BRANCH   5  14
ATOM     12  O   UNL     1      34.514 -17.711 -23.084  0.00  0.00    -0.270 OA
ATOM     13  N   UNL     1      33.962 -16.851 -21.003  0.00  0.00    -0.299 N 
ATOM     14  C   UNL     1      34.524 -17.838 -21.837  0.00  0.00    +0.249 C 
ATOM     15  C   UNL     1      33.339 -15.638 -21.482  0.00  0.00    +0.111 C 
ATOM     16  H   UNL     1      33.995 -16.998 -20.030  0.00  0.00    +0.150 HD
ENDBRANCH   5  14
ENDBRANCH   1   9
BRANCH   1  20
ATOM     17  N   UNL     1      31.675 -22.872 -17.142  0.00  0.00    -0.214 NA
ATOM     18  N   UNL     1      31.687 -22.974 -14.734  0.00  0.00    -0.248 NA
ATOM     19  C   UNL     1      33.639 -23.639 -15.960  0.00  0.00    +0.141 C 
ATOM     20  C   UNL     1      32.939 -23.335 -17.123  0.00  0.00    +0.212 C 
ATOM     21  C   UNL     1      32.950 -23.435 -14.753  0.00  0.00    +0.072 C 
ATOM     22  C   UNL     1      34.959 -24.122 -15.966  0.00  0.00    +0.029 C 
ATOM     23  C   UNL     1      35.602 -24.405 -14.766  0.00  0.00    +0.169 C 
ATOM     24  C   UNL     1      33.618 -23.728 -13.566  0.00  0.00    +0.055 C 
ATOM     25  C   UNL     1      34.931 -24.208 -13.564  0.00  0.00    +0.173 C 
ATOM     26  C   UNL     1      31.119 -22.717 -15.929  0.00  0.00    +0.253 C 
BRANCH  23  27
ATOM     27  O   UNL     1      36.881 -24.872 -14.781  0.00  0.00    -0.469 OA
ATOM     28  C   UNL     1      37.060 -26.265 -15.031  0.00  0.00    +0.253 C 
ENDBRANCH  23  27
BRANCH  25  29
ATOM     29  O   UNL     1      35.542 -24.481 -12.377  0.00  0.00    -0.468 OA
ATOM     30  C   UNL     1      36.318 -23.436 -11.794  0.00  0.00    +0.253 C 
ENDBRANCH  25  29
ENDBRANCH   1  20
TORSDOF 5
ENDMDL
MODEL 2
REMARK VINA RESULT:     -10.6      6.020     12.804
REMARK  Name = 44480399
REMARK  5 active torsions:
REMARK  status: ('A' for Active; 'I' for Inactive)
REMARK    1  A    between atoms: O_1  and  C_9
REMARK    2  A    between atoms: O_1  and  C_20
REMARK    3  A    between atoms: C_5  and  C_14
REMARK    4  A    between atoms: C_23  and  O_27
REMARK    5  A    between atoms: C_25  and  O_29
REMARK                            x       y       z     vdW  Elec       q    Type
REMARK                         _______ _______ _______ _____ _____    ______ ____
ROOT
ATOM      1  O   UNL     1      32.839 -12.645 -24.898  0.00  0.00    -0.439 OA
ENDROOT
BRANCH   1   9
ATOM      2  O   UNL     1      33.925 -17.314 -25.578  0.00  0.00    -0.457 OA
ATOM      3  C   UNL     1      34.488 -16.275 -23.652  0.00  0.00    +0.042 A 
ATOM      4  C   UNL     1      33.881 -16.135 -24.896  0.00  0.00    +0.148 A 
ATOM      5  C   UNL     1      34.921 -17.625 -23.585  0.00  0.00    +0.087 A 
ATOM      6  C   UNL     1      34.555 -18.210 -24.775  0.00  0.00    +0.128 A 
ATOM      7  C   UNL     1      34.541 -15.158 -22.802  0.00  0.00    +0.006 C 
ATOM      8  C   UNL     1      33.317 -14.948 -25.361  0.00  0.00    +0.075 C 
ATOM      9  C   UNL     1      33.381 -13.849 -24.499  0.00  0.00    +0.150 C 
ATOM     10  C   UNL     1      33.981 -13.950 -23.241  0.00  0.00    +0.038 C 
ATOM     11  C   UNL     1      34.711 -19.565 -25.325  0.00  0.00    +0.073 C 
BRANCH   5  14
ATOM     12  O   UNL     1      36.801 -18.031 -22.243  0.00  0.00    -0.270 OA
ATOM     13  N   UNL     1      34.878 -19.233 -21.758  0.00  0.00    -0.299 N 
ATOM     14  C   UNL     1      35.604 -18.291 -22.514  0.00  0.00    +0.249 C 
ATOM     15  C   UNL     1      35.418 -19.967 -20.636  0.00  0.00    +0.111 C 
ATOM     16  H   UNL     1      33.941 -19.401 -22.011  0.00  0.00    +0.150 HD
ENDBRANCH   5  14
ENDBRANCH   1   9
BRANCH   1  20
ATOM     17  N   UNL     1      34.642 -11.553 -25.817  0.00  0.00    -0.214 NA
ATOM     18  N   UNL     1      35.353  -9.417 -24.958  0.00  0.00    -0.248 NA
ATOM     19  C   UNL     1      33.467 -10.524 -23.972  0.00  0.00    +0.141 C 
ATOM     20  C   UNL     1      33.664 -11.549 -24.892  0.00  0.00    +0.212 C 
ATOM     21  C   UNL     1      34.366  -9.446 -24.046  0.00  0.00    +0.072 C 
ATOM     22  C   UNL     1      32.438 -10.543 -23.014  0.00  0.00    +0.029 C 
ATOM     23  C   UNL     1      32.298  -9.485 -22.123  0.00  0.00    +0.169 C 
ATOM     24  C   UNL     1      34.201  -8.400 -23.141  0.00  0.00    +0.055 C 
ATOM     25  C   UNL     1      33.180  -8.411 -22.186  0.00  0.00    +0.173 C 
ATOM     26  C   UNL     1      35.438 -10.472 -25.793  0.00  0.00    +0.253 C 
BRANCH  23  27
ATOM     27  O   UNL     1      31.299  -9.511 -21.198  0.00  0.00    -0.469 OA
ATOM     28  C   UNL     1      31.520 -10.297 -20.028  0.00  0.00    +0.253 C 
ENDBRANCH  23  27
BRANCH  25  29
ATOM     29  O   UNL     1      33.059  -7.364 -21.324  0.00  0.00    -0.468 OA
ATOM     30  C   UNL     1      32.261  -6.263 -21.752  0.00  0.00    +0.253 C 
ENDBRANCH  25  29
ENDBRANCH   1  20
TORSDOF 5
ENDMDL
MODEL 3
REMARK VINA RESULT:     -10.4      2.652     10.050
REMARK  Name = 44480399
REMARK  5 active torsions:
REMARK  status: ('A' for Active; 'I' for Inactive)
REMARK    1  A    between atoms: O_1  and  C_9
REMARK    2  A    between atoms: O_1  and  C_20
REMARK    3  A    between atoms: C_5  and  C_14
REMARK    4  A    between atoms: C_23  and  O_27
REMARK    5  A    between atoms: C_25  and  O_29
REMARK                            x       y       z     vdW  Elec       q    Type
REMARK                         _______ _______ _______ _____ _____    ______ ____
ROOT
ATOM      1  O   UNL     1      34.774 -18.152 -22.436  0.00  0.00    -0.439 OA
ENDROOT
BRANCH   1   9
ATOM      2  O   UNL     1      36.777 -20.791 -18.905  0.00  0.00    -0.457 OA
ATOM      3  C   UNL     1      34.627 -21.131 -19.510  0.00  0.00    +0.042 A 
ATOM      4  C   UNL     1      35.781 -20.391 -19.745  0.00  0.00    +0.148 A 
ATOM      5  C   UNL     1      34.953 -22.032 -18.463  0.00  0.00    +0.087 A 
ATOM      6  C   UNL     1      36.265 -21.786 -18.133  0.00  0.00    +0.128 A 
ATOM      7  C   UNL     1      33.486 -20.857 -20.284  0.00  0.00    +0.006 C 
ATOM      8  C   UNL     1      35.885 -19.387 -20.707  0.00  0.00    +0.075 C 
ATOM      9  C   UNL     1      34.738 -19.132 -21.465  0.00  0.00    +0.150 C 
ATOM     10  C   UNL     1      33.559 -19.853 -21.260  0.00  0.00    +0.038 C 
ATOM     11  C   UNL     1      37.184 -22.368 -17.144  0.00  0.00    +0.073 C 
BRANCH   5  14
ATOM     12  O   UNL     1      33.660 -23.988 -18.492  0.00  0.00    -0.270 OA
ATOM     13  N   UNL     1      33.842 -22.873 -16.467  0.00  0.00    -0.299 N 
ATOM     14  C   UNL     1      34.117 -23.018 -17.842  0.00  0.00    +0.249 C 
ATOM     15  C   UNL     1      33.038 -23.793 -15.695  0.00  0.00    +0.111 C 
ATOM     16  H   UNL     1      34.224 -22.093 -16.002  0.00  0.00    +0.150 HD
ENDBRANCH   5  14
ENDBRANCH   1   9
BRANCH   1  20
ATOM     17  N   UNL     1      34.794 -16.636 -20.706  0.00  0.00    -0.214 NA
ATOM     18  N   UNL     1      34.345 -14.304 -21.112  0.00  0.00    -0.248 NA
ATOM     19  C   UNL     1      34.316 -15.853 -22.942  0.00  0.00    +0.141 C 
ATOM     20  C   UNL     1      34.624 -16.852 -22.024  0.00  0.00    +0.212 C 
ATOM     21  C   UNL     1      34.182 -14.555 -22.422  0.00  0.00    +0.072 C 
ATOM     22  C   UNL     1      34.142 -16.104 -24.315  0.00  0.00    +0.029 C 
ATOM     23  C   UNL     1      33.835 -15.059 -25.179  0.00  0.00    +0.169 C 
ATOM     24  C   UNL     1      33.873 -13.527 -23.311  0.00  0.00    +0.055 C 
ATOM     25  C   UNL     1      33.700 -13.769 -24.677  0.00  0.00    +0.173 C 
ATOM     26  C   UNL     1      34.642 -15.358 -20.325  0.00  0.00    +0.253 C 
BRANCH  23  27
ATOM     27  O   UNL     1      33.668 -15.309 -26.507  0.00  0.00    -0.469 OA
ATOM     28  C   UNL     1      32.358 -15.679 -26.938  0.00  0.00    +0.253 C 
ENDBRANCH  23  27
BRANCH  25  29
ATOM     29  O   UNL     1      33.400 -12.730 -25.506  0.00  0.00    -0.468 OA
ATOM     30  C   UNL     1      34.157 -11.533 -25.342  0.00  0.00    +0.253 C 
ENDBRANCH  25  29
ENDBRANCH   1  20
TORSDOF 5
ENDMDL
MODEL 4
REMARK VINA RESULT:     -10.4      2.822     10.030
REMARK  Name = 44480399
REMARK  5 active torsions:
REMARK  status: ('A' for Active; 'I' for Inactive)
REMARK    1  A    between atoms: O_1  and  C_9
REMARK    2  A    between atoms: O_1  and  C_20
REMARK    3  A    between atoms: C_5  and  C_14
REMARK    4  A    between atoms: C_23  and  O_27
REMARK    5  A    between atoms: C_25  and  O_29
REMARK                            x       y       z     vdW  Elec       q    Type
REMARK                         _______ _______ _______ _____ _____    ______ ____
ROOT
ATOM      1  O   UNL     1      35.834 -17.984 -22.049  0.00  0.00    -0.439 OA
ENDROOT
BRANCH   1   9
ATOM      2  O   UNL     1      36.853 -21.010 -18.409  0.00  0.00    -0.457 OA
ATOM      3  C   UNL     1      34.848 -21.101 -19.447  0.00  0.00    +0.042 A 
ATOM      4  C   UNL     1      36.085 -20.465 -19.394  0.00  0.00    +0.148 A 
ATOM      5  C   UNL     1      34.879 -22.089 -18.428  0.00  0.00    +0.087 A 
ATOM      6  C   UNL     1      36.115 -21.993 -17.831  0.00  0.00    +0.128 A 
ATOM      7  C   UNL     1      33.914 -20.672 -20.405  0.00  0.00    +0.006 C 
ATOM      8  C   UNL     1      36.464 -19.422 -20.237  0.00  0.00    +0.075 C 
ATOM      9  C   UNL     1      35.520 -19.012 -21.183  0.00  0.00    +0.150 C 
ATOM     10  C   UNL     1      34.267 -19.624 -21.267  0.00  0.00    +0.038 C 
ATOM     11  C   UNL     1      36.763 -22.719 -16.729  0.00  0.00    +0.073 C 
BRANCH   5  14
ATOM     12  O   UNL     1      33.655 -24.067 -18.725  0.00  0.00    -0.270 OA
ATOM     13  N   UNL     1      33.093 -22.740 -16.909  0.00  0.00    -0.299 N 
ATOM     14  C   UNL     1      33.855 -23.023 -18.060  0.00  0.00    +0.249 C 
ATOM     15  C   UNL     1      32.044 -23.592 -16.397  0.00  0.00    +0.111 C 
ATOM     16  H   UNL     1      33.289 -21.907 -16.421  0.00  0.00    +0.150 HD
ENDBRANCH   5  14
ENDBRANCH   1   9
BRANCH   1  20
ATOM     17  N   UNL     1      35.313 -19.201 -23.930  0.00  0.00    -0.214 NA
ATOM     18  N   UNL     1      34.153 -18.173 -25.775  0.00  0.00    -0.248 NA
ATOM     19  C   UNL     1      34.678 -16.871 -23.831  0.00  0.00    +0.141 C 
ATOM     20  C   UNL     1      35.262 -18.014 -23.296  0.00  0.00    +0.212 C 
ATOM     21  C   UNL     1      34.120 -17.004 -25.113  0.00  0.00    +0.072 C 
ATOM     22  C   UNL     1      34.637 -15.642 -23.148  0.00  0.00    +0.029 C 
ATOM     23  C   UNL     1      34.037 -14.537 -23.741  0.00  0.00    +0.169 C 
ATOM     24  C   UNL     1      33.526 -15.880 -25.683  0.00  0.00    +0.055 C 
ATOM     25  C   UNL     1      33.481 -14.655 -25.011  0.00  0.00    +0.173 C 
ATOM     26  C   UNL     1      34.748 -19.208 -25.148  0.00  0.00    +0.253 C 
BRANCH  23  27
ATOM     27  O   UNL     1      34.002 -13.350 -23.074  0.00  0.00    -0.469 OA
ATOM     28  C   UNL     1      32.839 -13.080 -22.293  0.00  0.00    +0.253 C 
ENDBRANCH  23  27
BRANCH  25  29
ATOM     29  O   UNL     1      32.888 -13.585 -25.609  0.00  0.00    -0.468 OA
ATOM     30  C   UNL     1      33.140 -13.400 -27.001  0.00  0.00    +0.253 C 
ENDBRANCH  25  29
ENDBRANCH   1  20
TORSDOF 5
ENDMDL
MODEL 5
REMARK VINA RESULT:     -10.2      2.913      5.521
REMARK  Name = 44480399
REMARK  5 active torsions:
REMARK  status: ('A' for Active; 'I' for Inactive)
REMARK    1  A    between atoms: O_1  and  C_9
REMARK    2  A    between atoms: O_1  and  C_20
REMARK    3  A    between atoms: C_5  and  C_14
REMARK    4  A    between atoms: C_23  and  O_27
REMARK    5  A    between atoms: C_25  and  O_29
REMARK                            x       y       z     vdW  Elec       q    Type
REMARK                         _______ _______ _______ _____ _____    ______ ____
ROOT
ATOM      1  O   UNL     1      35.489 -18.879 -21.316  0.00  0.00    -0.439 OA
ENDROOT
BRANCH   1   9
ATOM      2  O   UNL     1      34.026 -16.204 -25.077  0.00  0.00    -0.457 OA
ATOM      3  C   UNL     1      34.230 -15.281 -23.025  0.00  0.00    +0.042 A 
ATOM      4  C   UNL     1      34.361 -16.443 -23.778  0.00  0.00    +0.148 A 
ATOM      5  C   UNL     1      33.789 -14.282 -23.932  0.00  0.00    +0.087 A 
ATOM      6  C   UNL     1      33.682 -14.892 -25.160  0.00  0.00    +0.128 A 
ATOM      7  C   UNL     1      34.531 -15.333 -21.653  0.00  0.00    +0.006 C 
ATOM      8  C   UNL     1      34.776 -17.669 -23.259  0.00  0.00    +0.075 C 
ATOM      9  C   UNL     1      35.071 -17.697 -21.892  0.00  0.00    +0.150 C 
ATOM     10  C   UNL     1      34.952 -16.551 -21.102  0.00  0.00    +0.038 C 
ATOM     11  C   UNL     1      33.282 -14.417 -26.492  0.00  0.00    +0.073 C 
BRANCH   5  14
ATOM     12  O   UNL     1      32.576 -12.566 -22.891  0.00  0.00    -0.270 OA
ATOM     13  N   UNL     1      34.309 -11.932 -24.294  0.00  0.00    -0.299 N 
ATOM     14  C   UNL     1      33.501 -12.902 -23.668  0.00  0.00    +0.249 C 
ATOM     15  C   UNL     1      34.160 -10.506 -24.112  0.00  0.00    +0.111 C 
ATOM     16  H   UNL     1      35.023 -12.247 -24.895  0.00  0.00    +0.150 HD
ENDBRANCH   5  14
ENDBRANCH   1   9
BRANCH   1  20
ATOM     17  N   UNL     1      33.320 -19.627 -21.472  0.00  0.00    -0.214 NA
ATOM     18  N   UNL     1      32.531 -21.409 -20.055  0.00  0.00    -0.248 NA
ATOM     19  C   UNL     1      34.800 -20.658 -19.863  0.00  0.00    +0.141 C 
ATOM     20  C   UNL     1      34.520 -19.741 -20.871  0.00  0.00    +0.212 C 
ATOM     21  C   UNL     1      33.741 -21.496 -19.476  0.00  0.00    +0.072 C 
ATOM     22  C   UNL     1      36.062 -20.758 -19.250  0.00  0.00    +0.029 C 
ATOM     23  C   UNL     1      36.275 -21.697 -18.247  0.00  0.00    +0.169 C 
ATOM     24  C   UNL     1      33.983 -22.427 -18.469  0.00  0.00    +0.055 C 
ATOM     25  C   UNL     1      35.235 -22.533 -17.855  0.00  0.00    +0.173 C 
ATOM     26  C   UNL     1      32.386 -20.480 -21.021  0.00  0.00    +0.253 C 
BRANCH  23  27
ATOM     27  O   UNL     1      37.499 -21.787 -17.658  0.00  0.00    -0.469 OA
ATOM     28  C   UNL     1      37.550 -21.632 -16.240  0.00  0.00    +0.253 C 
ENDBRANCH  23  27
BRANCH  25  29
ATOM     29  O   UNL     1      35.423 -23.461 -16.875  0.00  0.00    -0.468 OA
ATOM     30  C   UNL     1      34.396 -23.580 -15.893  0.00  0.00    +0.253 C 
ENDBRANCH  25  29
ENDBRANCH   1  20
TORSDOF 5
ENDMDL
MODEL 6
REMARK VINA RESULT:     -10.1      6.103     13.028
REMARK  Name = 44480399
REMARK  5 active torsions:
REMARK  status: ('A' for Active; 'I' for Inactive)
REMARK    1  A    between atoms: O_1  and  C_9
REMARK    2  A    between atoms: O_1  and  C_20
REMARK    3  A    between atoms: C_5  and  C_14
REMARK    4  A    between atoms: C_23  and  O_27
REMARK    5  A    between atoms: C_25  and  O_29
REMARK                            x       y       z     vdW  Elec       q    Type
REMARK                         _______ _______ _______ _____ _____    ______ ____
ROOT
ATOM      1  O   UNL     1      31.597 -11.906 -22.322  0.00  0.00    -0.439 OA
ENDROOT
BRANCH   1   9
ATOM      2  O   UNL     1      33.922 -15.716 -24.199  0.00  0.00    -0.457 OA
ATOM      3  C   UNL     1      33.548 -15.584 -21.975  0.00  0.00    +0.042 A 
ATOM      4  C   UNL     1      33.375 -14.960 -23.206  0.00  0.00    +0.148 A 
ATOM      5  C   UNL     1      34.241 -16.792 -22.249  0.00  0.00    +0.087 A 
ATOM      6  C   UNL     1      34.442 -16.824 -23.610  0.00  0.00    +0.128 A 
ATOM      7  C   UNL     1      33.049 -14.949 -20.825  0.00  0.00    +0.006 C 
ATOM      8  C   UNL     1      32.734 -13.734 -23.378  0.00  0.00    +0.075 C 
ATOM      9  C   UNL     1      32.244 -13.121 -22.221  0.00  0.00    +0.150 C 
ATOM     10  C   UNL     1      32.398 -13.715 -20.966  0.00  0.00    +0.038 C 
ATOM     11  C   UNL     1      35.089 -17.788 -24.513  0.00  0.00    +0.073 C 
BRANCH   5  14
ATOM     12  O   UNL     1      35.599 -17.599 -20.516  0.00  0.00    -0.270 OA
ATOM     13  N   UNL     1      33.983 -19.038 -21.348  0.00  0.00    -0.299 N 
ATOM     14  C   UNL     1      34.666 -17.806 -21.328  0.00  0.00    +0.249 C 
ATOM     15  C   UNL     1      34.277 -20.148 -20.470  0.00  0.00    +0.111 C 
ATOM     16  H   UNL     1      33.258 -19.151 -22.005  0.00  0.00    +0.150 HD
ENDBRANCH   5  14
ENDBRANCH   1   9
BRANCH   1  20
ATOM     17  N   UNL     1      31.619 -11.635 -20.038  0.00  0.00    -0.214 NA
ATOM     18  N   UNL     1      31.853  -9.443 -19.064  0.00  0.00    -0.248 NA
ATOM     19  C   UNL     1      31.834  -9.685 -21.451  0.00  0.00    +0.141 C 
ATOM     20  C   UNL     1      31.685 -11.054 -21.251  0.00  0.00    +0.212 C 
ATOM     21  C   UNL     1      31.915  -8.896 -20.291  0.00  0.00    +0.072 C 
ATOM     22  C   UNL     1      31.901  -9.101 -22.728  0.00  0.00    +0.029 C 
ATOM     23  C   UNL     1      32.049  -7.725 -22.857  0.00  0.00    +0.169 C 
ATOM     24  C   UNL     1      32.064  -7.520 -20.450  0.00  0.00    +0.055 C 
ATOM     25  C   UNL     1      32.131  -6.932 -21.716  0.00  0.00    +0.173 C 
ATOM     26  C   UNL     1      31.708 -10.782 -19.005  0.00  0.00    +0.253 C 
BRANCH  23  27
ATOM     27  O   UNL     1      32.112  -7.167 -24.097  0.00  0.00    -0.469 OA
ATOM     28  C   UNL     1      33.393  -6.726 -24.546  0.00  0.00    +0.253 C 
ENDBRANCH  23  27
BRANCH  25  29
ATOM     29  O   UNL     1      32.278  -5.582 -21.820  0.00  0.00    -0.468 OA
ATOM     30  C   UNL     1      31.111  -4.827 -22.139  0.00  0.00    +0.253 C 
ENDBRANCH  25  29
ENDBRANCH   1  20
TORSDOF 5
ENDMDL
MODEL 7
REMARK VINA RESULT:     -10.1      2.241      3.327
REMARK  Name = 44480399
REMARK  5 active torsions:
REMARK  status: ('A' for Active; 'I' for Inactive)
REMARK    1  A    between atoms: O_1  and  C_9
REMARK    2  A    between atoms: O_1  and  C_20
REMARK    3  A    between atoms: C_5  and  C_14
REMARK    4  A    between atoms: C_23  and  O_27
REMARK    5  A    between atoms: C_25  and  O_29
REMARK                            x       y       z     vdW  Elec       q    Type
REMARK                         _______ _______ _______ _____ _____    ______ ____
ROOT
ATOM      1  O   UNL     1      33.341 -22.903 -18.679  0.00  0.00    -0.439 OA
ENDROOT
BRANCH   1   9
ATOM      2  O   UNL     1      36.656 -20.123 -20.853  0.00  0.00    -0.457 OA
ATOM      3  C   UNL     1      34.472 -19.545 -20.893  0.00  0.00    +0.042 A 
ATOM      4  C   UNL     1      35.403 -20.481 -20.454  0.00  0.00    +0.148 A 
ATOM      5  C   UNL     1      35.216 -18.564 -21.598  0.00  0.00    +0.087 A 
ATOM      6  C   UNL     1      36.532 -18.960 -21.544  0.00  0.00    +0.128 A 
ATOM      7  C   UNL     1      33.118 -19.748 -20.577  0.00  0.00    +0.006 C 
ATOM      8  C   UNL     1      35.081 -21.618 -19.714  0.00  0.00    +0.075 C 
ATOM      9  C   UNL     1      33.728 -21.799 -19.411  0.00  0.00    +0.150 C 
ATOM     10  C   UNL     1      32.762 -20.882 -19.833  0.00  0.00    +0.038 C 
ATOM     11  C   UNL     1      37.781 -18.391 -22.072  0.00  0.00    +0.073 C 
BRANCH   5  14
ATOM     12  O   UNL     1      34.362 -16.380 -21.595  0.00  0.00    -0.270 OA
ATOM     13  N   UNL     1      34.722 -17.369 -23.661  0.00  0.00    -0.299 N 
ATOM     14  C   UNL     1      34.737 -17.380 -22.251  0.00  0.00    +0.249 C 
ATOM     15  C   UNL     1      34.291 -16.247 -24.462  0.00  0.00    +0.111 C 
ATOM     16  H   UNL     1      35.026 -18.180 -24.129  0.00  0.00    +0.150 HD
ENDBRANCH   5  14
ENDBRANCH   1   9
BRANCH   1  20
ATOM     17  N   UNL     1      35.186 -23.013 -17.311  0.00  0.00    -0.214 NA
ATOM     18  N   UNL     1      34.935 -23.261 -14.928  0.00  0.00    -0.248 NA
ATOM     19  C   UNL     1      32.985 -23.151 -16.321  0.00  0.00    +0.141 C 
ATOM     20  C   UNL     1      33.843 -23.025 -17.409  0.00  0.00    +0.212 C 
ATOM     21  C   UNL     1      33.597 -23.270 -15.062  0.00  0.00    +0.072 C 
ATOM     22  C   UNL     1      31.585 -23.161 -16.449  0.00  0.00    +0.029 C 
ATOM     23  C   UNL     1      30.785 -23.291 -15.319  0.00  0.00    +0.169 C 
ATOM     24  C   UNL     1      32.771 -23.398 -13.948  0.00  0.00    +0.055 C 
ATOM     25  C   UNL     1      31.378 -23.410 -14.067  0.00  0.00    +0.173 C 
ATOM     26  C   UNL     1      35.656 -23.133 -16.059  0.00  0.00    +0.253 C 
BRANCH  23  27
ATOM     27  O   UNL     1      29.430 -23.301 -15.451  0.00  0.00    -0.469 OA
ATOM     28  C   UNL     1      28.853 -24.412 -16.136  0.00  0.00    +0.253 C 
ENDBRANCH  23  27
BRANCH  25  29
ATOM     29  O   UNL     1      30.612 -23.536 -12.947  0.00  0.00    -0.468 OA
ATOM     30  C   UNL     1      30.165 -24.849 -12.614  0.00  0.00    +0.253 C 
ENDBRANCH  25  29
ENDBRANCH   1  20
TORSDOF 5
ENDMDL
MODEL 8
REMARK VINA RESULT:     -10.1      7.068     11.815
REMARK  Name = 44480399
REMARK  5 active torsions:
REMARK  status: ('A' for Active; 'I' for Inactive)
REMARK    1  A    between atoms: O_1  and  C_9
REMARK    2  A    between atoms: O_1  and  C_20
REMARK    3  A    between atoms: C_5  and  C_14
REMARK    4  A    between atoms: C_23  and  O_27
REMARK    5  A    between atoms: C_25  and  O_29
REMARK                            x       y       z     vdW  Elec       q    Type
REMARK                         _______ _______ _______ _____ _____    ______ ____
ROOT
ATOM      1  O   UNL     1      32.962 -13.384 -22.887  0.00  0.00    -0.439 OA
ENDROOT
BRANCH   1   9
ATOM      2  O   UNL     1      34.423  -8.987 -24.295  0.00  0.00    -0.457 OA
ATOM      3  C   UNL     1      32.427  -9.258 -23.271  0.00  0.00    +0.042 A 
ATOM      4  C   UNL     1      33.574  -9.895 -23.735  0.00  0.00    +0.148 A 
ATOM      5  C   UNL     1      32.601  -7.882 -23.572  0.00  0.00    +0.087 A 
ATOM      6  C   UNL     1      33.825  -7.771 -24.190  0.00  0.00    +0.128 A 
ATOM      7  C   UNL     1      31.429 -10.036 -22.660  0.00  0.00    +0.006 C 
ATOM      8  C   UNL     1      33.803 -11.266 -23.633  0.00  0.00    +0.075 C 
ATOM      9  C   UNL     1      32.797 -12.020 -23.021  0.00  0.00    +0.150 C 
ATOM     10  C   UNL     1      31.630 -11.419 -22.542  0.00  0.00    +0.038 C 
ATOM     11  C   UNL     1      34.580  -6.636 -24.740  0.00  0.00    +0.073 C 
BRANCH   5  14
ATOM     12  O   UNL     1      31.132  -6.178 -24.233  0.00  0.00    -0.270 OA
ATOM     13  N   UNL     1      31.486  -6.442 -21.957  0.00  0.00    -0.299 N 
ATOM     14  C   UNL     1      31.710  -6.791 -23.304  0.00  0.00    +0.249 C 
ATOM     15  C   UNL     1      30.602  -5.384 -21.526  0.00  0.00    +0.111 C 
ATOM     16  H   UNL     1      31.965  -6.953 -21.265  0.00  0.00    +0.150 HD
ENDBRANCH   5  14
ENDBRANCH   1   9
BRANCH   1  20
ATOM     17  N   UNL     1      32.728 -13.533 -25.170  0.00  0.00    -0.214 NA
ATOM     18  N   UNL     1      33.515 -15.475 -26.361  0.00  0.00    -0.248 NA
ATOM     19  C   UNL     1      33.777 -15.357 -23.979  0.00  0.00    +0.141 C 
ATOM     20  C   UNL     1      33.162 -14.110 -24.033  0.00  0.00    +0.212 C 
ATOM     21  C   UNL     1      33.936 -16.022 -25.207  0.00  0.00    +0.072 C 
ATOM     22  C   UNL     1      34.222 -15.939 -22.779  0.00  0.00    +0.029 C 
ATOM     23  C   UNL     1      34.829 -17.190 -22.796  0.00  0.00    +0.169 C 
ATOM     24  C   UNL     1      34.548 -17.273 -25.194  0.00  0.00    +0.055 C 
ATOM     25  C   UNL     1      34.992 -17.858 -24.005  0.00  0.00    +0.173 C 
ATOM     26  C   UNL     1      32.934 -14.261 -26.280  0.00  0.00    +0.253 C 
BRANCH  23  27
ATOM     27  O   UNL     1      35.256 -17.747 -21.630  0.00  0.00    -0.469 OA
ATOM     28  C   UNL     1      34.418 -18.741 -21.041  0.00  0.00    +0.253 C 
ENDBRANCH  23  27
BRANCH  25  29
ATOM     29  O   UNL     1      35.585 -19.084 -24.044  0.00  0.00    -0.468 OA
ATOM     30  C   UNL     1      34.938 -20.091 -24.818  0.00  0.00    +0.253 C 
ENDBRANCH  25  29
ENDBRANCH   1  20
TORSDOF 5
ENDMDL
MODEL 9
REMARK VINA RESULT:     -10.0      2.210      2.887
REMARK  Name = 44480399
REMARK  5 active torsions:
REMARK  status: ('A' for Active; 'I' for Inactive)
REMARK    1  A    between atoms: O_1  and  C_9
REMARK    2  A    between atoms: O_1  and  C_20
REMARK    3  A    between atoms: C_5  and  C_14
REMARK    4  A    between atoms: C_23  and  O_27
REMARK    5  A    between atoms: C_25  and  O_29
REMARK                            x       y       z     vdW  Elec       q    Type
REMARK                         _______ _______ _______ _____ _____    ______ ____
ROOT
ATOM      1  O   UNL     1      34.524 -22.882 -17.477  0.00  0.00    -0.439 OA
ENDROOT
BRANCH   1   9
ATOM      2  O   UNL     1      37.144 -20.057 -20.410  0.00  0.00    -0.457 OA
ATOM      3  C   UNL     1      34.897 -20.157 -20.622  0.00  0.00    +0.042 A 
ATOM      4  C   UNL     1      36.004 -20.618 -19.917  0.00  0.00    +0.148 A 
ATOM      5  C   UNL     1      35.407 -19.261 -21.598  0.00  0.00    +0.087 A 
ATOM      6  C   UNL     1      36.772 -19.236 -21.426  0.00  0.00    +0.128 A 
ATOM      7  C   UNL     1      33.625 -20.629 -20.256  0.00  0.00    +0.006 C 
ATOM      8  C   UNL     1      35.937 -21.526 -18.862  0.00  0.00    +0.075 C 
ATOM      9  C   UNL     1      34.661 -21.982 -18.515  0.00  0.00    +0.150 C 
ATOM     10  C   UNL     1      33.524 -21.543 -19.198  0.00  0.00    +0.038 C 
ATOM     11  C   UNL     1      37.862 -18.521 -22.106  0.00  0.00    +0.073 C 
BRANCH   5  14
ATOM     12  O   UNL     1      34.039 -17.482 -22.276  0.00  0.00    -0.270 OA
ATOM     13  N   UNL     1      34.745 -18.956 -23.920  0.00  0.00    -0.299 N 
ATOM     14  C   UNL     1      34.685 -18.511 -22.584  0.00  0.00    +0.249 C 
ATOM     15  C   UNL     1      34.093 -18.296 -25.028  0.00  0.00    +0.111 C 
ATOM     16  H   UNL     1      35.266 -19.770 -24.110  0.00  0.00    +0.150 HD
ENDBRANCH   5  14
ENDBRANCH   1   9
BRANCH   1  20
ATOM     17  N   UNL     1      36.751 -22.552 -17.005  0.00  0.00    -0.214 NA
ATOM     18  N   UNL     1      37.627 -23.037 -14.813  0.00  0.00    -0.248 NA
ATOM     19  C   UNL     1      35.299 -23.395 -15.266  0.00  0.00    +0.141 C 
ATOM     20  C   UNL     1      35.543 -22.946 -16.560  0.00  0.00    +0.212 C 
ATOM     21  C   UNL     1      36.407 -23.424 -14.403  0.00  0.00    +0.072 C 
ATOM     22  C   UNL     1      34.027 -23.801 -14.825  0.00  0.00    +0.029 C 
ATOM     23  C   UNL     1      33.852 -24.240 -13.517  0.00  0.00    +0.169 C 
ATOM     24  C   UNL     1      36.202 -23.867 -13.098  0.00  0.00    +0.055 C 
ATOM     25  C   UNL     1      34.941 -24.274 -12.652  0.00  0.00    +0.173 C 
ATOM     26  C   UNL     1      37.733 -22.623 -16.092  0.00  0.00    +0.253 C 
BRANCH  23  27
ATOM     27  O   UNL     1      32.618 -24.633 -13.097  0.00  0.00    -0.469 OA
ATOM     28  C   UNL     1      31.718 -25.116 -14.094  0.00  0.00    +0.253 C 
ENDBRANCH  23  27
BRANCH  25  29
ATOM     29  O   UNL     1      34.791 -24.698 -11.366  0.00  0.00    -0.468 OA
ATOM     30  C   UNL     1      35.824 -24.352 -10.446  0.00  0.00    +0.253 C 
ENDBRANCH  25  29
ENDBRANCH   1  20
TORSDOF 5
ENDMDL
