MODEL 1
REMARK VINA RESULT:      -8.3      0.000      0.000
REMARK  Name = 448002
REMARK  8 active torsions:
REMARK  status: ('A' for Active; 'I' for Inactive)
REMARK    1  A    between atoms: N_1  and  S_2
REMARK    2  A    between atoms: N_1  and  C_13
REMARK    3  A    between atoms: N_1  and  C_17
REMARK    4  A    between atoms: S_2  and  C_5
REMARK    5  A    between atoms: C_10  and  O_11
REMARK    6  A    between atoms: C_13  and  C_14
REMARK    7  A    between atoms: C_17  and  C_20
REMARK    8  A    between atoms: N_19  and  O_22
REMARK                            x       y       z     vdW  Elec       q    Type
REMARK                         _______ _______ _______ _____ _____    ______ ____
ROOT
ATOM      1  N   UNL     1      34.709 -17.048 -22.643  0.00  0.00    -0.146 NA
ENDROOT
BRANCH   1   2
ATOM      2  S   UNL     1      35.610 -18.521 -22.681  0.00  0.00    +0.064 S 
ATOM      3  O   UNL     1      36.937 -18.288 -22.142  0.00  0.00    -0.153 OA
ATOM      4  O   UNL     1      35.468 -19.144 -23.985  0.00  0.00    -0.153 OA
BRANCH   2   5
ATOM      5  C   UNL     1      34.740 -19.535 -21.518  0.00  0.00    +0.122 C 
ATOM      6  C   UNL     1      35.461 -20.349 -20.665  0.00  0.00    +0.023 C 
ATOM      7  C   UNL     1      33.359 -19.489 -21.487  0.00  0.00    +0.023 C 
ATOM      8  C   UNL     1      34.776 -21.147 -19.747  0.00  0.00    +0.038 C 
ATOM      9  C   UNL     1      32.674 -20.287 -20.570  0.00  0.00    +0.038 C 
ATOM     10  C   UNL     1      33.382 -21.116 -19.700  0.00  0.00    +0.139 C 
BRANCH  10  11
ATOM     11  O   UNL     1      32.714 -21.895 -18.807  0.00  0.00    -0.471 OA
ATOM     12  C   UNL     1      33.483 -22.842 -18.068  0.00  0.00    +0.252 C 
ENDBRANCH  10  11
ENDBRANCH   2   5
ENDBRANCH   1   2
BRANCH   1  13
ATOM     13  C   UNL     1      34.381 -16.470 -21.321  0.00  0.00    +0.096 C 
BRANCH  13  14
ATOM     14  C   UNL     1      33.109 -15.615 -21.373  0.00  0.00    +0.018 C 
ATOM     15  C   UNL     1      33.372 -14.168 -20.955  0.00  0.00    +0.001 C 
ATOM     16  C   UNL     1      31.972 -16.216 -20.545  0.00  0.00    +0.001 C 
ENDBRANCH  13  14
ENDBRANCH   1  13
BRANCH   1  17
ATOM     17  C   UNL     1      35.058 -16.003 -23.641  0.00  0.00    +0.182 C 
BRANCH  17  20
ATOM     18  O   UNL     1      33.898 -17.057 -25.471  0.00  0.00    -0.271 OA
ATOM     19  N   UNL     1      33.391 -14.872 -24.922  0.00  0.00    -0.196 N 
ATOM     20  C   UNL     1      34.063 -16.060 -24.771  0.00  0.00    +0.262 C 
ATOM     21  H   UNL     1      33.558 -14.099 -24.336  0.00  0.00    +0.182 HD
BRANCH  19  22
ATOM     22  O   UNL     1      32.453 -14.826 -25.961  0.00  0.00    -0.295 OA
ATOM     23  H   UNL     1      31.567 -15.004 -25.606  0.00  0.00    +0.241 HD
ENDBRANCH  19  22
ENDBRANCH  17  20
ENDBRANCH   1  17
TORSDOF 8
ENDMDL
MODEL 2
REMARK VINA RESULT:      -7.8      1.938      3.009
REMARK  Name = 448002
REMARK  8 active torsions:
REMARK  status: ('A' for Active; 'I' for Inactive)
REMARK    1  A    between atoms: N_1  and  S_2
REMARK    2  A    between atoms: N_1  and  C_13
REMARK    3  A    between atoms: N_1  and  C_17
REMARK    4  A    between atoms: S_2  and  C_5
REMARK    5  A    between atoms: C_10  and  O_11
REMARK    6  A    between atoms: C_13  and  C_14
REMARK    7  A    between atoms: C_17  and  C_20
REMARK    8  A    between atoms: N_19  and  O_22
REMARK                            x       y       z     vdW  Elec       q    Type
REMARK                         _______ _______ _______ _____ _____    ______ ____
ROOT
ATOM      1  N   UNL     1      34.988 -16.999 -22.042  0.00  0.00    -0.146 NA
ENDROOT
BRANCH   1   2
ATOM      2  S   UNL     1      35.728 -18.528 -22.355  0.00  0.00    +0.064 S 
ATOM      3  O   UNL     1      37.111 -18.492 -21.915  0.00  0.00    -0.153 OA
ATOM      4  O   UNL     1      35.421 -18.948 -23.710  0.00  0.00    -0.153 OA
BRANCH   2   5
ATOM      5  C   UNL     1      34.854 -19.611 -21.259  0.00  0.00    +0.122 C 
ATOM      6  C   UNL     1      33.472 -19.604 -21.268  0.00  0.00    +0.023 C 
ATOM      7  C   UNL     1      35.573 -20.441 -20.420  0.00  0.00    +0.023 C 
ATOM      8  C   UNL     1      32.784 -20.458 -20.405  0.00  0.00    +0.038 C 
ATOM      9  C   UNL     1      34.886 -21.295 -19.557  0.00  0.00    +0.038 C 
ATOM     10  C   UNL     1      33.491 -21.304 -19.550  0.00  0.00    +0.139 C 
BRANCH  10  11
ATOM     11  O   UNL     1      32.820 -22.136 -18.708  0.00  0.00    -0.471 OA
ATOM     12  C   UNL     1      33.597 -23.082 -17.975  0.00  0.00    +0.252 C 
ENDBRANCH  10  11
ENDBRANCH   2   5
ENDBRANCH   1   2
BRANCH   1  13
ATOM     13  C   UNL     1      33.899 -16.559 -22.942  0.00  0.00    +0.096 C 
BRANCH  13  14
ATOM     14  C   UNL     1      34.419 -15.647 -24.061  0.00  0.00    +0.018 C 
ATOM     15  C   UNL     1      33.837 -14.235 -23.967  0.00  0.00    +0.001 C 
ATOM     16  C   UNL     1      34.176 -16.238 -25.451  0.00  0.00    +0.001 C 
ENDBRANCH  13  14
ENDBRANCH   1  13
BRANCH   1  17
ATOM     17  C   UNL     1      34.723 -16.641 -20.624  0.00  0.00    +0.182 C 
BRANCH  17  20
ATOM     18  O   UNL     1      35.160 -14.272 -20.636  0.00  0.00    -0.271 OA
ATOM     19  N   UNL     1      32.990 -15.017 -20.375  0.00  0.00    -0.196 N 
ATOM     20  C   UNL     1      34.342 -15.185 -20.554  0.00  0.00    +0.262 C 
ATOM     21  H   UNL     1      32.373 -15.781 -20.314  0.00  0.00    +0.182 HD
BRANCH  19  22
ATOM     22  O   UNL     1      32.544 -13.692 -20.283  0.00  0.00    -0.295 OA
ATOM     23  H   UNL     1      32.327 -13.362 -21.169  0.00  0.00    +0.241 HD
ENDBRANCH  19  22
ENDBRANCH  17  20
ENDBRANCH   1  17
TORSDOF 8
ENDMDL
MODEL 3
REMARK VINA RESULT:      -7.8      2.383      3.280
REMARK  Name = 448002
REMARK  8 active torsions:
REMARK  status: ('A' for Active; 'I' for Inactive)
REMARK    1  A    between atoms: N_1  and  S_2
REMARK    2  A    between atoms: N_1  and  C_13
REMARK    3  A    between atoms: N_1  and  C_17
REMARK    4  A    between atoms: S_2  and  C_5
REMARK    5  A    between atoms: C_10  and  O_11
REMARK    6  A    between atoms: C_13  and  C_14
REMARK    7  A    between atoms: C_17  and  C_20
REMARK    8  A    between atoms: N_19  and  O_22
REMARK                            x       y       z     vdW  Elec       q    Type
REMARK                         _______ _______ _______ _____ _____    ______ ____
ROOT
ATOM      1  N   UNL     1      33.699 -15.698 -22.931  0.00  0.00    -0.146 NA
ENDROOT
BRANCH   1   2
ATOM      2  S   UNL     1      33.769 -15.865 -21.214  0.00  0.00    +0.064 S 
ATOM      3  O   UNL     1      32.427 -15.776 -20.666  0.00  0.00    -0.153 OA
ATOM      4  O   UNL     1      34.813 -15.007 -20.684  0.00  0.00    -0.153 OA
BRANCH   2   5
ATOM      5  C   UNL     1      34.311 -17.539 -21.010  0.00  0.00    +0.122 C 
ATOM      6  C   UNL     1      33.367 -18.543 -20.906  0.00  0.00    +0.023 C 
ATOM      7  C   UNL     1      35.666 -17.805 -20.962  0.00  0.00    +0.023 C 
ATOM      8  C   UNL     1      33.793 -19.862 -20.747  0.00  0.00    +0.038 C 
ATOM      9  C   UNL     1      36.093 -19.124 -20.803  0.00  0.00    +0.038 C 
ATOM     10  C   UNL     1      35.157 -20.152 -20.695  0.00  0.00    +0.139 C 
BRANCH  10  11
ATOM     11  O   UNL     1      35.574 -21.438 -20.539  0.00  0.00    -0.471 OA
ATOM     12  C   UNL     1      35.254 -22.079 -19.305  0.00  0.00    +0.252 C 
ENDBRANCH  10  11
ENDBRANCH   2   5
ENDBRANCH   1   2
BRANCH   1  13
ATOM     13  C   UNL     1      32.848 -14.624 -23.489  0.00  0.00    +0.096 C 
BRANCH  13  14
ATOM     14  C   UNL     1      33.271 -13.240 -22.979  0.00  0.00    +0.018 C 
ATOM     15  C   UNL     1      32.153 -12.550 -22.196  0.00  0.00    +0.001 C 
ATOM     16  C   UNL     1      33.777 -12.337 -24.105  0.00  0.00    +0.001 C 
ENDBRANCH  13  14
ENDBRANCH   1  13
BRANCH   1  17
ATOM     17  C   UNL     1      34.967 -15.862 -23.690  0.00  0.00    +0.182 C 
BRANCH  17  20
ATOM     18  O   UNL     1      34.627 -16.584 -25.963  0.00  0.00    -0.271 OA
ATOM     19  N   UNL     1      34.705 -18.161 -24.278  0.00  0.00    -0.196 N 
ATOM     20  C   UNL     1      34.753 -16.882 -24.778  0.00  0.00    +0.262 C 
ATOM     21  H   UNL     1      34.811 -18.351 -23.318  0.00  0.00    +0.182 HD
BRANCH  19  22
ATOM     22  O   UNL     1      34.494 -19.178 -25.218  0.00  0.00    -0.295 OA
ATOM     23  H   UNL     1      33.549 -19.231 -25.431  0.00  0.00    +0.241 HD
ENDBRANCH  19  22
ENDBRANCH  17  20
ENDBRANCH   1  17
TORSDOF 8
ENDMDL
MODEL 4
REMARK VINA RESULT:      -7.7      6.204     10.544
REMARK  Name = 448002
REMARK  8 active torsions:
REMARK  status: ('A' for Active; 'I' for Inactive)
REMARK    1  A    between atoms: N_1  and  S_2
REMARK    2  A    between atoms: N_1  and  C_13
REMARK    3  A    between atoms: N_1  and  C_17
REMARK    4  A    between atoms: S_2  and  C_5
REMARK    5  A    between atoms: C_10  and  O_11
REMARK    6  A    between atoms: C_13  and  C_14
REMARK    7  A    between atoms: C_17  and  C_20
REMARK    8  A    between atoms: N_19  and  O_22
REMARK                            x       y       z     vdW  Elec       q    Type
REMARK                         _______ _______ _______ _____ _____    ______ ____
ROOT
ATOM      1  N   UNL     1      35.099 -23.614 -14.129  0.00  0.00    -0.146 NA
ENDROOT
BRANCH   1   2
ATOM      2  S   UNL     1      36.478 -23.758 -15.159  0.00  0.00    +0.064 S 
ATOM      3  O   UNL     1      36.675 -25.153 -15.507  0.00  0.00    -0.153 OA
ATOM      4  O   UNL     1      37.582 -22.999 -14.601  0.00  0.00    -0.153 OA
BRANCH   2   5
ATOM      5  C   UNL     1      35.952 -22.918 -16.627  0.00  0.00    +0.122 C 
ATOM      6  C   UNL     1      36.846 -22.096 -17.288  0.00  0.00    +0.023 C 
ATOM      7  C   UNL     1      34.661 -23.104 -17.082  0.00  0.00    +0.023 C 
ATOM      8  C   UNL     1      36.433 -21.435 -18.445  0.00  0.00    +0.038 C 
ATOM      9  C   UNL     1      34.247 -22.443 -18.239  0.00  0.00    +0.038 C 
ATOM     10  C   UNL     1      35.133 -21.609 -18.921  0.00  0.00    +0.139 C 
BRANCH  10  11
ATOM     11  O   UNL     1      34.729 -20.964 -20.049  0.00  0.00    -0.471 OA
ATOM     12  C   UNL     1      33.343 -20.642 -20.152  0.00  0.00    +0.252 C 
ENDBRANCH  10  11
ENDBRANCH   2   5
ENDBRANCH   1   2
BRANCH   1  13
ATOM     13  C   UNL     1      33.965 -24.537 -14.355  0.00  0.00    +0.096 C 
BRANCH  13  14
ATOM     14  C   UNL     1      32.650 -23.968 -13.810  0.00  0.00    +0.018 C 
ATOM     15  C   UNL     1      31.613 -25.062 -13.553  0.00  0.00    +0.001 C 
ATOM     16  C   UNL     1      32.070 -22.879 -14.715  0.00  0.00    +0.001 C 
ENDBRANCH  13  14
ENDBRANCH   1  13
BRANCH   1  17
ATOM     17  C   UNL     1      35.343 -23.369 -12.683  0.00  0.00    +0.182 C 
BRANCH  17  20
ATOM     18  O   UNL     1      34.925 -25.097 -11.058  0.00  0.00    -0.271 OA
ATOM     19  N   UNL     1      36.662 -25.355 -12.559  0.00  0.00    -0.196 N 
ATOM     20  C   UNL     1      35.596 -24.689 -12.003  0.00  0.00    +0.262 C 
ATOM     21  H   UNL     1      37.170 -24.987 -13.317  0.00  0.00    +0.182 HD
BRANCH  19  22
ATOM     22  O   UNL     1      36.981 -26.590 -11.979  0.00  0.00    -0.295 OA
ATOM     23  H   UNL     1      37.914 -26.795 -12.147  0.00  0.00    +0.241 HD
ENDBRANCH  19  22
ENDBRANCH  17  20
ENDBRANCH   1  17
TORSDOF 8
ENDMDL
MODEL 5
REMARK VINA RESULT:      -7.6      7.228      9.650
REMARK  Name = 448002
REMARK  8 active torsions:
REMARK  status: ('A' for Active; 'I' for Inactive)
REMARK    1  A    between atoms: N_1  and  S_2
REMARK    2  A    between atoms: N_1  and  C_13
REMARK    3  A    between atoms: N_1  and  C_17
REMARK    4  A    between atoms: S_2  and  C_5
REMARK    5  A    between atoms: C_10  and  O_11
REMARK    6  A    between atoms: C_13  and  C_14
REMARK    7  A    between atoms: C_17  and  C_20
REMARK    8  A    between atoms: N_19  and  O_22
REMARK                            x       y       z     vdW  Elec       q    Type
REMARK                         _______ _______ _______ _____ _____    ______ ____
ROOT
ATOM      1  N   UNL     1      33.265 -23.468 -15.191  0.00  0.00    -0.146 NA
ENDROOT
BRANCH   1   2
ATOM      2  S   UNL     1      31.980 -24.045 -14.193  0.00  0.00    +0.064 S 
ATOM      3  O   UNL     1      31.836 -23.173 -13.041  0.00  0.00    -0.153 OA
ATOM      4  O   UNL     1      32.126 -25.475 -13.991  0.00  0.00    -0.153 OA
BRANCH   2   5
ATOM      5  C   UNL     1      30.556 -23.803 -15.218  0.00  0.00    +0.122 C 
ATOM      6  C   UNL     1      29.874 -24.907 -15.693  0.00  0.00    +0.023 C 
ATOM      7  C   UNL     1      30.155 -22.514 -15.517  0.00  0.00    +0.023 C 
ATOM      8  C   UNL     1      28.751 -24.716 -16.500  0.00  0.00    +0.038 C 
ATOM      9  C   UNL     1      29.033 -22.323 -16.324  0.00  0.00    +0.038 C 
ATOM     10  C   UNL     1      28.331 -23.424 -16.815  0.00  0.00    +0.139 C 
BRANCH  10  11
ATOM     11  O   UNL     1      27.237 -23.237 -17.602  0.00  0.00    -0.471 OA
ATOM     12  C   UNL     1      26.670 -21.928 -17.627  0.00  0.00    +0.252 C 
ENDBRANCH  10  11
ENDBRANCH   2   5
ENDBRANCH   1   2
BRANCH   1  13
ATOM     13  C   UNL     1      34.546 -23.117 -14.539  0.00  0.00    +0.096 C 
BRANCH  13  14
ATOM     14  C   UNL     1      35.408 -24.358 -14.275  0.00  0.00    +0.018 C 
ATOM     15  C   UNL     1      35.597 -24.618 -12.779  0.00  0.00    +0.001 C 
ATOM     16  C   UNL     1      36.762 -24.284 -14.983  0.00  0.00    +0.001 C 
ENDBRANCH  13  14
ENDBRANCH   1  13
BRANCH   1  17
ATOM     17  C   UNL     1      33.468 -24.136 -16.504  0.00  0.00    +0.182 C 
BRANCH  17  20
ATOM     18  O   UNL     1      34.843 -22.662 -17.824  0.00  0.00    -0.271 OA
ATOM     19  N   UNL     1      32.555 -22.652 -18.136  0.00  0.00    -0.196 N 
ATOM     20  C   UNL     1      33.721 -23.082 -17.551  0.00  0.00    +0.262 C 
ATOM     21  H   UNL     1      31.677 -23.018 -17.883  0.00  0.00    +0.182 HD
BRANCH  19  22
ATOM     22  O   UNL     1      32.691 -21.658 -19.114  0.00  0.00    -0.295 OA
ATOM     23  H   UNL     1      33.563 -21.733 -19.532  0.00  0.00    +0.241 HD
ENDBRANCH  19  22
ENDBRANCH  17  20
ENDBRANCH   1  17
TORSDOF 8
ENDMDL
MODEL 6
REMARK VINA RESULT:      -7.5      9.107     11.608
REMARK  Name = 448002
REMARK  8 active torsions:
REMARK  status: ('A' for Active; 'I' for Inactive)
REMARK    1  A    between atoms: N_1  and  S_2
REMARK    2  A    between atoms: N_1  and  C_13
REMARK    3  A    between atoms: N_1  and  C_17
REMARK    4  A    between atoms: S_2  and  C_5
REMARK    5  A    between atoms: C_10  and  O_11
REMARK    6  A    between atoms: C_13  and  C_14
REMARK    7  A    between atoms: C_17  and  C_20
REMARK    8  A    between atoms: N_19  and  O_22
REMARK                            x       y       z     vdW  Elec       q    Type
REMARK                         _______ _______ _______ _____ _____    ______ ____
ROOT
ATOM      1  N   UNL     1      36.148 -24.609 -13.660  0.00  0.00    -0.146 NA
ENDROOT
BRANCH   1   2
ATOM      2  S   UNL     1      35.567 -24.644 -15.286  0.00  0.00    +0.064 S 
ATOM      3  O   UNL     1      35.582 -26.011 -15.773  0.00  0.00    -0.153 OA
ATOM      4  O   UNL     1      36.223 -23.605 -16.058  0.00  0.00    -0.153 OA
BRANCH   2   5
ATOM      5  C   UNL     1      33.871 -24.169 -15.099  0.00  0.00    +0.122 C 
ATOM      6  C   UNL     1      33.265 -23.436 -16.102  0.00  0.00    +0.023 C 
ATOM      7  C   UNL     1      33.190 -24.545 -13.957  0.00  0.00    +0.023 C 
ATOM      8  C   UNL     1      31.928 -23.063 -15.956  0.00  0.00    +0.038 C 
ATOM      9  C   UNL     1      31.853 -24.172 -13.811  0.00  0.00    +0.038 C 
ATOM     10  C   UNL     1      31.222 -23.431 -14.810  0.00  0.00    +0.139 C 
BRANCH  10  11
ATOM     11  O   UNL     1      29.919 -23.066 -14.667  0.00  0.00    -0.471 OA
ATOM     12  C   UNL     1      28.952 -23.807 -15.410  0.00  0.00    +0.252 C 
ENDBRANCH  10  11
ENDBRANCH   2   5
ENDBRANCH   1   2
BRANCH   1  13
ATOM     13  C   UNL     1      37.221 -25.558 -13.286  0.00  0.00    +0.096 C 
BRANCH  13  14
ATOM     14  C   UNL     1      38.522 -25.274 -14.047  0.00  0.00    +0.018 C 
ATOM     15  C   UNL     1      38.943 -26.454 -14.925  0.00  0.00    +0.001 C 
ATOM     16  C   UNL     1      39.662 -24.866 -13.112  0.00  0.00    +0.001 C 
ENDBRANCH  13  14
ENDBRANCH   1  13
BRANCH   1  17
ATOM     17  C   UNL     1      36.331 -23.278 -13.024  0.00  0.00    +0.182 C 
BRANCH  17  20
ATOM     18  O   UNL     1      37.308 -22.956 -10.845  0.00  0.00    -0.271 OA
ATOM     19  N   UNL     1      35.416 -24.264 -11.051  0.00  0.00    -0.196 N 
ATOM     20  C   UNL     1      36.423 -23.462 -11.531  0.00  0.00    +0.262 C 
ATOM     21  H   UNL     1      34.728 -24.648 -11.641  0.00  0.00    +0.182 HD
BRANCH  19  22
ATOM     22  O   UNL     1      35.430 -24.504  -9.671  0.00  0.00    -0.295 OA
ATOM     23  H   UNL     1      36.197 -24.064  -9.273  0.00  0.00    +0.241 HD
ENDBRANCH  19  22
ENDBRANCH  17  20
ENDBRANCH   1  17
TORSDOF 8
ENDMDL
MODEL 7
REMARK VINA RESULT:      -7.5      8.598     10.670
REMARK  Name = 448002
REMARK  8 active torsions:
REMARK  status: ('A' for Active; 'I' for Inactive)
REMARK    1  A    between atoms: N_1  and  S_2
REMARK    2  A    between atoms: N_1  and  C_13
REMARK    3  A    between atoms: N_1  and  C_17
REMARK    4  A    between atoms: S_2  and  C_5
REMARK    5  A    between atoms: C_10  and  O_11
REMARK    6  A    between atoms: C_13  and  C_14
REMARK    7  A    between atoms: C_17  and  C_20
REMARK    8  A    between atoms: N_19  and  O_22
REMARK                            x       y       z     vdW  Elec       q    Type
REMARK                         _______ _______ _______ _____ _____    ______ ____
ROOT
ATOM      1  N   UNL     1      33.266 -24.204 -14.690  0.00  0.00    -0.146 NA
ENDROOT
BRANCH   1   2
ATOM      2  S   UNL     1      31.866 -24.146 -13.681  0.00  0.00    +0.064 S 
ATOM      3  O   UNL     1      31.924 -22.961 -12.844  0.00  0.00    -0.153 OA
ATOM      4  O   UNL     1      31.656 -25.444 -13.066  0.00  0.00    -0.153 OA
BRANCH   2   5
ATOM      5  C   UNL     1      30.558 -23.902 -14.850  0.00  0.00    +0.122 C 
ATOM      6  C   UNL     1      29.977 -25.003 -15.449  0.00  0.00    +0.023 C 
ATOM      7  C   UNL     1      30.144 -22.614 -15.136  0.00  0.00    +0.023 C 
ATOM      8  C   UNL     1      28.945 -24.812 -16.369  0.00  0.00    +0.038 C 
ATOM      9  C   UNL     1      29.113 -22.422 -16.056  0.00  0.00    +0.038 C 
ATOM     10  C   UNL     1      28.514 -23.520 -16.673  0.00  0.00    +0.139 C 
BRANCH  10  11
ATOM     11  O   UNL     1      27.508 -23.332 -17.571  0.00  0.00    -0.471 OA
ATOM     12  C   UNL     1      26.848 -22.068 -17.550  0.00  0.00    +0.252 C 
ENDBRANCH  10  11
ENDBRANCH   2   5
ENDBRANCH   1   2
BRANCH   1  13
ATOM     13  C   UNL     1      33.691 -22.954 -15.358  0.00  0.00    +0.096 C 
BRANCH  13  14
ATOM     14  C   UNL     1      34.157 -23.208 -16.797  0.00  0.00    +0.018 C 
ATOM     15  C   UNL     1      35.481 -22.507 -17.104  0.00  0.00    +0.001 C 
ATOM     16  C   UNL     1      33.093 -22.824 -17.827  0.00  0.00    +0.001 C 
ENDBRANCH  13  14
ENDBRANCH   1  13
BRANCH   1  17
ATOM     17  C   UNL     1      34.423 -25.007 -14.214  0.00  0.00    +0.182 C 
BRANCH  17  20
ATOM     18  O   UNL     1      34.634 -24.764 -11.826  0.00  0.00    -0.271 OA
ATOM     19  N   UNL     1      35.826 -23.354 -13.214  0.00  0.00    -0.196 N 
ATOM     20  C   UNL     1      34.958 -24.386 -12.950  0.00  0.00    +0.262 C 
ATOM     21  H   UNL     1      36.055 -23.087 -14.133  0.00  0.00    +0.182 HD
BRANCH  19  22
ATOM     22  O   UNL     1      36.364 -22.705 -12.095  0.00  0.00    -0.295 OA
ATOM     23  H   UNL     1      37.217 -23.108 -11.866  0.00  0.00    +0.241 HD
ENDBRANCH  19  22
ENDBRANCH  17  20
ENDBRANCH   1  17
TORSDOF 8
ENDMDL
MODEL 8
REMARK VINA RESULT:      -7.5      4.486      8.862
REMARK  Name = 448002
REMARK  8 active torsions:
REMARK  status: ('A' for Active; 'I' for Inactive)
REMARK    1  A    between atoms: N_1  and  S_2
REMARK    2  A    between atoms: N_1  and  C_13
REMARK    3  A    between atoms: N_1  and  C_17
REMARK    4  A    between atoms: S_2  and  C_5
REMARK    5  A    between atoms: C_10  and  O_11
REMARK    6  A    between atoms: C_13  and  C_14
REMARK    7  A    between atoms: C_17  and  C_20
REMARK    8  A    between atoms: N_19  and  O_22
REMARK                            x       y       z     vdW  Elec       q    Type
REMARK                         _______ _______ _______ _____ _____    ______ ____
ROOT
ATOM      1  N   UNL     1      34.239 -22.926 -16.525  0.00  0.00    -0.146 NA
ENDROOT
BRANCH   1   2
ATOM      2  S   UNL     1      33.381 -23.072 -18.016  0.00  0.00    +0.064 S 
ATOM      3  O   UNL     1      32.007 -22.645 -17.824  0.00  0.00    -0.153 OA
ATOM      4  O   UNL     1      33.648 -24.371 -18.606  0.00  0.00    -0.153 OA
BRANCH   2   5
ATOM      5  C   UNL     1      34.172 -21.859 -19.037  0.00  0.00    +0.122 C 
ATOM      6  C   UNL     1      33.391 -20.986 -19.770  0.00  0.00    +0.023 C 
ATOM      7  C   UNL     1      35.552 -21.811 -19.075  0.00  0.00    +0.023 C 
ATOM      8  C   UNL     1      34.014 -20.030 -20.574  0.00  0.00    +0.038 C 
ATOM      9  C   UNL     1      36.175 -20.855 -19.878  0.00  0.00    +0.038 C 
ATOM     10  C   UNL     1      35.406 -19.965 -20.628  0.00  0.00    +0.139 C 
BRANCH  10  11
ATOM     11  O   UNL     1      36.014 -19.033 -21.411  0.00  0.00    -0.471 OA
ATOM     12  C   UNL     1      35.442 -17.726 -21.430  0.00  0.00    +0.252 C 
ENDBRANCH  10  11
ENDBRANCH   2   5
ENDBRANCH   1   2
BRANCH   1  13
ATOM     13  C   UNL     1      33.451 -22.738 -15.287  0.00  0.00    +0.096 C 
BRANCH  13  14
ATOM     14  C   UNL     1      32.978 -24.076 -14.705  0.00  0.00    +0.018 C 
ATOM     15  C   UNL     1      31.454 -24.203 -14.719  0.00  0.00    +0.001 C 
ATOM     16  C   UNL     1      33.525 -24.322 -13.297  0.00  0.00    +0.001 C 
ENDBRANCH  13  14
ENDBRANCH   1  13
BRANCH   1  17
ATOM     17  C   UNL     1      35.409 -23.819 -16.315  0.00  0.00    +0.182 C 
BRANCH  17  20
ATOM     18  O   UNL     1      36.890 -21.963 -15.906  0.00  0.00    -0.271 OA
ATOM     19  N   UNL     1      36.898 -23.755 -14.450  0.00  0.00    -0.196 N 
ATOM     20  C   UNL     1      36.467 -23.062 -15.555  0.00  0.00    +0.262 C 
ATOM     21  H   UNL     1      36.529 -24.635 -14.208  0.00  0.00    +0.182 HD
BRANCH  19  22
ATOM     22  O   UNL     1      37.895 -23.133 -13.687  0.00  0.00    -0.295 OA
ATOM     23  H   UNL     1      38.546 -23.795 -13.404  0.00  0.00    +0.241 HD
ENDBRANCH  19  22
ENDBRANCH  17  20
ENDBRANCH   1  17
TORSDOF 8
ENDMDL
MODEL 9
REMARK VINA RESULT:      -7.4      6.792     11.155
REMARK  Name = 448002
REMARK  8 active torsions:
REMARK  status: ('A' for Active; 'I' for Inactive)
REMARK    1  A    between atoms: N_1  and  S_2
REMARK    2  A    between atoms: N_1  and  C_13
REMARK    3  A    between atoms: N_1  and  C_17
REMARK    4  A    between atoms: S_2  and  C_5
REMARK    5  A    between atoms: C_10  and  O_11
REMARK    6  A    between atoms: C_13  and  C_14
REMARK    7  A    between atoms: C_17  and  C_20
REMARK    8  A    between atoms: N_19  and  O_22
REMARK                            x       y       z     vdW  Elec       q    Type
REMARK                         _______ _______ _______ _____ _____    ______ ____
ROOT
ATOM      1  N   UNL     1      36.657 -24.165 -14.072  0.00  0.00    -0.146 NA
ENDROOT
BRANCH   1   2
ATOM      2  S   UNL     1      35.292 -24.679 -14.996  0.00  0.00    +0.064 S 
ATOM      3  O   UNL     1      34.080 -24.453 -14.230  0.00  0.00    -0.153 OA
ATOM      4  O   UNL     1      35.549 -25.995 -15.552  0.00  0.00    -0.153 OA
BRANCH   2   5
ATOM      5  C   UNL     1      35.284 -23.531 -16.344  0.00  0.00    +0.122 C 
ATOM      6  C   UNL     1      34.158 -23.436 -17.140  0.00  0.00    +0.023 C 
ATOM      7  C   UNL     1      36.404 -22.752 -16.571  0.00  0.00    +0.023 C 
ATOM      8  C   UNL     1      34.151 -22.530 -18.202  0.00  0.00    +0.038 C 
ATOM      9  C   UNL     1      36.397 -21.847 -17.632  0.00  0.00    +0.038 C 
ATOM     10  C   UNL     1      35.271 -21.736 -18.448  0.00  0.00    +0.139 C 
BRANCH  10  11
ATOM     11  O   UNL     1      35.266 -20.853 -19.484  0.00  0.00    -0.471 OA
ATOM     12  C   UNL     1      36.518 -20.577 -20.108  0.00  0.00    +0.252 C 
ENDBRANCH  10  11
ENDBRANCH   2   5
ENDBRANCH   1   2
BRANCH   1  13
ATOM     13  C   UNL     1      37.983 -24.177 -14.728  0.00  0.00    +0.096 C 
BRANCH  13  14
ATOM     14  C   UNL     1      38.756 -25.467 -14.426  0.00  0.00    +0.018 C 
ATOM     15  C   UNL     1      38.592 -25.906 -12.970  0.00  0.00    +0.001 C 
ATOM     16  C   UNL     1      40.238 -25.354 -14.791  0.00  0.00    +0.001 C 
ENDBRANCH  13  14
ENDBRANCH   1  13
BRANCH   1  17
ATOM     17  C   UNL     1      36.481 -22.986 -13.183  0.00  0.00    +0.182 C 
BRANCH  17  20
ATOM     18  O   UNL     1      37.245 -23.032 -10.899  0.00  0.00    -0.271 OA
ATOM     19  N   UNL     1      35.503 -24.408 -11.534  0.00  0.00    -0.196 N 
ATOM     20  C   UNL     1      36.468 -23.455 -11.751  0.00  0.00    +0.262 C 
ATOM     21  H   UNL     1      34.902 -24.716 -12.250  0.00  0.00    +0.182 HD
BRANCH  19  22
ATOM     22  O   UNL     1      35.426 -24.915 -10.230  0.00  0.00    -0.295 OA
ATOM     23  H   UNL     1      36.099 -24.488  -9.677  0.00  0.00    +0.241 HD
ENDBRANCH  19  22
ENDBRANCH  17  20
ENDBRANCH   1  17
TORSDOF 8
ENDMDL
