MODEL 1
REMARK VINA RESULT:      -6.9      0.000      0.000
REMARK  Name = 79639
REMARK  0 active torsions:
REMARK  status: ('A' for Active; 'I' for Inactive)
REMARK                            x       y       z     vdW  Elec       q    Type
REMARK                         _______ _______ _______ _____ _____    ______ ____
ROOT
ATOM      1  O   UNL     1      36.324 -26.967 -15.842  0.00  0.00    -0.208 OA
ATOM      2  N   UNL     1      36.878 -23.737 -12.728  0.00  0.00    -0.231 NA
ATOM      3  N   UNL     1      38.854 -25.020 -13.333  0.00  0.00    -0.279 N 
ATOM      4  N   UNL     1      35.426 -24.771 -14.092  0.00  0.00    -0.241 NA
ATOM      5  N   UNL     1      38.465 -26.712 -14.992  0.00  0.00    -0.301 NA
ATOM      6  N   UNL     1      40.597 -26.355 -14.053  0.00  0.00    -0.320 N 
ATOM      7  C   UNL     1      37.561 -24.689 -13.403  0.00  0.00    +0.189 C 
ATOM      8  C   UNL     1      36.672 -25.313 -14.229  0.00  0.00    +0.183 C 
ATOM      9  C   UNL     1      35.580 -23.825 -13.181  0.00  0.00    +0.203 C 
ATOM     10  C   UNL     1      37.378 -22.814 -11.740  0.00  0.00    +0.093 C 
ATOM     11  C   UNL     1      37.105 -26.393 -15.093  0.00  0.00    +0.224 C 
ATOM     12  C   UNL     1      39.262 -26.060 -14.166  0.00  0.00    +0.245 C 
ATOM     13  H   UNL     1      39.479 -24.558 -12.729  0.00  0.00    +0.152 HD
ATOM     14  H   UNL     1      41.162 -25.848 -13.426  0.00  0.00    +0.146 HD
ATOM     15  H   UNL     1      40.991 -27.074 -14.598  0.00  0.00    +0.146 HD
ENDROOT
TORSDOF 0
ENDMDL
MODEL 2
REMARK VINA RESULT:      -6.8      1.738      2.804
REMARK  Name = 79639
REMARK  0 active torsions:
REMARK  status: ('A' for Active; 'I' for Inactive)
REMARK                            x       y       z     vdW  Elec       q    Type
REMARK                         _______ _______ _______ _____ _____    ______ ____
ROOT
ATOM      1  O   UNL     1      40.538 -25.609 -14.020  0.00  0.00    -0.208 OA
ATOM      2  N   UNL     1      36.632 -24.060 -12.354  0.00  0.00    -0.231 NA
ATOM      3  N   UNL     1      36.482 -25.770 -14.078  0.00  0.00    -0.279 N 
ATOM      4  N   UNL     1      38.871 -23.921 -12.271  0.00  0.00    -0.241 NA
ATOM      5  N   UNL     1      38.604 -26.532 -14.903  0.00  0.00    -0.301 NA
ATOM      6  N   UNL     1      36.568 -27.392 -15.721  0.00  0.00    -0.320 N 
ATOM      7  C   UNL     1      37.128 -24.939 -13.255  0.00  0.00    +0.189 C 
ATOM      8  C   UNL     1      38.488 -24.848 -13.198  0.00  0.00    +0.183 C 
ATOM      9  C   UNL     1      37.732 -23.463 -11.779  0.00  0.00    +0.203 C 
ATOM     10  C   UNL     1      35.251 -23.788 -12.043  0.00  0.00    +0.093 C 
ATOM     11  C   UNL     1      39.315 -25.674 -14.055  0.00  0.00    +0.224 C 
ATOM     12  C   UNL     1      37.284 -26.560 -14.899  0.00  0.00    +0.245 C 
ATOM     13  H   UNL     1      35.499 -25.819 -14.104  0.00  0.00    +0.152 HD
ATOM     14  H   UNL     1      35.584 -27.387 -15.690  0.00  0.00    +0.146 HD
ATOM     15  H   UNL     1      37.037 -27.995 -16.341  0.00  0.00    +0.146 HD
ENDROOT
TORSDOF 0
ENDMDL
MODEL 3
REMARK VINA RESULT:      -6.7     13.399     14.043
REMARK  Name = 79639
REMARK  0 active torsions:
REMARK  status: ('A' for Active; 'I' for Inactive)
REMARK                            x       y       z     vdW  Elec       q    Type
REMARK                         _______ _______ _______ _____ _____    ______ ____
ROOT
ATOM      1  O   UNL     1      33.545 -15.466 -26.574  0.00  0.00    -0.208 OA
ATOM      2  N   UNL     1      34.237 -15.024 -22.129  0.00  0.00    -0.231 NA
ATOM      3  N   UNL     1      34.657 -17.221 -23.086  0.00  0.00    -0.279 N 
ATOM      4  N   UNL     1      33.612 -13.992 -24.022  0.00  0.00    -0.241 NA
ATOM      5  N   UNL     1      34.264 -17.361 -25.451  0.00  0.00    -0.301 NA
ATOM      6  N   UNL     1      34.996 -19.218 -24.197  0.00  0.00    -0.320 N 
ATOM      7  C   UNL     1      34.301 -15.934 -23.128  0.00  0.00    +0.189 C 
ATOM      8  C   UNL     1      33.920 -15.299 -24.274  0.00  0.00    +0.183 C 
ATOM      9  C   UNL     1      33.811 -13.856 -22.721  0.00  0.00    +0.203 C 
ATOM     10  C   UNL     1      34.543 -15.213 -20.733  0.00  0.00    +0.093 C 
ATOM     11  C   UNL     1      33.884 -16.016 -25.534  0.00  0.00    +0.224 C 
ATOM     12  C   UNL     1      34.620 -17.903 -24.300  0.00  0.00    +0.245 C 
ATOM     13  H   UNL     1      34.928 -17.660 -22.248  0.00  0.00    +0.152 HD
ATOM     14  H   UNL     1      35.256 -19.589 -23.323  0.00  0.00    +0.146 HD
ATOM     15  H   UNL     1      35.007 -19.792 -24.997  0.00  0.00    +0.146 HD
ENDROOT
TORSDOF 0
ENDMDL
MODEL 4
REMARK VINA RESULT:      -6.6      2.016      2.334
REMARK  Name = 79639
REMARK  0 active torsions:
REMARK  status: ('A' for Active; 'I' for Inactive)
REMARK                            x       y       z     vdW  Elec       q    Type
REMARK                         _______ _______ _______ _____ _____    ______ ____
ROOT
ATOM      1  O   UNL     1      36.818 -26.159 -11.911  0.00  0.00    -0.208 OA
ATOM      2  N   UNL     1      36.784 -23.205 -15.331  0.00  0.00    -0.231 NA
ATOM      3  N   UNL     1      38.759 -24.609 -15.122  0.00  0.00    -0.279 N 
ATOM      4  N   UNL     1      35.656 -24.017 -13.569  0.00  0.00    -0.241 NA
ATOM      5  N   UNL     1      38.688 -26.147 -13.278  0.00  0.00    -0.301 NA
ATOM      6  N   UNL     1      40.534 -26.038 -14.740  0.00  0.00    -0.320 N 
ATOM      7  C   UNL     1      37.550 -24.165 -14.766  0.00  0.00    +0.189 C 
ATOM      8  C   UNL     1      36.858 -24.653 -13.696  0.00  0.00    +0.183 C 
ATOM      9  C   UNL     1      35.640 -23.149 -14.567  0.00  0.00    +0.203 C 
ATOM     10  C   UNL     1      37.080 -22.396 -16.488  0.00  0.00    +0.093 C 
ATOM     11  C   UNL     1      37.421 -25.706 -12.875  0.00  0.00    +0.224 C 
ATOM     12  C   UNL     1      39.294 -25.621 -14.327  0.00  0.00    +0.245 C 
ATOM     13  H   UNL     1      39.242 -24.243 -15.897  0.00  0.00    +0.152 HD
ATOM     14  H   UNL     1      40.956 -25.625 -15.527  0.00  0.00    +0.146 HD
ATOM     15  H   UNL     1      41.003 -26.751 -14.249  0.00  0.00    +0.146 HD
ENDROOT
TORSDOF 0
ENDMDL
MODEL 5
REMARK VINA RESULT:      -6.6      7.220      7.903
REMARK  Name = 79639
REMARK  0 active torsions:
REMARK  status: ('A' for Active; 'I' for Inactive)
REMARK                            x       y       z     vdW  Elec       q    Type
REMARK                         _______ _______ _______ _____ _____    ______ ____
ROOT
ATOM      1  O   UNL     1      32.597 -22.740 -18.571  0.00  0.00    -0.208 OA
ATOM      2  N   UNL     1      34.839 -19.595 -20.920  0.00  0.00    -0.231 NA
ATOM      3  N   UNL     1      36.126 -20.867 -19.293  0.00  0.00    -0.279 N 
ATOM      4  N   UNL     1      32.858 -20.590 -20.570  0.00  0.00    -0.241 NA
ATOM      5  N   UNL     1      34.853 -22.513 -18.094  0.00  0.00    -0.301 NA
ATOM      6  N   UNL     1      37.154 -22.187 -17.699  0.00  0.00    -0.320 N 
ATOM      7  C   UNL     1      35.018 -20.532 -19.960  0.00  0.00    +0.189 C 
ATOM      8  C   UNL     1      33.809 -21.131 -19.754  0.00  0.00    +0.183 C 
ATOM      9  C   UNL     1      33.507 -19.667 -21.261  0.00  0.00    +0.203 C 
ATOM     10  C   UNL     1      35.820 -18.700 -21.483  0.00  0.00    +0.093 C 
ATOM     11  C   UNL     1      33.672 -22.189 -18.773  0.00  0.00    +0.224 C 
ATOM     12  C   UNL     1      35.986 -21.884 -18.351  0.00  0.00    +0.245 C 
ATOM     13  H   UNL     1      36.988 -20.421 -19.457  0.00  0.00    +0.152 HD
ATOM     14  H   UNL     1      37.980 -21.698 -17.917  0.00  0.00    +0.146 HD
ATOM     15  H   UNL     1      37.167 -22.893 -17.014  0.00  0.00    +0.146 HD
ENDROOT
TORSDOF 0
ENDMDL
MODEL 6
REMARK VINA RESULT:      -6.6     14.022     14.885
REMARK  Name = 79639
REMARK  0 active torsions:
REMARK  status: ('A' for Active; 'I' for Inactive)
REMARK                            x       y       z     vdW  Elec       q    Type
REMARK                         _______ _______ _______ _____ _____    ______ ____
ROOT
ATOM      1  O   UNL     1      33.042 -15.343 -27.007  0.00  0.00    -0.208 OA
ATOM      2  N   UNL     1      34.959 -17.347 -23.437  0.00  0.00    -0.231 NA
ATOM      3  N   UNL     1      34.453 -14.978 -23.218  0.00  0.00    -0.279 N 
ATOM      4  N   UNL     1      34.197 -17.619 -25.531  0.00  0.00    -0.241 NA
ATOM      5  N   UNL     1      33.437 -13.999 -25.161  0.00  0.00    -0.301 NA
ATOM      6  N   UNL     1      33.890 -12.737 -23.223  0.00  0.00    -0.320 N 
ATOM      7  C   UNL     1      34.492 -16.149 -23.858  0.00  0.00    +0.189 C 
ATOM      8  C   UNL     1      34.031 -16.323 -25.131  0.00  0.00    +0.183 C 
ATOM      9  C   UNL     1      34.759 -18.211 -24.490  0.00  0.00    +0.203 C 
ATOM     10  C   UNL     1      35.547 -17.674 -22.161  0.00  0.00    +0.093 C 
ATOM     11  C   UNL     1      33.462 -15.210 -25.864  0.00  0.00    +0.224 C 
ATOM     12  C   UNL     1      33.905 -13.912 -23.929  0.00  0.00    +0.245 C 
ATOM     13  H   UNL     1      34.792 -14.874 -22.299  0.00  0.00    +0.152 HD
ATOM     14  H   UNL     1      34.247 -12.709 -22.306  0.00  0.00    +0.146 HD
ATOM     15  H   UNL     1      33.522 -11.921 -23.632  0.00  0.00    +0.146 HD
ENDROOT
TORSDOF 0
ENDMDL
MODEL 7
REMARK VINA RESULT:      -6.6     11.713     12.458
REMARK  Name = 79639
REMARK  0 active torsions:
REMARK  status: ('A' for Active; 'I' for Inactive)
REMARK                            x       y       z     vdW  Elec       q    Type
REMARK                         _______ _______ _______ _____ _____    ______ ____
ROOT
ATOM      1  O   UNL     1      35.626 -18.939 -20.578  0.00  0.00    -0.208 OA
ATOM      2  N   UNL     1      34.318 -14.882 -22.080  0.00  0.00    -0.231 NA
ATOM      3  N   UNL     1      34.449 -16.666 -23.728  0.00  0.00    -0.279 N 
ATOM      4  N   UNL     1      34.963 -16.081 -20.295  0.00  0.00    -0.241 NA
ATOM      5  N   UNL     1      35.152 -18.783 -22.840  0.00  0.00    -0.301 NA
ATOM      6  N   UNL     1      34.641 -18.497 -25.124  0.00  0.00    -0.320 N 
ATOM      7  C   UNL     1      34.554 -16.145 -22.502  0.00  0.00    +0.189 C 
ATOM      8  C   UNL     1      34.945 -16.867 -21.412  0.00  0.00    +0.183 C 
ATOM      9  C   UNL     1      34.581 -14.891 -20.728  0.00  0.00    +0.203 C 
ATOM     10  C   UNL     1      33.884 -13.749 -22.859  0.00  0.00    +0.093 C 
ATOM     11  C   UNL     1      35.273 -18.273 -21.542  0.00  0.00    +0.224 C 
ATOM     12  C   UNL     1      34.767 -18.017 -23.845  0.00  0.00    +0.245 C 
ATOM     13  H   UNL     1      34.166 -16.127 -24.502  0.00  0.00    +0.152 HD
ATOM     14  H   UNL     1      34.351 -17.898 -25.848  0.00  0.00    +0.146 HD
ATOM     15  H   UNL     1      34.840 -19.442 -25.317  0.00  0.00    +0.146 HD
ENDROOT
TORSDOF 0
ENDMDL
MODEL 8
REMARK VINA RESULT:      -6.5     13.756     14.449
REMARK  Name = 79639
REMARK  0 active torsions:
REMARK  status: ('A' for Active; 'I' for Inactive)
REMARK                            x       y       z     vdW  Elec       q    Type
REMARK                         _______ _______ _______ _____ _____    ______ ____
ROOT
ATOM      1  O   UNL     1      34.558 -18.241 -25.674  0.00  0.00    -0.208 OA
ATOM      2  N   UNL     1      33.445 -14.008 -24.548  0.00  0.00    -0.231 NA
ATOM      3  N   UNL     1      34.312 -15.419 -22.767  0.00  0.00    -0.279 N 
ATOM      4  N   UNL     1      33.555 -15.521 -26.203  0.00  0.00    -0.241 NA
ATOM      5  N   UNL     1      34.876 -17.649 -23.457  0.00  0.00    -0.301 NA
ATOM      6  N   UNL     1      35.154 -16.927 -21.231  0.00  0.00    -0.320 N 
ATOM      7  C   UNL     1      33.937 -15.153 -24.021  0.00  0.00    +0.189 C 
ATOM      8  C   UNL     1      34.001 -16.066 -25.033  0.00  0.00    +0.183 C 
ATOM      9  C   UNL     1      33.226 -14.281 -25.880  0.00  0.00    +0.203 C 
ATOM     10  C   UNL     1      33.193 -12.756 -23.879  0.00  0.00    +0.093 C 
ATOM     11  C   UNL     1      34.493 -17.406 -24.782  0.00  0.00    +0.224 C 
ATOM     12  C   UNL     1      34.783 -16.710 -22.533  0.00  0.00    +0.245 C 
ATOM     13  H   UNL     1      34.257 -14.746 -22.051  0.00  0.00    +0.152 HD
ATOM     14  H   UNL     1      35.072 -16.203 -20.568  0.00  0.00    +0.146 HD
ATOM     15  H   UNL     1      35.503 -17.806 -20.957  0.00  0.00    +0.146 HD
ENDROOT
TORSDOF 0
ENDMDL
MODEL 9
REMARK VINA RESULT:      -6.5     13.547     14.746
REMARK  Name = 79639
REMARK  0 active torsions:
REMARK  status: ('A' for Active; 'I' for Inactive)
REMARK                            x       y       z     vdW  Elec       q    Type
REMARK                         _______ _______ _______ _____ _____    ______ ____
ROOT
ATOM      1  O   UNL     1      34.852 -15.581 -20.274  0.00  0.00    -0.208 OA
ATOM      2  N   UNL     1      33.830 -15.532 -24.676  0.00  0.00    -0.231 NA
ATOM      3  N   UNL     1      32.625 -13.965 -23.258  0.00  0.00    -0.279 N 
ATOM      4  N   UNL     1      35.093 -16.468 -23.074  0.00  0.00    -0.241 NA
ATOM      5  N   UNL     1      33.233 -14.062 -20.937  0.00  0.00    -0.301 NA
ATOM      6  N   UNL     1      31.601 -12.561 -21.736  0.00  0.00    -0.320 N 
ATOM      7  C   UNL     1      33.510 -14.935 -23.505  0.00  0.00    +0.189 C 
ATOM      8  C   UNL     1      34.282 -15.509 -22.538  0.00  0.00    +0.183 C 
ATOM      9  C   UNL     1      34.798 -16.460 -24.364  0.00  0.00    +0.203 C 
ATOM     10  C   UNL     1      33.287 -15.271 -25.986  0.00  0.00    +0.093 C 
ATOM     11  C   UNL     1      34.170 -15.079 -21.158  0.00  0.00    +0.224 C 
ATOM     12  C   UNL     1      32.523 -13.558 -21.930  0.00  0.00    +0.245 C 
ATOM     13  H   UNL     1      32.077 -13.564 -23.971  0.00  0.00    +0.152 HD
ATOM     14  H   UNL     1      31.089 -12.208 -22.499  0.00  0.00    +0.146 HD
ATOM     15  H   UNL     1      31.450 -12.198 -20.833  0.00  0.00    +0.146 HD
ENDROOT
TORSDOF 0
ENDMDL
