MODEL 1
REMARK VINA RESULT:      -6.9      0.000      0.000
REMARK  Name = 2337
REMARK  4 active torsions:
REMARK  status: ('A' for Active; 'I' for Inactive)
REMARK    1  A    between atoms: C_1  and  C_11
REMARK    2  A    between atoms: C_4  and  N_7
REMARK    3  A    between atoms: C_11  and  O_12
REMARK    4  A    between atoms: O_12  and  C_13
REMARK                            x       y       z     vdW  Elec       q    Type
REMARK                         _______ _______ _______ _____ _____    ______ ____
ROOT
ATOM      1  C   UNL     1      34.921 -19.531 -21.089  0.00  0.00    +0.076 C 
ATOM      2  C   UNL     1      35.642 -20.502 -20.392  0.00  0.00    +0.008 C 
ATOM      3  C   UNL     1      33.530 -19.494 -20.996  0.00  0.00    +0.008 C 
ATOM      4  C   UNL     1      33.578 -21.398 -19.509  0.00  0.00    +0.042 C 
ATOM      5  C   UNL     1      34.969 -21.436 -19.603  0.00  0.00    +0.014 C 
ATOM      6  C   UNL     1      32.859 -20.428 -20.206  0.00  0.00    +0.014 C 
ENDROOT
BRANCH   4   7
ATOM      7  N   UNL     1      32.900 -22.342 -18.712  0.00  0.00    -0.357 N 
ATOM      8  H   UNL     1      31.927 -22.464 -18.812  0.00  0.00    +0.142 HD
ATOM      9  H   UNL     1      33.397 -22.880 -18.054  0.00  0.00    +0.142 HD
ENDBRANCH   4   7
BRANCH   1  11
ATOM     10  O   UNL     1      36.853 -18.462 -21.988  0.00  0.00    -0.245 OA
ATOM     11  C   UNL     1      35.621 -18.558 -21.912  0.00  0.00    +0.341 C 
BRANCH  11  12
ATOM     12  O   UNL     1      34.748 -17.758 -22.598  0.00  0.00    -0.445 OA
BRANCH  12  13
ATOM     13  C   UNL     1      34.970 -17.614 -24.005  0.00  0.00    +0.209 C 
ATOM     14  C   UNL     1      34.461 -18.852 -24.713  0.00  0.00    +0.051 C 
ENDBRANCH  12  13
ENDBRANCH  11  12
ENDBRANCH   1  11
TORSDOF 4
ENDMDL
MODEL 2
REMARK VINA RESULT:      -6.8      1.097      1.544
REMARK  Name = 2337
REMARK  4 active torsions:
REMARK  status: ('A' for Active; 'I' for Inactive)
REMARK    1  A    between atoms: C_1  and  C_11
REMARK    2  A    between atoms: C_4  and  N_7
REMARK    3  A    between atoms: C_11  and  O_12
REMARK    4  A    between atoms: O_12  and  C_13
REMARK                            x       y       z     vdW  Elec       q    Type
REMARK                         _______ _______ _______ _____ _____    ______ ____
ROOT
ATOM      1  C   UNL     1      34.892 -19.531 -21.026  0.00  0.00    +0.076 C 
ATOM      2  C   UNL     1      35.635 -20.507 -20.361  0.00  0.00    +0.008 C 
ATOM      3  C   UNL     1      33.501 -19.517 -20.915  0.00  0.00    +0.008 C 
ATOM      4  C   UNL     1      33.595 -21.454 -19.475  0.00  0.00    +0.042 C 
ATOM      5  C   UNL     1      34.986 -21.469 -19.586  0.00  0.00    +0.014 C 
ATOM      6  C   UNL     1      32.854 -20.479 -20.139  0.00  0.00    +0.014 C 
ENDROOT
BRANCH   4   7
ATOM      7  N   UNL     1      32.941 -22.426 -18.691  0.00  0.00    -0.357 N 
ATOM      8  H   UNL     1      33.421 -22.871 -17.955  0.00  0.00    +0.142 HD
ATOM      9  H   UNL     1      32.004 -22.661 -18.879  0.00  0.00    +0.142 HD
ENDBRANCH   4   7
BRANCH   1  11
ATOM     10  O   UNL     1      36.795 -18.452 -21.973  0.00  0.00    -0.245 OA
ATOM     11  C   UNL     1      35.567 -18.530 -21.835  0.00  0.00    +0.341 C 
BRANCH  11  12
ATOM     12  O   UNL     1      34.676 -17.679 -22.430  0.00  0.00    -0.445 OA
BRANCH  12  13
ATOM     13  C   UNL     1      34.926 -16.276 -22.289  0.00  0.00    +0.209 C 
ATOM     14  C   UNL     1      34.621 -15.863 -20.864  0.00  0.00    +0.051 C 
ENDBRANCH  12  13
ENDBRANCH  11  12
ENDBRANCH   1  11
TORSDOF 4
ENDMDL
MODEL 3
REMARK VINA RESULT:      -6.8      1.549      2.420
REMARK  Name = 2337
REMARK  4 active torsions:
REMARK  status: ('A' for Active; 'I' for Inactive)
REMARK    1  A    between atoms: C_1  and  C_11
REMARK    2  A    between atoms: C_4  and  N_7
REMARK    3  A    between atoms: C_11  and  O_12
REMARK    4  A    between atoms: O_12  and  C_13
REMARK                            x       y       z     vdW  Elec       q    Type
REMARK                         _______ _______ _______ _____ _____    ______ ____
ROOT
ATOM      1  C   UNL     1      35.097 -19.654 -20.749  0.00  0.00    +0.076 C 
ATOM      2  C   UNL     1      33.715 -19.835 -20.671  0.00  0.00    +0.008 C 
ATOM      3  C   UNL     1      35.957 -20.597 -20.185  0.00  0.00    +0.008 C 
ATOM      4  C   UNL     1      34.055 -21.901 -19.464  0.00  0.00    +0.042 C 
ATOM      5  C   UNL     1      33.195 -20.958 -20.027  0.00  0.00    +0.014 C 
ATOM      6  C   UNL     1      35.435 -21.720 -19.543  0.00  0.00    +0.014 C 
ENDROOT
BRANCH   4   7
ATOM      7  N   UNL     1      33.529 -23.036 -18.815  0.00  0.00    -0.357 N 
ATOM      8  H   UNL     1      32.840 -23.583 -19.258  0.00  0.00    +0.142 HD
ATOM      9  H   UNL     1      33.849 -23.283 -17.917  0.00  0.00    +0.142 HD
ENDBRANCH   4   7
BRANCH   1  11
ATOM     10  O   UNL     1      36.277 -18.515 -22.479  0.00  0.00    -0.245 OA
ATOM     11  C   UNL     1      35.639 -18.483 -21.419  0.00  0.00    +0.341 C 
BRANCH  11  12
ATOM     12  O   UNL     1      35.356 -17.334 -20.730  0.00  0.00    -0.445 OA
BRANCH  12  13
ATOM     13  C   UNL     1      34.742 -16.272 -21.469  0.00  0.00    +0.209 C 
ATOM     14  C   UNL     1      34.368 -15.159 -20.513  0.00  0.00    +0.051 C 
ENDBRANCH  12  13
ENDBRANCH  11  12
ENDBRANCH   1  11
TORSDOF 4
ENDMDL
MODEL 4
REMARK VINA RESULT:      -6.7      3.694      5.572
REMARK  Name = 2337
REMARK  4 active torsions:
REMARK  status: ('A' for Active; 'I' for Inactive)
REMARK    1  A    between atoms: C_1  and  C_11
REMARK    2  A    between atoms: C_4  and  N_7
REMARK    3  A    between atoms: C_11  and  O_12
REMARK    4  A    between atoms: O_12  and  C_13
REMARK                            x       y       z     vdW  Elec       q    Type
REMARK                         _______ _______ _______ _____ _____    ______ ____
ROOT
ATOM      1  C   UNL     1      34.059 -21.663 -19.515  0.00  0.00    +0.076 C 
ATOM      2  C   UNL     1      35.448 -21.555 -19.595  0.00  0.00    +0.008 C 
ATOM      3  C   UNL     1      33.249 -20.703 -20.121  0.00  0.00    +0.008 C 
ATOM      4  C   UNL     1      35.215 -19.527 -20.889  0.00  0.00    +0.042 C 
ATOM      5  C   UNL     1      36.025 -20.487 -20.282  0.00  0.00    +0.014 C 
ATOM      6  C   UNL     1      33.827 -19.636 -20.808  0.00  0.00    +0.014 C 
ENDROOT
BRANCH   4   7
ATOM      7  N   UNL     1      35.799 -18.448 -21.583  0.00  0.00    -0.357 N 
ATOM      8  H   UNL     1      35.428 -17.541 -21.485  0.00  0.00    +0.142 HD
ATOM      9  H   UNL     1      36.577 -18.600 -22.165  0.00  0.00    +0.142 HD
ENDBRANCH   4   7
BRANCH   1  11
ATOM     10  O   UNL     1      33.874 -23.941 -18.836  0.00  0.00    -0.245 OA
ATOM     11  C   UNL     1      33.457 -22.776 -18.798  0.00  0.00    +0.341 C 
BRANCH  11  12
ATOM     12  O   UNL     1      32.369 -22.376 -18.071  0.00  0.00    -0.445 OA
BRANCH  12  13
ATOM     13  C   UNL     1      32.123 -23.068 -16.842  0.00  0.00    +0.209 C 
ATOM     14  C   UNL     1      30.680 -22.851 -16.436  0.00  0.00    +0.051 C 
ENDBRANCH  12  13
ENDBRANCH  11  12
ENDBRANCH   1  11
TORSDOF 4
ENDMDL
MODEL 5
REMARK VINA RESULT:      -6.6      3.639      5.603
REMARK  Name = 2337
REMARK  4 active torsions:
REMARK  status: ('A' for Active; 'I' for Inactive)
REMARK    1  A    between atoms: C_1  and  C_11
REMARK    2  A    between atoms: C_4  and  N_7
REMARK    3  A    between atoms: C_11  and  O_12
REMARK    4  A    between atoms: O_12  and  C_13
REMARK                            x       y       z     vdW  Elec       q    Type
REMARK                         _______ _______ _______ _____ _____    ______ ____
ROOT
ATOM      1  C   UNL     1      33.990 -21.470 -19.355  0.00  0.00    +0.076 C 
ATOM      2  C   UNL     1      35.373 -21.426 -19.535  0.00  0.00    +0.008 C 
ATOM      3  C   UNL     1      33.166 -20.596 -20.066  0.00  0.00    +0.008 C 
ATOM      4  C   UNL     1      35.107 -19.635 -21.136  0.00  0.00    +0.042 C 
ATOM      5  C   UNL     1      35.931 -20.508 -20.425  0.00  0.00    +0.014 C 
ATOM      6  C   UNL     1      33.725 -19.680 -20.956  0.00  0.00    +0.014 C 
ENDROOT
BRANCH   4   7
ATOM      7  N   UNL     1      35.672 -18.708 -22.036  0.00  0.00    -0.357 N 
ATOM      8  H   UNL     1      36.153 -19.027 -22.834  0.00  0.00    +0.142 HD
ATOM      9  H   UNL     1      35.587 -17.743 -21.866  0.00  0.00    +0.142 HD
ENDBRANCH   4   7
BRANCH   1  11
ATOM     10  O   UNL     1      32.199 -22.508 -18.173  0.00  0.00    -0.245 OA
ATOM     11  C   UNL     1      33.407 -22.425 -18.426  0.00  0.00    +0.341 C 
BRANCH  11  12
ATOM     12  O   UNL     1      34.364 -23.227 -17.865  0.00  0.00    -0.445 OA
BRANCH  12  13
ATOM     13  C   UNL     1      34.403 -23.282 -16.434  0.00  0.00    +0.209 C 
ATOM     14  C   UNL     1      35.763 -22.815 -15.961  0.00  0.00    +0.051 C 
ENDBRANCH  12  13
ENDBRANCH  11  12
ENDBRANCH   1  11
TORSDOF 4
ENDMDL
MODEL 6
REMARK VINA RESULT:      -6.5      3.490      5.200
REMARK  Name = 2337
REMARK  4 active torsions:
REMARK  status: ('A' for Active; 'I' for Inactive)
REMARK    1  A    between atoms: C_1  and  C_11
REMARK    2  A    between atoms: C_4  and  N_7
REMARK    3  A    between atoms: C_11  and  O_12
REMARK    4  A    between atoms: O_12  and  C_13
REMARK                            x       y       z     vdW  Elec       q    Type
REMARK                         _______ _______ _______ _____ _____    ______ ____
ROOT
ATOM      1  C   UNL     1      35.018 -17.355 -21.693  0.00  0.00    +0.076 C 
ATOM      2  C   UNL     1      35.068 -17.114 -23.066  0.00  0.00    +0.008 C 
ATOM      3  C   UNL     1      34.707 -16.317 -20.814  0.00  0.00    +0.008 C 
ATOM      4  C   UNL     1      34.497 -14.798 -22.681  0.00  0.00    +0.042 C 
ATOM      5  C   UNL     1      34.808 -15.835 -23.560  0.00  0.00    +0.014 C 
ATOM      6  C   UNL     1      34.447 -15.039 -21.309  0.00  0.00    +0.014 C 
ENDROOT
BRANCH   4   7
ATOM      7  N   UNL     1      34.234 -13.506 -23.180  0.00  0.00    -0.357 N 
ATOM      8  H   UNL     1      33.431 -13.343 -23.727  0.00  0.00    +0.142 HD
ATOM      9  H   UNL     1      34.853 -12.766 -22.984  0.00  0.00    +0.142 HD
ENDBRANCH   4   7
BRANCH   1  11
ATOM     10  O   UNL     1      36.232 -18.969 -20.426  0.00  0.00    -0.245 OA
ATOM     11  C   UNL     1      35.290 -18.687 -21.178  0.00  0.00    +0.341 C 
BRANCH  11  12
ATOM     12  O   UNL     1      34.371 -19.597 -21.627  0.00  0.00    -0.445 OA
BRANCH  12  13
ATOM     13  C   UNL     1      33.186 -19.762 -20.841  0.00  0.00    +0.209 C 
ATOM     14  C   UNL     1      33.385 -20.921 -19.888  0.00  0.00    +0.051 C 
ENDBRANCH  12  13
ENDBRANCH  11  12
ENDBRANCH   1  11
TORSDOF 4
ENDMDL
MODEL 7
REMARK VINA RESULT:      -6.4      8.033      8.996
REMARK  Name = 2337
REMARK  4 active torsions:
REMARK  status: ('A' for Active; 'I' for Inactive)
REMARK    1  A    between atoms: C_1  and  C_11
REMARK    2  A    between atoms: C_4  and  N_7
REMARK    3  A    between atoms: C_11  and  O_12
REMARK    4  A    between atoms: O_12  and  C_13
REMARK                            x       y       z     vdW  Elec       q    Type
REMARK                         _______ _______ _______ _____ _____    ______ ____
ROOT
ATOM      1  C   UNL     1      29.393 -23.768 -16.088  0.00  0.00    +0.076 C 
ATOM      2  C   UNL     1      30.594 -23.069 -16.210  0.00  0.00    +0.008 C 
ATOM      3  C   UNL     1      29.286 -24.817 -15.175  0.00  0.00    +0.008 C 
ATOM      4  C   UNL     1      31.581 -24.468 -14.504  0.00  0.00    +0.042 C 
ATOM      5  C   UNL     1      31.688 -23.420 -15.418  0.00  0.00    +0.014 C 
ATOM      6  C   UNL     1      30.380 -25.166 -14.383  0.00  0.00    +0.014 C 
ENDROOT
BRANCH   4   7
ATOM      7  N   UNL     1      32.686 -24.822 -13.705  0.00  0.00    -0.357 N 
ATOM      8  H   UNL     1      33.602 -24.697 -14.046  0.00  0.00    +0.142 HD
ATOM      9  H   UNL     1      32.545 -25.196 -12.805  0.00  0.00    +0.142 HD
ENDBRANCH   4   7
BRANCH   1  11
ATOM     10  O   UNL     1      27.646 -24.186 -17.656  0.00  0.00    -0.245 OA
ATOM     11  C   UNL     1      28.253 -23.403 -16.914  0.00  0.00    +0.341 C 
BRANCH  11  12
ATOM     12  O   UNL     1      27.930 -22.081 -16.769  0.00  0.00    -0.445 OA
BRANCH  12  13
ATOM     13  C   UNL     1      26.540 -21.767 -16.626  0.00  0.00    +0.209 C 
ATOM     14  C   UNL     1      26.043 -21.137 -17.910  0.00  0.00    +0.051 C 
ENDBRANCH  12  13
ENDBRANCH  11  12
ENDBRANCH   1  11
TORSDOF 4
ENDMDL
MODEL 8
REMARK VINA RESULT:      -6.3      3.127      5.129
REMARK  Name = 2337
REMARK  4 active torsions:
REMARK  status: ('A' for Active; 'I' for Inactive)
REMARK    1  A    between atoms: C_1  and  C_11
REMARK    2  A    between atoms: C_4  and  N_7
REMARK    3  A    between atoms: C_11  and  O_12
REMARK    4  A    between atoms: O_12  and  C_13
REMARK                            x       y       z     vdW  Elec       q    Type
REMARK                         _______ _______ _______ _____ _____    ______ ____
ROOT
ATOM      1  C   UNL     1      35.341 -17.764 -22.683  0.00  0.00    +0.076 C 
ATOM      2  C   UNL     1      35.008 -16.420 -22.516  0.00  0.00    +0.008 C 
ATOM      3  C   UNL     1      35.103 -18.396 -23.904  0.00  0.00    +0.008 C 
ATOM      4  C   UNL     1      34.200 -16.338 -24.793  0.00  0.00    +0.042 C 
ATOM      5  C   UNL     1      34.437 -15.707 -23.571  0.00  0.00    +0.014 C 
ATOM      6  C   UNL     1      34.533 -17.682 -24.959  0.00  0.00    +0.014 C 
ENDROOT
BRANCH   4   7
ATOM      7  N   UNL     1      33.623 -15.618 -25.858  0.00  0.00    -0.357 N 
ATOM      8  H   UNL     1      34.047 -15.628 -26.747  0.00  0.00    +0.142 HD
ATOM      9  H   UNL     1      32.796 -15.104 -25.714  0.00  0.00    +0.142 HD
ENDBRANCH   4   7
BRANCH   1  11
ATOM     10  O   UNL     1      37.128 -18.835 -21.523  0.00  0.00    -0.245 OA
ATOM     11  C   UNL     1      35.936 -18.508 -21.584  0.00  0.00    +0.341 C 
BRANCH  11  12
ATOM     12  O   UNL     1      35.011 -18.801 -20.618  0.00  0.00    -0.445 OA
BRANCH  12  13
ATOM     13  C   UNL     1      34.438 -20.113 -20.650  0.00  0.00    +0.209 C 
ATOM     14  C   UNL     1      32.929 -19.990 -20.647  0.00  0.00    +0.051 C 
ENDBRANCH  12  13
ENDBRANCH  11  12
ENDBRANCH   1  11
TORSDOF 4
ENDMDL
MODEL 9
REMARK VINA RESULT:      -6.2      4.039      5.262
REMARK  Name = 2337
REMARK  4 active torsions:
REMARK  status: ('A' for Active; 'I' for Inactive)
REMARK    1  A    between atoms: C_1  and  C_11
REMARK    2  A    between atoms: C_4  and  N_7
REMARK    3  A    between atoms: C_11  and  O_12
REMARK    4  A    between atoms: O_12  and  C_13
REMARK                            x       y       z     vdW  Elec       q    Type
REMARK                         _______ _______ _______ _____ _____    ______ ____
ROOT
ATOM      1  C   UNL     1      34.399 -16.247 -21.954  0.00  0.00    +0.076 C 
ATOM      2  C   UNL     1      34.629 -15.392 -23.032  0.00  0.00    +0.008 C 
ATOM      3  C   UNL     1      33.342 -15.997 -21.078  0.00  0.00    +0.008 C 
ATOM      4  C   UNL     1      32.745 -14.036 -22.358  0.00  0.00    +0.042 C 
ATOM      5  C   UNL     1      33.802 -14.286 -23.233  0.00  0.00    +0.014 C 
ATOM      6  C   UNL     1      32.516 -14.892 -21.281  0.00  0.00    +0.014 C 
ENDROOT
BRANCH   4   7
ATOM      7  N   UNL     1      31.910 -12.919 -22.562  0.00  0.00    -0.357 N 
ATOM      8  H   UNL     1      32.235 -12.150 -23.084  0.00  0.00    +0.142 HD
ATOM      9  H   UNL     1      31.002 -12.907 -22.183  0.00  0.00    +0.142 HD
ENDBRANCH   4   7
BRANCH   1  11
ATOM     10  O   UNL     1      35.582 -17.840 -20.632  0.00  0.00    -0.245 OA
ATOM     11  C   UNL     1      35.261 -17.399 -21.743  0.00  0.00    +0.341 C 
BRANCH  11  12
ATOM     12  O   UNL     1      35.677 -17.940 -22.930  0.00  0.00    -0.445 OA
BRANCH  12  13
ATOM     13  C   UNL     1      34.944 -19.069 -23.417  0.00  0.00    +0.209 C 
ATOM     14  C   UNL     1      34.408 -18.750 -24.797  0.00  0.00    +0.051 C 
ENDBRANCH  12  13
ENDBRANCH  11  12
ENDBRANCH   1  11
TORSDOF 4
ENDMDL
