MODEL 1
REMARK VINA RESULT:      -7.0      0.000      0.000
REMARK  Name = 1865
REMARK  4 active torsions:
REMARK  status: ('A' for Active; 'I' for Inactive)
REMARK    1  A    between atoms: C_5  and  C_12
REMARK    2  A    between atoms: C_12  and  C_13
REMARK    3  A    between atoms: C_13  and  C_14
REMARK    4  A    between atoms: C_14  and  O_15
REMARK                            x       y       z     vdW  Elec       q    Type
REMARK                         _______ _______ _______ _____ _____    ______ ____
ROOT
ATOM      1  O   UNL     1      34.833 -16.618 -24.707  0.00  0.00    -0.267 OA
ATOM      2  O   UNL     1      34.861 -15.292 -20.304  0.00  0.00    -0.247 OA
ATOM      3  N   UNL     1      34.936 -17.531 -20.805  0.00  0.00    -0.311 N 
ATOM      4  N   UNL     1      34.838 -15.943 -22.510  0.00  0.00    -0.275 N 
ATOM      5  C   UNL     1      34.950 -18.565 -21.718  0.00  0.00    +0.038 A 
ATOM      6  C   UNL     1      34.904 -18.325 -23.043  0.00  0.00    +0.046 A 
ATOM      7  C   UNL     1      34.855 -16.901 -23.512  0.00  0.00    +0.258 A 
ATOM      8  C   UNL     1      34.875 -19.358 -24.132  0.00  0.00    +0.037 C 
ATOM      9  C   UNL     1      34.876 -16.193 -21.143  0.00  0.00    +0.327 A 
ATOM     10  H   UNL     1      34.970 -17.762 -19.849  0.00  0.00    +0.170 HD
ATOM     11  H   UNL     1      34.795 -15.002 -22.793  0.00  0.00    +0.173 HD
ENDROOT
BRANCH   5  12
ATOM     12  C   UNL     1      35.033 -19.927 -21.086  0.00  0.00    +0.046 C 
BRANCH  12  13
ATOM     13  C   UNL     1      33.726 -20.305 -20.404  0.00  0.00    +0.038 C 
BRANCH  13  14
ATOM     14  C   UNL     1      33.902 -21.534 -19.524  0.00  0.00    +0.138 C 
BRANCH  14  15
ATOM     15  O   UNL     1      32.631 -21.924 -19.021  0.00  0.00    -0.382 OA
ATOM     16  H   UNL     1      31.932 -21.463 -19.512  0.00  0.00    +0.210 HD
ENDBRANCH  14  15
ENDBRANCH  13  14
ENDBRANCH  12  13
ENDBRANCH   5  12
TORSDOF 4
ENDMDL
MODEL 2
REMARK VINA RESULT:      -6.9      7.659     11.057
REMARK  Name = 1865
REMARK  4 active torsions:
REMARK  status: ('A' for Active; 'I' for Inactive)
REMARK    1  A    between atoms: C_5  and  C_12
REMARK    2  A    between atoms: C_12  and  C_13
REMARK    3  A    between atoms: C_13  and  C_14
REMARK    4  A    between atoms: C_14  and  O_15
REMARK                            x       y       z     vdW  Elec       q    Type
REMARK                         _______ _______ _______ _____ _____    ______ ____
ROOT
ATOM      1  O   UNL     1      37.185 -26.501 -11.696  0.00  0.00    -0.267 OA
ATOM      2  O   UNL     1      36.674 -27.271 -16.201  0.00  0.00    -0.247 OA
ATOM      3  N   UNL     1      36.791 -25.110 -15.434  0.00  0.00    -0.311 N 
ATOM      4  N   UNL     1      36.921 -26.899 -13.944  0.00  0.00    -0.275 N 
ATOM      5  C   UNL     1      36.910 -24.197 -14.408  0.00  0.00    +0.038 A 
ATOM      6  C   UNL     1      37.033 -24.600 -13.128  0.00  0.00    +0.046 A 
ATOM      7  C   UNL     1      37.055 -26.072 -12.840  0.00  0.00    +0.258 A 
ATOM      8  C   UNL     1      37.131 -23.711 -11.922  0.00  0.00    +0.037 C 
ATOM      9  C   UNL     1      36.786 -26.481 -15.263  0.00  0.00    +0.327 A 
ATOM     10  H   UNL     1      36.704 -24.762 -16.351  0.00  0.00    +0.170 HD
ATOM     11  H   UNL     1      36.922 -27.868 -13.778  0.00  0.00    +0.173 HD
ENDROOT
BRANCH   5  12
ATOM     12  C   UNL     1      36.902 -22.766 -14.869  0.00  0.00    +0.046 C 
BRANCH  12  13
ATOM     13  C   UNL     1      37.659 -22.598 -16.178  0.00  0.00    +0.038 C 
BRANCH  13  14
ATOM     14  C   UNL     1      36.764 -22.007 -17.259  0.00  0.00    +0.138 C 
BRANCH  14  15
ATOM     15  O   UNL     1      35.529 -22.710 -17.266  0.00  0.00    -0.382 OA
ATOM     16  H   UNL     1      35.506 -23.316 -18.024  0.00  0.00    +0.210 HD
ENDBRANCH  14  15
ENDBRANCH  13  14
ENDBRANCH  12  13
ENDBRANCH   5  12
TORSDOF 4
ENDMDL
MODEL 3
REMARK VINA RESULT:      -6.8      1.989      4.925
REMARK  Name = 1865
REMARK  4 active torsions:
REMARK  status: ('A' for Active; 'I' for Inactive)
REMARK    1  A    between atoms: C_5  and  C_12
REMARK    2  A    between atoms: C_12  and  C_13
REMARK    3  A    between atoms: C_13  and  C_14
REMARK    4  A    between atoms: C_14  and  O_15
REMARK                            x       y       z     vdW  Elec       q    Type
REMARK                         _______ _______ _______ _____ _____    ______ ____
ROOT
ATOM      1  O   UNL     1      35.373 -19.769 -21.483  0.00  0.00    -0.267 OA
ATOM      2  O   UNL     1      34.886 -15.420 -20.068  0.00  0.00    -0.247 OA
ATOM      3  N   UNL     1      34.610 -15.918 -22.292  0.00  0.00    -0.311 N 
ATOM      4  N   UNL     1      35.140 -17.598 -20.765  0.00  0.00    -0.275 N 
ATOM      5  C   UNL     1      34.598 -16.819 -23.336  0.00  0.00    +0.038 A 
ATOM      6  C   UNL     1      34.860 -18.125 -23.132  0.00  0.00    +0.046 A 
ATOM      7  C   UNL     1      35.148 -18.588 -21.735  0.00  0.00    +0.258 A 
ATOM      8  C   UNL     1      34.915 -19.195 -24.184  0.00  0.00    +0.037 C 
ATOM      9  C   UNL     1      34.880 -16.250 -20.978  0.00  0.00    +0.327 A 
ATOM     10  H   UNL     1      34.413 -14.976 -22.497  0.00  0.00    +0.170 HD
ATOM     11  H   UNL     1      35.338 -17.876 -19.842  0.00  0.00    +0.173 HD
ENDROOT
BRANCH   5  12
ATOM     12  C   UNL     1      34.261 -16.200 -24.665  0.00  0.00    +0.046 C 
BRANCH  12  13
ATOM     13  C   UNL     1      33.463 -14.916 -24.494  0.00  0.00    +0.038 C 
BRANCH  13  14
ATOM     14  C   UNL     1      33.024 -14.359 -25.841  0.00  0.00    +0.138 C 
BRANCH  14  15
ATOM     15  O   UNL     1      33.426 -15.260 -26.864  0.00  0.00    -0.382 OA
ATOM     16  H   UNL     1      32.641 -15.599 -27.324  0.00  0.00    +0.210 HD
ENDBRANCH  14  15
ENDBRANCH  13  14
ENDBRANCH  12  13
ENDBRANCH   5  12
TORSDOF 4
ENDMDL
MODEL 4
REMARK VINA RESULT:      -6.8      1.682      2.985
REMARK  Name = 1865
REMARK  4 active torsions:
REMARK  status: ('A' for Active; 'I' for Inactive)
REMARK    1  A    between atoms: C_5  and  C_12
REMARK    2  A    between atoms: C_12  and  C_13
REMARK    3  A    between atoms: C_13  and  C_14
REMARK    4  A    between atoms: C_14  and  O_15
REMARK                            x       y       z     vdW  Elec       q    Type
REMARK                         _______ _______ _______ _____ _____    ______ ____
ROOT
ATOM      1  O   UNL     1      34.211 -13.952 -22.753  0.00  0.00    -0.267 OA
ATOM      2  O   UNL     1      34.734 -17.279 -25.885  0.00  0.00    -0.247 OA
ATOM      3  N   UNL     1      34.838 -17.807 -23.653  0.00  0.00    -0.311 N 
ATOM      4  N   UNL     1      34.479 -15.604 -24.328  0.00  0.00    -0.275 N 
ATOM      5  C   UNL     1      34.797 -17.446 -22.323  0.00  0.00    +0.038 A 
ATOM      6  C   UNL     1      34.603 -16.165 -21.955  0.00  0.00    +0.046 A 
ATOM      7  C   UNL     1      34.412 -15.133 -23.026  0.00  0.00    +0.258 A 
ATOM      8  C   UNL     1      34.576 -15.639 -20.549  0.00  0.00    +0.037 C 
ATOM      9  C   UNL     1      34.689 -16.925 -24.706  0.00  0.00    +0.327 A 
ATOM     10  H   UNL     1      34.984 -18.757 -23.867  0.00  0.00    +0.170 HD
ATOM     11  H   UNL     1      34.368 -14.944 -25.048  0.00  0.00    +0.173 HD
ENDROOT
BRANCH   5  12
ATOM     12  C   UNL     1      34.974 -18.603 -21.378  0.00  0.00    +0.046 C 
BRANCH  12  13
ATOM     13  C   UNL     1      33.666 -19.351 -21.164  0.00  0.00    +0.038 C 
BRANCH  13  14
ATOM     14  C   UNL     1      33.848 -20.509 -20.192  0.00  0.00    +0.138 C 
BRANCH  14  15
ATOM     15  O   UNL     1      32.626 -20.723 -19.499  0.00  0.00    -0.382 OA
ATOM     16  H   UNL     1      31.892 -20.734 -20.133  0.00  0.00    +0.210 HD
ENDBRANCH  14  15
ENDBRANCH  13  14
ENDBRANCH  12  13
ENDBRANCH   5  12
TORSDOF 4
ENDMDL
MODEL 5
REMARK VINA RESULT:      -6.7     10.011     11.114
REMARK  Name = 1865
REMARK  4 active torsions:
REMARK  status: ('A' for Active; 'I' for Inactive)
REMARK    1  A    between atoms: C_5  and  C_12
REMARK    2  A    between atoms: C_12  and  C_13
REMARK    3  A    between atoms: C_13  and  C_14
REMARK    4  A    between atoms: C_14  and  O_15
REMARK                            x       y       z     vdW  Elec       q    Type
REMARK                         _______ _______ _______ _____ _____    ______ ____
ROOT
ATOM      1  O   UNL     1      38.328 -22.410 -12.032  0.00  0.00    -0.267 OA
ATOM      2  O   UNL     1      35.193 -24.945  -9.821  0.00  0.00    -0.247 OA
ATOM      3  N   UNL     1      35.058 -24.726 -12.102  0.00  0.00    -0.311 N 
ATOM      4  N   UNL     1      36.763 -23.668 -10.915  0.00  0.00    -0.275 N 
ATOM      5  C   UNL     1      35.524 -24.220 -13.297  0.00  0.00    +0.038 A 
ATOM      6  C   UNL     1      36.611 -23.425 -13.339  0.00  0.00    +0.046 A 
ATOM      7  C   UNL     1      37.320 -23.112 -12.055  0.00  0.00    +0.258 A 
ATOM      8  C   UNL     1      37.194 -22.781 -14.564  0.00  0.00    +0.037 C 
ATOM      9  C   UNL     1      35.636 -24.480 -10.871  0.00  0.00    +0.327 A 
ATOM     10  H   UNL     1      34.260 -25.302 -12.128  0.00  0.00    +0.170 HD
ATOM     11  H   UNL     1      37.204 -23.468 -10.059  0.00  0.00    +0.173 HD
ENDROOT
BRANCH   5  12
ATOM     12  C   UNL     1      34.720 -24.653 -14.492  0.00  0.00    +0.046 C 
BRANCH  12  13
ATOM     13  C   UNL     1      33.606 -23.663 -14.801  0.00  0.00    +0.038 C 
BRANCH  13  14
ATOM     14  C   UNL     1      32.256 -24.193 -14.337  0.00  0.00    +0.138 C 
BRANCH  14  15
ATOM     15  O   UNL     1      32.433 -25.501 -13.811  0.00  0.00    -0.382 OA
ATOM     16  H   UNL     1      33.285 -25.553 -13.350  0.00  0.00    +0.210 HD
ENDBRANCH  14  15
ENDBRANCH  13  14
ENDBRANCH  12  13
ENDBRANCH   5  12
TORSDOF 4
ENDMDL
MODEL 6
REMARK VINA RESULT:      -6.7      3.048      5.063
REMARK  Name = 1865
REMARK  4 active torsions:
REMARK  status: ('A' for Active; 'I' for Inactive)
REMARK    1  A    between atoms: C_5  and  C_12
REMARK    2  A    between atoms: C_12  and  C_13
REMARK    3  A    between atoms: C_13  and  C_14
REMARK    4  A    between atoms: C_14  and  O_15
REMARK                            x       y       z     vdW  Elec       q    Type
REMARK                         _______ _______ _______ _____ _____    ______ ____
ROOT
ATOM      1  O   UNL     1      35.294 -19.218 -23.826  0.00  0.00    -0.267 OA
ATOM      2  O   UNL     1      33.680 -15.718 -26.335  0.00  0.00    -0.247 OA
ATOM      3  N   UNL     1      34.012 -15.429 -24.081  0.00  0.00    -0.311 N 
ATOM      4  N   UNL     1      34.480 -17.479 -25.089  0.00  0.00    -0.275 N 
ATOM      5  C   UNL     1      34.392 -15.907 -22.845  0.00  0.00    +0.038 A 
ATOM      6  C   UNL     1      34.820 -17.175 -22.690  0.00  0.00    +0.046 A 
ATOM      7  C   UNL     1      34.893 -18.059 -23.900  0.00  0.00    +0.258 A 
ATOM      8  C   UNL     1      35.224 -17.825 -21.399  0.00  0.00    +0.037 C 
ATOM      9  C   UNL     1      34.030 -16.173 -25.245  0.00  0.00    +0.327 A 
ATOM     10  H   UNL     1      33.706 -14.495 -24.138  0.00  0.00    +0.170 HD
ATOM     11  H   UNL     1      34.509 -18.042 -25.895  0.00  0.00    +0.173 HD
ENDROOT
BRANCH   5  12
ATOM     12  C   UNL     1      34.290 -14.887 -21.745  0.00  0.00    +0.046 C 
BRANCH  12  13
ATOM     13  C   UNL     1      32.853 -14.720 -21.273  0.00  0.00    +0.038 C 
BRANCH  13  14
ATOM     14  C   UNL     1      32.317 -13.339 -21.624  0.00  0.00    +0.138 C 
BRANCH  14  15
ATOM     15  O   UNL     1      31.936 -13.328 -22.993  0.00  0.00    -0.382 OA
ATOM     16  H   UNL     1      32.721 -13.190 -23.547  0.00  0.00    +0.210 HD
ENDBRANCH  14  15
ENDBRANCH  13  14
ENDBRANCH  12  13
ENDBRANCH   5  12
TORSDOF 4
ENDMDL
MODEL 7
REMARK VINA RESULT:      -6.6      2.382      5.485
REMARK  Name = 1865
REMARK  4 active torsions:
REMARK  status: ('A' for Active; 'I' for Inactive)
REMARK    1  A    between atoms: C_5  and  C_12
REMARK    2  A    between atoms: C_12  and  C_13
REMARK    3  A    between atoms: C_13  and  C_14
REMARK    4  A    between atoms: C_14  and  O_15
REMARK                            x       y       z     vdW  Elec       q    Type
REMARK                         _______ _______ _______ _____ _____    ______ ____
ROOT
ATOM      1  O   UNL     1      32.601 -22.026 -18.931  0.00  0.00    -0.267 OA
ATOM      2  O   UNL     1      37.136 -21.956 -18.168  0.00  0.00    -0.247 OA
ATOM      3  N   UNL     1      36.245 -20.588 -19.782  0.00  0.00    -0.311 N 
ATOM      4  N   UNL     1      34.867 -22.006 -18.546  0.00  0.00    -0.275 N 
ATOM      5  C   UNL     1      35.170 -20.108 -20.500  0.00  0.00    +0.038 A 
ATOM      6  C   UNL     1      33.922 -20.561 -20.272  0.00  0.00    +0.046 A 
ATOM      7  C   UNL     1      33.718 -21.591 -19.200  0.00  0.00    +0.258 A 
ATOM      8  C   UNL     1      32.679 -20.150 -21.007  0.00  0.00    +0.037 C 
ATOM      9  C   UNL     1      36.156 -21.545 -18.790  0.00  0.00    +0.327 A 
ATOM     10  H   UNL     1      37.136 -20.224 -19.990  0.00  0.00    +0.170 HD
ATOM     11  H   UNL     1      34.760 -22.689 -17.846  0.00  0.00    +0.173 HD
ENDROOT
BRANCH   5  12
ATOM     12  C   UNL     1      35.540 -19.059 -21.513  0.00  0.00    +0.046 C 
BRANCH  12  13
ATOM     13  C   UNL     1      35.265 -17.658 -20.988  0.00  0.00    +0.038 C 
BRANCH  13  14
ATOM     14  C   UNL     1      34.937 -16.700 -22.125  0.00  0.00    +0.138 C 
BRANCH  14  15
ATOM     15  O   UNL     1      35.802 -16.973 -23.219  0.00  0.00    -0.382 OA
ATOM     16  H   UNL     1      35.274 -17.121 -24.020  0.00  0.00    +0.210 HD
ENDBRANCH  14  15
ENDBRANCH  13  14
ENDBRANCH  12  13
ENDBRANCH   5  12
TORSDOF 4
ENDMDL
MODEL 8
REMARK VINA RESULT:      -6.6     10.130     11.018
REMARK  Name = 1865
REMARK  4 active torsions:
REMARK  status: ('A' for Active; 'I' for Inactive)
REMARK    1  A    between atoms: C_5  and  C_12
REMARK    2  A    between atoms: C_12  and  C_13
REMARK    3  A    between atoms: C_13  and  C_14
REMARK    4  A    between atoms: C_14  and  O_15
REMARK                            x       y       z     vdW  Elec       q    Type
REMARK                         _______ _______ _______ _____ _____    ______ ____
ROOT
ATOM      1  O   UNL     1      39.519 -24.709 -13.597  0.00  0.00    -0.267 OA
ATOM      2  O   UNL     1      36.694 -27.288 -16.150  0.00  0.00    -0.247 OA
ATOM      3  N   UNL     1      35.807 -25.744 -14.702  0.00  0.00    -0.311 N 
ATOM      4  N   UNL     1      38.117 -26.009 -14.872  0.00  0.00    -0.275 N 
ATOM      5  C   UNL     1      35.953 -24.761 -13.746  0.00  0.00    +0.038 A 
ATOM      6  C   UNL     1      37.173 -24.377 -13.322  0.00  0.00    +0.046 A 
ATOM      7  C   UNL     1      38.380 -25.031 -13.927  0.00  0.00    +0.258 A 
ATOM      8  C   UNL     1      37.465 -23.350 -12.266  0.00  0.00    +0.037 C 
ATOM      9  C   UNL     1      36.858 -26.411 -15.302  0.00  0.00    +0.327 A 
ATOM     10  H   UNL     1      34.893 -25.986 -14.975  0.00  0.00    +0.170 HD
ATOM     11  H   UNL     1      38.893 -26.461 -15.275  0.00  0.00    +0.173 HD
ENDROOT
BRANCH   5  12
ATOM     12  C   UNL     1      34.648 -24.186 -13.266  0.00  0.00    +0.046 C 
BRANCH  12  13
ATOM     13  C   UNL     1      33.741 -23.817 -14.431  0.00  0.00    +0.038 C 
BRANCH  13  14
ATOM     14  C   UNL     1      32.301 -24.229 -14.157  0.00  0.00    +0.138 C 
BRANCH  14  15
ATOM     15  O   UNL     1      32.298 -25.271 -13.190  0.00  0.00    -0.382 OA
ATOM     16  H   UNL     1      31.753 -26.008 -13.510  0.00  0.00    +0.210 HD
ENDBRANCH  14  15
ENDBRANCH  13  14
ENDBRANCH  12  13
ENDBRANCH   5  12
TORSDOF 4
ENDMDL
MODEL 9
REMARK VINA RESULT:      -6.5      2.275      4.435
REMARK  Name = 1865
REMARK  4 active torsions:
REMARK  status: ('A' for Active; 'I' for Inactive)
REMARK    1  A    between atoms: C_5  and  C_12
REMARK    2  A    between atoms: C_12  and  C_13
REMARK    3  A    between atoms: C_13  and  C_14
REMARK    4  A    between atoms: C_14  and  O_15
REMARK                            x       y       z     vdW  Elec       q    Type
REMARK                         _______ _______ _______ _____ _____    ______ ____
ROOT
ATOM      1  O   UNL     1      34.811 -18.365 -24.622  0.00  0.00    -0.267 OA
ATOM      2  O   UNL     1      35.961 -19.550 -20.330  0.00  0.00    -0.247 OA
ATOM      3  N   UNL     1      35.258 -17.407 -20.756  0.00  0.00    -0.311 N 
ATOM      4  N   UNL     1      35.396 -18.967 -22.483  0.00  0.00    -0.275 N 
ATOM      5  C   UNL     1      34.820 -16.429 -21.624  0.00  0.00    +0.038 A 
ATOM      6  C   UNL     1      34.661 -16.684 -22.938  0.00  0.00    +0.046 A 
ATOM      7  C   UNL     1      34.956 -18.067 -23.439  0.00  0.00    +0.258 A 
ATOM      8  C   UNL     1      34.230 -15.701 -23.988  0.00  0.00    +0.037 C 
ATOM      9  C   UNL     1      35.568 -18.700 -21.130  0.00  0.00    +0.327 A 
ATOM     10  H   UNL     1      35.356 -17.167 -19.806  0.00  0.00    +0.170 HD
ATOM     11  H   UNL     1      35.606 -19.878 -22.790  0.00  0.00    +0.173 HD
ENDROOT
BRANCH   5  12
ATOM     12  C   UNL     1      34.539 -15.110 -20.957  0.00  0.00    +0.046 C 
BRANCH  12  13
ATOM     13  C   UNL     1      33.085 -15.004 -20.523  0.00  0.00    +0.038 C 
BRANCH  13  14
ATOM     14  C   UNL     1      32.486 -13.665 -20.930  0.00  0.00    +0.138 C 
BRANCH  14  15
ATOM     15  O   UNL     1      31.861 -13.808 -22.198  0.00  0.00    -0.382 OA
ATOM     16  H   UNL     1      32.504 -14.147 -22.841  0.00  0.00    +0.210 HD
ENDBRANCH  14  15
ENDBRANCH  13  14
ENDBRANCH  12  13
ENDBRANCH   5  12
TORSDOF 4
ENDMDL
