MODEL 1
REMARK VINA RESULT:      -7.2      0.000      0.000
REMARK  Name = 2244
REMARK  4 active torsions:
REMARK  status: ('A' for Active; 'I' for Inactive)
REMARK    1  A    between atoms: C_1  and  O_11
REMARK    2  A    between atoms: C_2  and  C_8
REMARK    3  A    between atoms: C_8  and  O_9
REMARK    4  A    between atoms: O_11  and  C_13
REMARK                            x       y       z     vdW  Elec       q    Type
REMARK                         _______ _______ _______ _____ _____    ______ ____
ROOT
ATOM      1  C   UNL     1      35.329 -21.325 -19.562  0.00  0.00    +0.155 C 
ATOM      2  C   UNL     1      33.942 -21.464 -19.545  0.00  0.00    +0.110 C 
ATOM      3  C   UNL     1      35.918 -20.298 -20.298  0.00  0.00    +0.038 C 
ATOM      4  C   UNL     1      33.143 -20.575 -20.264  0.00  0.00    +0.010 C 
ATOM      5  C   UNL     1      35.120 -19.408 -21.017  0.00  0.00    +0.003 C 
ATOM      6  C   UNL     1      33.733 -19.547 -21.001  0.00  0.00    +0.000 C 
ENDROOT
BRANCH   2   8
ATOM      7  O   UNL     1      32.351 -22.406 -18.020  0.00  0.00    -0.245 OA
ATOM      8  C   UNL     1      33.306 -22.529 -18.781  0.00  0.00    +0.341 C 
BRANCH   8   9
ATOM      9  O   UNL     1      33.900 -23.735 -19.000  0.00  0.00    -0.477 OA
ATOM     10  H   UNL     1      34.676 -23.967 -18.528  0.00  0.00    +0.295 HD
ENDBRANCH   8   9
ENDBRANCH   2   8
BRANCH   1  11
ATOM     11  O   UNL     1      36.127 -22.183 -18.864  0.00  0.00    -0.424 OA
BRANCH  11  13
ATOM     12  O   UNL     1      37.239 -20.627 -17.515  0.00  0.00    -0.250 OA
ATOM     13  C   UNL     1      36.601 -21.662 -17.650  0.00  0.00    +0.322 C 
ATOM     14  C   UNL     1      36.213 -22.567 -16.519  0.00  0.00    +0.122 C 
ENDBRANCH  11  13
ENDBRANCH   1  11
TORSDOF 4
ENDMDL
MODEL 2
REMARK VINA RESULT:      -6.8      3.766      5.238
REMARK  Name = 2244
REMARK  4 active torsions:
REMARK  status: ('A' for Active; 'I' for Inactive)
REMARK    1  A    between atoms: C_1  and  O_11
REMARK    2  A    between atoms: C_2  and  C_8
REMARK    3  A    between atoms: C_8  and  O_9
REMARK    4  A    between atoms: O_11  and  C_13
REMARK                            x       y       z     vdW  Elec       q    Type
REMARK                         _______ _______ _______ _____ _____    ______ ____
ROOT
ATOM      1  C   UNL     1      34.962 -17.433 -21.971  0.00  0.00    +0.155 C 
ATOM      2  C   UNL     1      34.708 -18.794 -22.132  0.00  0.00    +0.110 C 
ATOM      3  C   UNL     1      35.116 -16.616 -23.091  0.00  0.00    +0.038 C 
ATOM      4  C   UNL     1      34.605 -19.339 -23.412  0.00  0.00    +0.010 C 
ATOM      5  C   UNL     1      35.014 -17.159 -24.371  0.00  0.00    +0.003 C 
ATOM      6  C   UNL     1      34.759 -18.521 -24.531  0.00  0.00    +0.000 C 
ENDROOT
BRANCH   2   8
ATOM      7  O   UNL     1      33.512 -20.246 -20.645  0.00  0.00    -0.245 OA
ATOM      8  C   UNL     1      34.542 -19.666 -20.976  0.00  0.00    +0.341 C 
BRANCH   8   9
ATOM      9  O   UNL     1      35.694 -19.781 -20.258  0.00  0.00    -0.477 OA
ATOM     10  H   UNL     1      35.708 -20.294 -19.474  0.00  0.00    +0.295 HD
ENDBRANCH   8   9
ENDBRANCH   2   8
BRANCH   1  11
ATOM     11  O   UNL     1      35.063 -16.882 -20.728  0.00  0.00    -0.424 OA
BRANCH  11  13
ATOM     12  O   UNL     1      34.990 -14.563 -20.414  0.00  0.00    -0.250 OA
ATOM     13  C   UNL     1      34.430 -15.636 -20.602  0.00  0.00    +0.322 C 
ATOM     14  C   UNL     1      32.945 -15.801 -20.730  0.00  0.00    +0.122 C 
ENDBRANCH  11  13
ENDBRANCH   1  11
TORSDOF 4
ENDMDL
MODEL 3
REMARK VINA RESULT:      -6.8      5.408      6.961
REMARK  Name = 2244
REMARK  4 active torsions:
REMARK  status: ('A' for Active; 'I' for Inactive)
REMARK    1  A    between atoms: C_1  and  O_11
REMARK    2  A    between atoms: C_2  and  C_8
REMARK    3  A    between atoms: C_8  and  O_9
REMARK    4  A    between atoms: O_11  and  C_13
REMARK                            x       y       z     vdW  Elec       q    Type
REMARK                         _______ _______ _______ _____ _____    ______ ____
ROOT
ATOM      1  C   UNL     1      34.979 -16.788 -22.438  0.00  0.00    +0.155 C 
ATOM      2  C   UNL     1      34.716 -17.421 -23.653  0.00  0.00    +0.110 C 
ATOM      3  C   UNL     1      35.210 -17.548 -21.292  0.00  0.00    +0.038 C 
ATOM      4  C   UNL     1      34.684 -18.814 -23.721  0.00  0.00    +0.010 C 
ATOM      5  C   UNL     1      35.179 -18.941 -21.360  0.00  0.00    +0.003 C 
ATOM      6  C   UNL     1      34.915 -19.573 -22.574  0.00  0.00    +0.000 C 
ENDROOT
BRANCH   2   8
ATOM      7  O   UNL     1      34.982 -16.840 -25.963  0.00  0.00    -0.245 OA
ATOM      8  C   UNL     1      34.473 -16.646 -24.863  0.00  0.00    +0.341 C 
BRANCH   8   9
ATOM      9  O   UNL     1      33.586 -15.636 -24.649  0.00  0.00    -0.477 OA
ATOM     10  H   UNL     1      33.308 -15.433 -23.776  0.00  0.00    +0.295 HD
ENDBRANCH   8   9
ENDBRANCH   2   8
BRANCH   1  11
ATOM     11  O   UNL     1      35.017 -15.429 -22.351  0.00  0.00    -0.424 OA
BRANCH  11  13
ATOM     12  O   UNL     1      35.000 -14.586 -20.168  0.00  0.00    -0.250 OA
ATOM     13  C   UNL     1      34.416 -14.913 -21.193  0.00  0.00    +0.322 C 
ATOM     14  C   UNL     1      32.932 -14.816 -21.385  0.00  0.00    +0.122 C 
ENDBRANCH  11  13
ENDBRANCH   1  11
TORSDOF 4
ENDMDL
MODEL 4
REMARK VINA RESULT:      -6.8      4.673      6.082
REMARK  Name = 2244
REMARK  4 active torsions:
REMARK  status: ('A' for Active; 'I' for Inactive)
REMARK    1  A    between atoms: C_1  and  O_11
REMARK    2  A    between atoms: C_2  and  C_8
REMARK    3  A    between atoms: C_8  and  O_9
REMARK    4  A    between atoms: O_11  and  C_13
REMARK                            x       y       z     vdW  Elec       q    Type
REMARK                         _______ _______ _______ _____ _____    ______ ____
ROOT
ATOM      1  C   UNL     1      35.087 -17.078 -22.298  0.00  0.00    +0.155 C 
ATOM      2  C   UNL     1      34.528 -16.544 -23.459  0.00  0.00    +0.110 C 
ATOM      3  C   UNL     1      34.968 -16.393 -21.089  0.00  0.00    +0.038 C 
ATOM      4  C   UNL     1      33.848 -15.327 -23.411  0.00  0.00    +0.010 C 
ATOM      5  C   UNL     1      34.288 -15.176 -21.040  0.00  0.00    +0.003 C 
ATOM      6  C   UNL     1      33.730 -14.643 -22.201  0.00  0.00    +0.000 C 
ENDROOT
BRANCH   2   8
ATOM      7  O   UNL     1      34.957 -16.747 -25.809  0.00  0.00    -0.245 OA
ATOM      8  C   UNL     1      34.639 -17.244 -24.732  0.00  0.00    +0.341 C 
BRANCH   8   9
ATOM      9  O   UNL     1      34.342 -18.568 -24.611  0.00  0.00    -0.477 OA
ATOM     10  H   UNL     1      34.917 -19.212 -24.976  0.00  0.00    +0.295 HD
ENDBRANCH   8   9
ENDBRANCH   2   8
BRANCH   1  11
ATOM     11  O   UNL     1      35.753 -18.267 -22.324  0.00  0.00    -0.424 OA
BRANCH  11  13
ATOM     12  O   UNL     1      36.321 -19.296 -20.300  0.00  0.00    -0.250 OA
ATOM     13  C   UNL     1      35.522 -19.076 -21.201  0.00  0.00    +0.322 C 
ATOM     14  C   UNL     1      34.136 -19.648 -21.258  0.00  0.00    +0.122 C 
ENDBRANCH  11  13
ENDBRANCH   1  11
TORSDOF 4
ENDMDL
MODEL 5
REMARK VINA RESULT:      -6.8      5.578      7.025
REMARK  Name = 2244
REMARK  4 active torsions:
REMARK  status: ('A' for Active; 'I' for Inactive)
REMARK    1  A    between atoms: C_1  and  O_11
REMARK    2  A    between atoms: C_2  and  C_8
REMARK    3  A    between atoms: C_8  and  O_9
REMARK    4  A    between atoms: O_11  and  C_13
REMARK                            x       y       z     vdW  Elec       q    Type
REMARK                         _______ _______ _______ _____ _____    ______ ____
ROOT
ATOM      1  C   UNL     1      37.494 -24.163 -14.082  0.00  0.00    +0.155 C 
ATOM      2  C   UNL     1      36.413 -24.289 -13.210  0.00  0.00    +0.110 C 
ATOM      3  C   UNL     1      37.316 -23.569 -15.331  0.00  0.00    +0.038 C 
ATOM      4  C   UNL     1      35.154 -23.820 -13.586  0.00  0.00    +0.010 C 
ATOM      5  C   UNL     1      36.058 -23.099 -15.708  0.00  0.00    +0.003 C 
ATOM      6  C   UNL     1      34.978 -23.226 -14.836  0.00  0.00    +0.000 C 
ENDROOT
BRANCH   2   8
ATOM      7  O   UNL     1      36.602 -24.321 -10.820  0.00  0.00    -0.245 OA
ATOM      8  C   UNL     1      36.577 -24.905 -11.900  0.00  0.00    +0.341 C 
BRANCH   8   9
ATOM      9  O   UNL     1      36.708 -26.258 -11.988  0.00  0.00    -0.477 OA
ATOM     10  H   UNL     1      36.630 -26.787 -11.218  0.00  0.00    +0.295 HD
ENDBRANCH   8   9
ENDBRANCH   2   8
BRANCH   1  11
ATOM     11  O   UNL     1      38.732 -24.614 -13.732  0.00  0.00    -0.424 OA
BRANCH  11  13
ATOM     12  O   UNL     1      38.478 -26.818 -14.476  0.00  0.00    -0.250 OA
ATOM     13  C   UNL     1      39.126 -25.782 -14.401  0.00  0.00    +0.322 C 
ATOM     14  C   UNL     1      40.476 -25.585 -15.024  0.00  0.00    +0.122 C 
ENDBRANCH  11  13
ENDBRANCH   1  11
TORSDOF 4
ENDMDL
MODEL 6
REMARK VINA RESULT:      -6.8      6.048      7.600
REMARK  Name = 2244
REMARK  4 active torsions:
REMARK  status: ('A' for Active; 'I' for Inactive)
REMARK    1  A    between atoms: C_1  and  O_11
REMARK    2  A    between atoms: C_2  and  C_8
REMARK    3  A    between atoms: C_8  and  O_9
REMARK    4  A    between atoms: O_11  and  C_13
REMARK                            x       y       z     vdW  Elec       q    Type
REMARK                         _______ _______ _______ _____ _____    ______ ____
ROOT
ATOM      1  C   UNL     1      34.744 -16.318 -23.263  0.00  0.00    +0.155 C 
ATOM      2  C   UNL     1      34.260 -16.574 -24.545  0.00  0.00    +0.110 C 
ATOM      3  C   UNL     1      35.290 -17.352 -22.504  0.00  0.00    +0.038 C 
ATOM      4  C   UNL     1      34.322 -17.865 -25.069  0.00  0.00    +0.010 C 
ATOM      5  C   UNL     1      35.353 -18.644 -23.027  0.00  0.00    +0.003 C 
ATOM      6  C   UNL     1      34.868 -18.900 -24.309  0.00  0.00    +0.000 C 
ENDROOT
BRANCH   2   8
ATOM      7  O   UNL     1      33.850 -15.344 -26.561  0.00  0.00    -0.245 OA
ATOM      8  C   UNL     1      33.687 -15.507 -25.356  0.00  0.00    +0.341 C 
BRANCH   8   9
ATOM      9  O   UNL     1      32.917 -14.664 -24.614  0.00  0.00    -0.477 OA
ATOM     10  H   UNL     1      32.227 -15.007 -24.080  0.00  0.00    +0.295 HD
ENDBRANCH   8   9
ENDBRANCH   2   8
BRANCH   1  11
ATOM     11  O   UNL     1      34.695 -15.062 -22.734  0.00  0.00    -0.424 OA
BRANCH  11  13
ATOM     12  O   UNL     1      34.991 -14.867 -20.421  0.00  0.00    -0.250 OA
ATOM     13  C   UNL     1      34.270 -15.021 -21.397  0.00  0.00    +0.322 C 
ATOM     14  C   UNL     1      32.782 -15.196 -21.327  0.00  0.00    +0.122 C 
ENDBRANCH  11  13
ENDBRANCH   1  11
TORSDOF 4
ENDMDL
MODEL 7
REMARK VINA RESULT:      -6.7      5.188      6.938
REMARK  Name = 2244
REMARK  4 active torsions:
REMARK  status: ('A' for Active; 'I' for Inactive)
REMARK    1  A    between atoms: C_1  and  O_11
REMARK    2  A    between atoms: C_2  and  C_8
REMARK    3  A    between atoms: C_8  and  O_9
REMARK    4  A    between atoms: O_11  and  C_13
REMARK                            x       y       z     vdW  Elec       q    Type
REMARK                         _______ _______ _______ _____ _____    ______ ____
ROOT
ATOM      1  C   UNL     1      34.919 -16.446 -23.314  0.00  0.00    +0.155 C 
ATOM      2  C   UNL     1      35.035 -17.581 -22.511  0.00  0.00    +0.110 C 
ATOM      3  C   UNL     1      34.629 -16.580 -24.672  0.00  0.00    +0.038 C 
ATOM      4  C   UNL     1      34.861 -18.849 -23.065  0.00  0.00    +0.010 C 
ATOM      5  C   UNL     1      34.455 -17.848 -25.227  0.00  0.00    +0.003 C 
ATOM      6  C   UNL     1      34.572 -18.982 -24.423  0.00  0.00    +0.000 C 
ENDROOT
BRANCH   2   8
ATOM      7  O   UNL     1      35.075 -16.504 -20.370  0.00  0.00    -0.245 OA
ATOM      8  C   UNL     1      35.335 -17.463 -21.090  0.00  0.00    +0.341 C 
BRANCH   8   9
ATOM      9  O   UNL     1      35.964 -18.572 -20.611  0.00  0.00    -0.477 OA
ATOM     10  H   UNL     1      36.182 -19.275 -21.192  0.00  0.00    +0.295 HD
ENDBRANCH   8   9
ENDBRANCH   2   8
BRANCH   1  11
ATOM     11  O   UNL     1      35.083 -15.199 -22.791  0.00  0.00    -0.424 OA
BRANCH  11  13
ATOM     12  O   UNL     1      34.054 -13.401 -23.881  0.00  0.00    -0.250 OA
ATOM     13  C   UNL     1      34.027 -14.318 -23.070  0.00  0.00    +0.322 C 
ATOM     14  C   UNL     1      32.838 -14.658 -22.222  0.00  0.00    +0.122 C 
ENDBRANCH  11  13
ENDBRANCH   1  11
TORSDOF 4
ENDMDL
MODEL 8
REMARK VINA RESULT:      -6.7      5.131      6.767
REMARK  Name = 2244
REMARK  4 active torsions:
REMARK  status: ('A' for Active; 'I' for Inactive)
REMARK    1  A    between atoms: C_1  and  O_11
REMARK    2  A    between atoms: C_2  and  C_8
REMARK    3  A    between atoms: C_8  and  O_9
REMARK    4  A    between atoms: O_11  and  C_13
REMARK                            x       y       z     vdW  Elec       q    Type
REMARK                         _______ _______ _______ _____ _____    ______ ____
ROOT
ATOM      1  C   UNL     1      34.427 -16.027 -22.887  0.00  0.00    +0.155 C 
ATOM      2  C   UNL     1      33.919 -16.509 -21.681  0.00  0.00    +0.110 C 
ATOM      3  C   UNL     1      34.006 -14.791 -23.377  0.00  0.00    +0.038 C 
ATOM      4  C   UNL     1      32.991 -15.755 -20.964  0.00  0.00    +0.010 C 
ATOM      5  C   UNL     1      33.077 -14.036 -22.660  0.00  0.00    +0.003 C 
ATOM      6  C   UNL     1      32.570 -14.519 -21.455  0.00  0.00    +0.000 C 
ENDROOT
BRANCH   2   8
ATOM      7  O   UNL     1      33.665 -18.814 -21.073  0.00  0.00    -0.245 OA
ATOM      8  C   UNL     1      34.348 -17.797 -21.151  0.00  0.00    +0.341 C 
BRANCH   8   9
ATOM      9  O   UNL     1      35.641 -17.766 -20.726  0.00  0.00    -0.477 OA
ATOM     10  H   UNL     1      36.310 -17.419 -21.285  0.00  0.00    +0.295 HD
ENDBRANCH   8   9
ENDBRANCH   2   8
BRANCH   1  11
ATOM     11  O   UNL     1      35.337 -16.748 -23.601  0.00  0.00    -0.424 OA
BRANCH  11  13
ATOM     12  O   UNL     1      34.726 -16.646 -25.858  0.00  0.00    -0.250 OA
ATOM     13  C   UNL     1      34.839 -17.264 -24.807  0.00  0.00    +0.322 C 
ATOM     14  C   UNL     1      34.454 -18.703 -24.630  0.00  0.00    +0.122 C 
ENDBRANCH  11  13
ENDBRANCH   1  11
TORSDOF 4
ENDMDL
MODEL 9
REMARK VINA RESULT:      -6.7      3.875      5.236
REMARK  Name = 2244
REMARK  4 active torsions:
REMARK  status: ('A' for Active; 'I' for Inactive)
REMARK    1  A    between atoms: C_1  and  O_11
REMARK    2  A    between atoms: C_2  and  C_8
REMARK    3  A    between atoms: C_8  and  O_9
REMARK    4  A    between atoms: O_11  and  C_13
REMARK                            x       y       z     vdW  Elec       q    Type
REMARK                         _______ _______ _______ _____ _____    ______ ____
ROOT
ATOM      1  C   UNL     1      34.495 -18.317 -22.241  0.00  0.00    +0.155 C 
ATOM      2  C   UNL     1      34.529 -16.930 -22.383  0.00  0.00    +0.110 C 
ATOM      3  C   UNL     1      34.628 -19.136 -23.362  0.00  0.00    +0.038 C 
ATOM      4  C   UNL     1      34.695 -16.362 -23.646  0.00  0.00    +0.010 C 
ATOM      5  C   UNL     1      34.795 -18.568 -24.625  0.00  0.00    +0.003 C 
ATOM      6  C   UNL     1      34.828 -17.182 -24.766  0.00  0.00    +0.000 C 
ENDROOT
BRANCH   2   8
ATOM      7  O   UNL     1      33.629 -15.102 -21.120  0.00  0.00    -0.245 OA
ATOM      8  C   UNL     1      34.394 -16.057 -21.225  0.00  0.00    +0.341 C 
BRANCH   8   9
ATOM      9  O   UNL     1      35.239 -16.415 -20.218  0.00  0.00    -0.477 OA
ATOM     10  H   UNL     1      35.643 -15.755 -19.689  0.00  0.00    +0.295 HD
ENDBRANCH   8   9
ENDBRANCH   2   8
BRANCH   1  11
ATOM     11  O   UNL     1      34.336 -18.892 -21.015  0.00  0.00    -0.424 OA
BRANCH  11  13
ATOM     12  O   UNL     1      36.610 -19.210 -20.565  0.00  0.00    -0.250 OA
ATOM     13  C   UNL     1      35.455 -19.613 -20.572  0.00  0.00    +0.322 C 
ATOM     14  C   UNL     1      35.033 -20.973 -20.099  0.00  0.00    +0.122 C 
ENDBRANCH  11  13
ENDBRANCH   1  11
TORSDOF 4
ENDMDL
