MODEL 1
REMARK VINA RESULT:      -7.1      0.000      0.000
REMARK  Name = 33014
REMARK  5 active torsions:
REMARK  status: ('A' for Active; 'I' for Inactive)
REMARK    1  A    between atoms: C_2  and  C_12
REMARK    2  A    between atoms: C_2  and  C_18
REMARK    3  A    between atoms: C_18  and  C_19
REMARK    4  A    between atoms: C_19  and  C_20
REMARK    5  A    between atoms: C_20  and  N_21
REMARK                            x       y       z     vdW  Elec       q    Type
REMARK                         _______ _______ _______ _____ _____    ______ ____
ROOT
ATOM      1  S   UNL     1      36.516 -19.050 -21.237  0.00  0.00    -0.131 S 
ATOM      2  C   UNL     1      34.667 -19.019 -21.456  0.00  0.00    +0.076 C 
ATOM      3  C   UNL     1      36.541 -20.476 -20.067  0.00  0.00    +0.058 C 
ATOM      4  C   UNL     1      34.133 -20.085 -20.510  0.00  0.00    -0.013 C 
ATOM      5  C   UNL     1      35.095 -20.826 -19.801  0.00  0.00    -0.016 C 
ATOM      6  C   UNL     1      37.266 -20.030 -18.793  0.00  0.00    +0.015 C 
ATOM      7  C   UNL     1      37.282 -21.634 -20.745  0.00  0.00    +0.015 C 
ATOM      8  C   UNL     1      32.772 -20.354 -20.335  0.00  0.00    -0.003 C 
ATOM      9  C   UNL     1      34.684 -21.829 -18.917  0.00  0.00    -0.004 C 
ATOM     10  C   UNL     1      32.372 -21.353 -19.449  0.00  0.00    -0.000 C 
ATOM     11  C   UNL     1      33.324 -22.088 -18.742  0.00  0.00    -0.000 C 
ENDROOT
BRANCH   2  12
ATOM     12  C   UNL     1      34.181 -17.651 -21.098  0.00  0.00    -0.010 C 
ATOM     13  C   UNL     1      35.099 -16.644 -20.807  0.00  0.00    -0.003 C 
ATOM     14  C   UNL     1      32.814 -17.388 -21.060  0.00  0.00    -0.003 C 
ATOM     15  C   UNL     1      34.646 -15.367 -20.473  0.00  0.00    -0.000 C 
ATOM     16  C   UNL     1      32.361 -16.112 -20.728  0.00  0.00    -0.000 C 
ATOM     17  C   UNL     1      33.277 -15.101 -20.435  0.00  0.00    -0.000 C 
ENDBRANCH   2  12
BRANCH   2  18
ATOM     18  C   UNL     1      34.346 -19.339 -22.916  0.00  0.00    +0.016 C 
BRANCH  18  19
ATOM     19  C   UNL     1      35.380 -18.728 -23.856  0.00  0.00    -0.022 C 
BRANCH  19  20
ATOM     20  C   UNL     1      34.728 -17.725 -24.807  0.00  0.00    -0.082 C 
BRANCH  20  21
ATOM     21  N   UNL     1      35.092 -16.364 -24.435  0.00  0.00    +0.382 N 
ATOM     22  C   UNL     1      33.905 -15.558 -24.187  0.00  0.00    -0.106 C 
ATOM     23  H   UNL     1      35.629 -15.943 -25.193  0.00  0.00    -0.085 HD
ATOM     24  H   UNL     1      35.649 -16.396 -23.581  0.00  0.00    -0.085 HD
ENDBRANCH  20  21
ENDBRANCH  19  20
ENDBRANCH  18  19
ENDBRANCH   2  18
TORSDOF 5
ENDMDL
MODEL 2
REMARK VINA RESULT:      -6.9      6.160      9.074
REMARK  Name = 33014
REMARK  5 active torsions:
REMARK  status: ('A' for Active; 'I' for Inactive)
REMARK    1  A    between atoms: C_2  and  C_12
REMARK    2  A    between atoms: C_2  and  C_18
REMARK    3  A    between atoms: C_18  and  C_19
REMARK    4  A    between atoms: C_19  and  C_20
REMARK    5  A    between atoms: C_20  and  N_21
REMARK                            x       y       z     vdW  Elec       q    Type
REMARK                         _______ _______ _______ _____ _____    ______ ____
ROOT
ATOM      1  S   UNL     1      35.055 -23.001 -12.662  0.00  0.00    -0.131 S 
ATOM      2  C   UNL     1      34.838 -23.697 -14.376  0.00  0.00    +0.076 C 
ATOM      3  C   UNL     1      36.325 -24.227 -12.123  0.00  0.00    +0.058 C 
ATOM      4  C   UNL     1      35.715 -24.939 -14.418  0.00  0.00    -0.013 C 
ATOM      5  C   UNL     1      36.471 -25.208 -13.263  0.00  0.00    -0.016 C 
ATOM      6  C   UNL     1      35.815 -24.905 -10.847  0.00  0.00    +0.015 C 
ATOM      7  C   UNL     1      37.633 -23.472 -11.861  0.00  0.00    +0.015 C 
ATOM      8  C   UNL     1      35.803 -25.789 -15.526  0.00  0.00    -0.003 C 
ATOM      9  C   UNL     1      37.307 -26.328 -13.227  0.00  0.00    -0.004 C 
ATOM     10  C   UNL     1      36.636 -26.905 -15.479  0.00  0.00    -0.000 C 
ATOM     11  C   UNL     1      37.386 -27.175 -14.334  0.00  0.00    -0.000 C 
ENDROOT
BRANCH   2  12
ATOM     12  C   UNL     1      33.390 -24.018 -14.566  0.00  0.00    -0.010 C 
ATOM     13  C   UNL     1      32.694 -23.468 -15.640  0.00  0.00    -0.003 C 
ATOM     14  C   UNL     1      32.746 -24.867 -13.671  0.00  0.00    -0.003 C 
ATOM     15  C   UNL     1      31.343 -23.768 -15.817  0.00  0.00    -0.000 C 
ATOM     16  C   UNL     1      31.395 -25.167 -13.849  0.00  0.00    -0.000 C 
ATOM     17  C   UNL     1      30.694 -24.618 -14.922  0.00  0.00    -0.000 C 
ENDBRANCH   2  12
BRANCH   2  18
ATOM     18  C   UNL     1      35.292 -22.644 -15.388  0.00  0.00    +0.016 C 
BRANCH  18  19
ATOM     19  C   UNL     1      36.813 -22.552 -15.446  0.00  0.00    -0.022 C 
BRANCH  19  20
ATOM     20  C   UNL     1      37.274 -21.970 -16.781  0.00  0.00    -0.082 C 
BRANCH  20  21
ATOM     21  N   UNL     1      36.192 -22.021 -17.757  0.00  0.00    +0.382 N 
ATOM     22  C   UNL     1      36.561 -21.321 -18.978  0.00  0.00    -0.106 C 
ATOM     23  H   UNL     1      35.362 -21.583 -17.359  0.00  0.00    -0.085 HD
ATOM     24  H   UNL     1      36.004 -22.997 -17.984  0.00  0.00    -0.085 HD
ENDBRANCH  20  21
ENDBRANCH  19  20
ENDBRANCH  18  19
ENDBRANCH   2  18
TORSDOF 5
ENDMDL
MODEL 3
REMARK VINA RESULT:      -5.8      8.946     11.240
REMARK  Name = 33014
REMARK  5 active torsions:
REMARK  status: ('A' for Active; 'I' for Inactive)
REMARK    1  A    between atoms: C_2  and  C_12
REMARK    2  A    between atoms: C_2  and  C_18
REMARK    3  A    between atoms: C_18  and  C_19
REMARK    4  A    between atoms: C_19  and  C_20
REMARK    5  A    between atoms: C_20  and  N_21
REMARK                            x       y       z     vdW  Elec       q    Type
REMARK                         _______ _______ _______ _____ _____    ______ ____
ROOT
ATOM      1  S   UNL     1      32.966  -7.163 -22.681  0.00  0.00    -0.131 S 
ATOM      2  C   UNL     1      32.132  -8.805 -22.962  0.00  0.00    +0.076 C 
ATOM      3  C   UNL     1      34.412  -7.499 -23.777  0.00  0.00    +0.058 C 
ATOM      4  C   UNL     1      33.089  -9.595 -23.842  0.00  0.00    -0.013 C 
ATOM      5  C   UNL     1      34.255  -8.925 -24.254  0.00  0.00    -0.016 C 
ATOM      6  C   UNL     1      35.687  -7.311 -22.948  0.00  0.00    +0.015 C 
ATOM      7  C   UNL     1      34.364  -6.509 -24.945  0.00  0.00    +0.015 C 
ATOM      8  C   UNL     1      32.857 -10.913 -24.251  0.00  0.00    -0.003 C 
ATOM      9  C   UNL     1      35.181  -9.582 -25.069  0.00  0.00    -0.004 C 
ATOM     10  C   UNL     1      33.788 -11.561 -25.061  0.00  0.00    -0.000 C 
ATOM     11  C   UNL     1      34.947 -10.898 -25.469  0.00  0.00    -0.000 C 
ENDROOT
BRANCH   2  12
ATOM     12  C   UNL     1      31.921  -9.451 -21.631  0.00  0.00    -0.010 C 
ATOM     13  C   UNL     1      32.380  -8.822 -20.475  0.00  0.00    -0.003 C 
ATOM     14  C   UNL     1      31.266 -10.677 -21.551  0.00  0.00    -0.003 C 
ATOM     15  C   UNL     1      32.183  -9.425 -19.233  0.00  0.00    -0.000 C 
ATOM     16  C   UNL     1      31.069 -11.280 -20.309  0.00  0.00    -0.000 C 
ATOM     17  C   UNL     1      31.527 -10.653 -19.149  0.00  0.00    -0.000 C 
ENDBRANCH   2  12
BRANCH   2  18
ATOM     18  C   UNL     1      30.793  -8.556 -23.657  0.00  0.00    +0.016 C 
BRANCH  18  19
ATOM     19  C   UNL     1      30.361  -7.099 -23.520  0.00  0.00    -0.022 C 
BRANCH  19  20
ATOM     20  C   UNL     1      30.765  -6.293 -24.753  0.00  0.00    -0.082 C 
BRANCH  20  21
ATOM     21  N   UNL     1      30.675  -4.864 -24.477  0.00  0.00    +0.382 N 
ATOM     22  C   UNL     1      31.524  -4.105 -25.384  0.00  0.00    -0.106 C 
ATOM     23  H   UNL     1      30.974  -4.691 -23.517  0.00  0.00    -0.085 HD
ATOM     24  H   UNL     1      29.709  -4.567 -24.607  0.00  0.00    -0.085 HD
ENDBRANCH  20  21
ENDBRANCH  19  20
ENDBRANCH  18  19
ENDBRANCH   2  18
TORSDOF 5
ENDMDL
MODEL 4
REMARK VINA RESULT:      -5.7      7.111     11.254
REMARK  Name = 33014
REMARK  5 active torsions:
REMARK  status: ('A' for Active; 'I' for Inactive)
REMARK    1  A    between atoms: C_2  and  C_12
REMARK    2  A    between atoms: C_2  and  C_18
REMARK    3  A    between atoms: C_18  and  C_19
REMARK    4  A    between atoms: C_19  and  C_20
REMARK    5  A    between atoms: C_20  and  N_21
REMARK                            x       y       z     vdW  Elec       q    Type
REMARK                         _______ _______ _______ _____ _____    ______ ____
ROOT
ATOM      1  S   UNL     1      32.823  -9.385 -20.937  0.00  0.00    -0.131 S 
ATOM      2  C   UNL     1      32.123  -9.432 -22.662  0.00  0.00    +0.076 C 
ATOM      3  C   UNL     1      32.299  -7.655 -20.571  0.00  0.00    +0.058 C 
ATOM      4  C   UNL     1      31.585  -8.032 -22.915  0.00  0.00    -0.013 C 
ATOM      5  C   UNL     1      31.679  -7.126 -21.844  0.00  0.00    -0.016 C 
ATOM      6  C   UNL     1      33.545  -6.859 -20.168  0.00  0.00    +0.015 C 
ATOM      7  C   UNL     1      31.280  -7.698 -19.427  0.00  0.00    +0.015 C 
ATOM      8  C   UNL     1      31.011  -7.629 -24.125  0.00  0.00    -0.003 C 
ATOM      9  C   UNL     1      31.201  -5.820 -21.995  0.00  0.00    -0.004 C 
ATOM     10  C   UNL     1      30.539  -6.325 -24.268  0.00  0.00    -0.000 C 
ATOM     11  C   UNL     1      30.634  -5.423 -23.207  0.00  0.00    -0.000 C 
ENDROOT
BRANCH   2  12
ATOM     12  C   UNL     1      33.229  -9.792 -23.602  0.00  0.00    -0.010 C 
ATOM     13  C   UNL     1      34.295  -8.913 -23.786  0.00  0.00    -0.003 C 
ATOM     14  C   UNL     1      33.191 -11.004 -24.286  0.00  0.00    -0.003 C 
ATOM     15  C   UNL     1      35.327  -9.248 -24.663  0.00  0.00    -0.000 C 
ATOM     16  C   UNL     1      34.224 -11.339 -25.162  0.00  0.00    -0.000 C 
ATOM     17  C   UNL     1      35.292 -10.462 -25.350  0.00  0.00    -0.000 C 
ENDBRANCH   2  12
BRANCH   2  18
ATOM     18  C   UNL     1      31.016 -10.486 -22.708  0.00  0.00    +0.016 C 
BRANCH  18  19
ATOM     19  C   UNL     1      30.792 -11.112 -21.335  0.00  0.00    -0.022 C 
BRANCH  19  20
ATOM     20  C   UNL     1      31.623 -12.383 -21.173  0.00  0.00    -0.082 C 
BRANCH  20  21
ATOM     21  N   UNL     1      31.671 -13.121 -22.429  0.00  0.00    +0.382 N 
ATOM     22  C   UNL     1      32.691 -14.159 -22.384  0.00  0.00    -0.106 C 
ATOM     23  H   UNL     1      31.886 -12.475 -23.188  0.00  0.00    -0.085 HD
ATOM     24  H   UNL     1      30.764 -13.561 -22.585  0.00  0.00    -0.085 HD
ENDBRANCH  20  21
ENDBRANCH  19  20
ENDBRANCH  18  19
ENDBRANCH   2  18
TORSDOF 5
ENDMDL
MODEL 5
REMARK VINA RESULT:      -5.6      7.474      9.862
REMARK  Name = 33014
REMARK  5 active torsions:
REMARK  status: ('A' for Active; 'I' for Inactive)
REMARK    1  A    between atoms: C_2  and  C_12
REMARK    2  A    between atoms: C_2  and  C_18
REMARK    3  A    between atoms: C_18  and  C_19
REMARK    4  A    between atoms: C_19  and  C_20
REMARK    5  A    between atoms: C_20  and  N_21
REMARK                            x       y       z     vdW  Elec       q    Type
REMARK                         _______ _______ _______ _____ _____    ______ ____
ROOT
ATOM      1  S   UNL     1      35.498 -23.793 -16.171  0.00  0.00    -0.131 S 
ATOM      2  C   UNL     1      34.831 -24.589 -14.624  0.00  0.00    +0.076 C 
ATOM      3  C   UNL     1      36.862 -22.876 -15.335  0.00  0.00    +0.058 C 
ATOM      4  C   UNL     1      35.662 -24.013 -13.488  0.00  0.00    -0.013 C 
ATOM      5  C   UNL     1      36.698 -23.136 -13.855  0.00  0.00    -0.016 C 
ATOM      6  C   UNL     1      36.709 -21.389 -15.675  0.00  0.00    +0.015 C 
ATOM      7  C   UNL     1      38.194 -23.425 -15.856  0.00  0.00    +0.015 C 
ATOM      8  C   UNL     1      35.450 -24.321 -12.139  0.00  0.00    -0.003 C 
ATOM      9  C   UNL     1      37.511 -22.570 -12.868  0.00  0.00    -0.004 C 
ATOM     10  C   UNL     1      36.263 -23.749 -11.162  0.00  0.00    -0.000 C 
ATOM     11  C   UNL     1      37.290 -22.877 -11.524  0.00  0.00    -0.000 C 
ENDROOT
BRANCH   2  12
ATOM     12  C   UNL     1      33.384 -24.231 -14.506  0.00  0.00    -0.010 C 
ATOM     13  C   UNL     1      32.527 -25.045 -13.768  0.00  0.00    -0.003 C 
ATOM     14  C   UNL     1      32.900 -23.085 -15.131  0.00  0.00    -0.003 C 
ATOM     15  C   UNL     1      31.177 -24.711 -13.657  0.00  0.00    -0.000 C 
ATOM     16  C   UNL     1      31.550 -22.751 -15.019  0.00  0.00    -0.000 C 
ATOM     17  C   UNL     1      30.689 -23.564 -14.282  0.00  0.00    -0.000 C 
ENDBRANCH   2  12
BRANCH   2  18
ATOM     18  C   UNL     1      35.001 -26.103 -14.745  0.00  0.00    +0.016 C 
BRANCH  18  19
ATOM     19  C   UNL     1      36.370 -26.462 -15.313  0.00  0.00    -0.022 C 
BRANCH  19  20
ATOM     20  C   UNL     1      37.279 -27.034 -14.227  0.00  0.00    -0.082 C 
BRANCH  20  21
ATOM     21  N   UNL     1      38.636 -26.525 -14.381  0.00  0.00    +0.382 N 
ATOM     22  C   UNL     1      39.046 -25.773 -13.205  0.00  0.00    -0.106 C 
ATOM     23  H   UNL     1      38.673 -25.915 -15.197  0.00  0.00    -0.085 HD
ATOM     24  H   UNL     1      39.270 -27.316 -14.500  0.00  0.00    -0.085 HD
ENDBRANCH  20  21
ENDBRANCH  19  20
ENDBRANCH  18  19
ENDBRANCH   2  18
TORSDOF 5
ENDMDL
MODEL 6
REMARK VINA RESULT:      -5.3      4.209      8.309
REMARK  Name = 33014
REMARK  5 active torsions:
REMARK  status: ('A' for Active; 'I' for Inactive)
REMARK    1  A    between atoms: C_2  and  C_12
REMARK    2  A    between atoms: C_2  and  C_18
REMARK    3  A    between atoms: C_18  and  C_19
REMARK    4  A    between atoms: C_19  and  C_20
REMARK    5  A    between atoms: C_20  and  N_21
REMARK                            x       y       z     vdW  Elec       q    Type
REMARK                         _______ _______ _______ _____ _____    ______ ____
ROOT
ATOM      1  S   UNL     1      32.427 -14.130 -24.665  0.00  0.00    -0.131 S 
ATOM      2  C   UNL     1      33.405 -13.018 -23.534  0.00  0.00    +0.076 C 
ATOM      3  C   UNL     1      33.052 -13.393 -26.236  0.00  0.00    +0.058 C 
ATOM      4  C   UNL     1      34.117 -12.038 -24.454  0.00  0.00    -0.013 C 
ATOM      5  C   UNL     1      33.932 -12.231 -25.835  0.00  0.00    -0.016 C 
ATOM      6  C   UNL     1      31.842 -12.937 -27.058  0.00  0.00    +0.015 C 
ATOM      7  C   UNL     1      33.850 -14.468 -26.982  0.00  0.00    +0.015 C 
ATOM      8  C   UNL     1      34.928 -10.994 -23.996  0.00  0.00    -0.003 C 
ATOM      9  C   UNL     1      34.558 -11.374 -26.745  0.00  0.00    -0.004 C 
ATOM     10  C   UNL     1      35.546 -10.143 -24.911  0.00  0.00    -0.000 C 
ATOM     11  C   UNL     1      35.362 -10.332 -26.281  0.00  0.00    -0.000 C 
ENDROOT
BRANCH   2  12
ATOM     12  C   UNL     1      32.446 -12.336 -22.612  0.00  0.00    -0.010 C 
ATOM     13  C   UNL     1      32.233 -12.847 -21.333  0.00  0.00    -0.003 C 
ATOM     14  C   UNL     1      31.772 -11.194 -23.034  0.00  0.00    -0.003 C 
ATOM     15  C   UNL     1      31.339 -12.211 -20.472  0.00  0.00    -0.000 C 
ATOM     16  C   UNL     1      30.878 -10.557 -22.173  0.00  0.00    -0.000 C 
ATOM     17  C   UNL     1      30.662 -11.066 -20.892  0.00  0.00    -0.000 C 
ENDBRANCH   2  12
BRANCH   2  18
ATOM     18  C   UNL     1      34.392 -13.878 -22.744  0.00  0.00    +0.016 C 
BRANCH  18  19
ATOM     19  C   UNL     1      34.595 -15.237 -23.405  0.00  0.00    -0.022 C 
BRANCH  19  20
ATOM     20  C   UNL     1      34.933 -16.305 -22.366  0.00  0.00    -0.082 C 
BRANCH  20  21
ATOM     21  N   UNL     1      35.759 -17.347 -22.961  0.00  0.00    +0.382 N 
ATOM     22  C   UNL     1      35.068 -17.990 -24.069  0.00  0.00    -0.106 C 
ATOM     23  H   UNL     1      35.975 -18.048 -22.252  0.00  0.00    -0.085 HD
ATOM     24  H   UNL     1      36.617 -16.923 -23.313  0.00  0.00    -0.085 HD
ENDBRANCH  20  21
ENDBRANCH  19  20
ENDBRANCH  18  19
ENDBRANCH   2  18
TORSDOF 5
ENDMDL
MODEL 7
REMARK VINA RESULT:      -5.2      6.522      9.807
REMARK  Name = 33014
REMARK  5 active torsions:
REMARK  status: ('A' for Active; 'I' for Inactive)
REMARK    1  A    between atoms: C_2  and  C_12
REMARK    2  A    between atoms: C_2  and  C_18
REMARK    3  A    between atoms: C_18  and  C_19
REMARK    4  A    between atoms: C_19  and  C_20
REMARK    5  A    between atoms: C_20  and  N_21
REMARK                            x       y       z     vdW  Elec       q    Type
REMARK                         _______ _______ _______ _____ _____    ______ ____
ROOT
ATOM      1  S   UNL     1      32.864 -24.823 -13.682  0.00  0.00    -0.131 S 
ATOM      2  C   UNL     1      34.454 -24.625 -14.631  0.00  0.00    +0.076 C 
ATOM      3  C   UNL     1      31.802 -23.957 -14.917  0.00  0.00    +0.058 C 
ATOM      4  C   UNL     1      34.092 -23.789 -15.850  0.00  0.00    -0.013 C 
ATOM      5  C   UNL     1      32.735 -23.448 -15.990  0.00  0.00    -0.016 C 
ATOM      6  C   UNL     1      31.079 -22.813 -14.197  0.00  0.00    +0.015 C 
ATOM      7  C   UNL     1      30.801 -24.972 -15.479  0.00  0.00    +0.015 C 
ATOM      8  C   UNL     1      35.023 -23.372 -16.807  0.00  0.00    -0.003 C 
ATOM      9  C   UNL     1      32.322 -22.686 -17.088  0.00  0.00    -0.004 C 
ATOM     10  C   UNL     1      34.602 -22.610 -17.896  0.00  0.00    -0.000 C 
ATOM     11  C   UNL     1      33.256 -22.267 -18.037  0.00  0.00    -0.000 C 
ENDROOT
BRANCH   2  12
ATOM     12  C   UNL     1      35.441 -23.936 -13.744  0.00  0.00    -0.010 C 
ATOM     13  C   UNL     1      35.358 -24.094 -12.362  0.00  0.00    -0.003 C 
ATOM     14  C   UNL     1      36.438 -23.141 -14.303  0.00  0.00    -0.003 C 
ATOM     15  C   UNL     1      36.278 -23.451 -11.534  0.00  0.00    -0.000 C 
ATOM     16  C   UNL     1      37.359 -22.499 -13.474  0.00  0.00    -0.000 C 
ATOM     17  C   UNL     1      37.279 -22.654 -12.090  0.00  0.00    -0.000 C 
ENDBRANCH   2  12
BRANCH   2  18
ATOM     18  C   UNL     1      34.961 -26.013 -15.022  0.00  0.00    +0.016 C 
BRANCH  18  19
ATOM     19  C   UNL     1      36.478 -26.023 -15.183  0.00  0.00    -0.022 C 
BRANCH  19  20
ATOM     20  C   UNL     1      37.129 -26.955 -14.162  0.00  0.00    -0.082 C 
BRANCH  20  21
ATOM     21  N   UNL     1      38.243 -26.286 -13.503  0.00  0.00    +0.382 N 
ATOM     22  C   UNL     1      39.155 -25.708 -14.480  0.00  0.00    -0.106 C 
ATOM     23  H   UNL     1      38.750 -26.963 -12.933  0.00  0.00    -0.085 HD
ATOM     24  H   UNL     1      37.874 -25.536 -12.918  0.00  0.00    -0.085 HD
ENDBRANCH  20  21
ENDBRANCH  19  20
ENDBRANCH  18  19
ENDBRANCH   2  18
TORSDOF 5
ENDMDL
MODEL 8
REMARK VINA RESULT:      -5.2      4.850      8.823
REMARK  Name = 33014
REMARK  5 active torsions:
REMARK  status: ('A' for Active; 'I' for Inactive)
REMARK    1  A    between atoms: C_2  and  C_12
REMARK    2  A    between atoms: C_2  and  C_18
REMARK    3  A    between atoms: C_18  and  C_19
REMARK    4  A    between atoms: C_19  and  C_20
REMARK    5  A    between atoms: C_20  and  N_21
REMARK                            x       y       z     vdW  Elec       q    Type
REMARK                         _______ _______ _______ _____ _____    ______ ____
ROOT
ATOM      1  S   UNL     1      31.126 -11.321 -22.001  0.00  0.00    -0.131 S 
ATOM      2  C   UNL     1      32.377 -12.211 -23.057  0.00  0.00    +0.076 C 
ATOM      3  C   UNL     1      31.802  -9.631 -22.297  0.00  0.00    +0.058 C 
ATOM      4  C   UNL     1      33.344 -11.134 -23.524  0.00  0.00    -0.013 C 
ATOM      5  C   UNL     1      33.048  -9.817 -23.132  0.00  0.00    -0.016 C 
ATOM      6  C   UNL     1      32.115  -9.002 -20.935  0.00  0.00    +0.015 C 
ATOM      7  C   UNL     1      30.741  -8.818 -23.047  0.00  0.00    +0.015 C 
ATOM      8  C   UNL     1      34.471 -11.394 -24.311  0.00  0.00    -0.003 C 
ATOM      9  C   UNL     1      33.887  -8.770 -23.527  0.00  0.00    -0.004 C 
ATOM     10  C   UNL     1      35.303 -10.345 -24.698  0.00  0.00    -0.000 C 
ATOM     11  C   UNL     1      35.013  -9.037 -24.308  0.00  0.00    -0.000 C 
ENDROOT
BRANCH   2  12
ATOM     12  C   UNL     1      33.046 -13.245 -22.209  0.00  0.00    -0.010 C 
ATOM     13  C   UNL     1      32.447 -13.662 -21.022  0.00  0.00    -0.003 C 
ATOM     14  C   UNL     1      34.264 -13.788 -22.611  0.00  0.00    -0.003 C 
ATOM     15  C   UNL     1      33.072 -14.627 -20.232  0.00  0.00    -0.000 C 
ATOM     16  C   UNL     1      34.888 -14.753 -21.820  0.00  0.00    -0.000 C 
ATOM     17  C   UNL     1      34.291 -15.173 -20.631  0.00  0.00    -0.000 C 
ENDBRANCH   2  12
BRANCH   2  18
ATOM     18  C   UNL     1      31.645 -12.867 -24.227  0.00  0.00    +0.016 C 
BRANCH  18  19
ATOM     19  C   UNL     1      32.331 -14.161 -24.654  0.00  0.00    -0.022 C 
BRANCH  19  20
ATOM     20  C   UNL     1      32.724 -14.109 -26.129  0.00  0.00    -0.082 C 
BRANCH  20  21
ATOM     21  N   UNL     1      33.300 -15.382 -26.544  0.00  0.00    +0.382 N 
ATOM     22  C   UNL     1      33.868 -16.092 -25.407  0.00  0.00    -0.106 C 
ATOM     23  H   UNL     1      34.036 -15.208 -27.229  0.00  0.00    -0.085 HD
ATOM     24  H   UNL     1      32.563 -15.956 -26.953  0.00  0.00    -0.085 HD
ENDBRANCH  20  21
ENDBRANCH  19  20
ENDBRANCH  18  19
ENDBRANCH   2  18
TORSDOF 5
ENDMDL
MODEL 9
REMARK VINA RESULT:      -5.0      6.648     10.022
REMARK  Name = 33014
REMARK  5 active torsions:
REMARK  status: ('A' for Active; 'I' for Inactive)
REMARK    1  A    between atoms: C_2  and  C_12
REMARK    2  A    between atoms: C_2  and  C_18
REMARK    3  A    between atoms: C_18  and  C_19
REMARK    4  A    between atoms: C_19  and  C_20
REMARK    5  A    between atoms: C_20  and  N_21
REMARK                            x       y       z     vdW  Elec       q    Type
REMARK                         _______ _______ _______ _____ _____    ______ ____
ROOT
ATOM      1  S   UNL     1      33.782 -24.664 -14.666  0.00  0.00    -0.131 S 
ATOM      2  C   UNL     1      35.639 -24.591 -14.538  0.00  0.00    +0.076 C 
ATOM      3  C   UNL     1      33.647 -23.492 -16.084  0.00  0.00    +0.058 C 
ATOM      4  C   UNL     1      36.071 -23.558 -15.569  0.00  0.00    -0.013 C 
ATOM      5  C   UNL     1      35.049 -22.997 -16.355  0.00  0.00    -0.016 C 
ATOM      6  C   UNL     1      32.709 -22.354 -15.668  0.00  0.00    +0.015 C 
ATOM      7  C   UNL     1      33.082 -24.260 -17.283  0.00  0.00    +0.015 C 
ATOM      8  C   UNL     1      37.400 -23.168 -15.764  0.00  0.00    -0.003 C 
ATOM      9  C   UNL     1      35.367 -22.045 -17.328  0.00  0.00    -0.004 C 
ATOM     10  C   UNL     1      37.707 -22.215 -16.734  0.00  0.00    -0.000 C 
ATOM     11  C   UNL     1      36.694 -21.655 -17.514  0.00  0.00    -0.000 C 
ENDROOT
BRANCH   2  12
ATOM     12  C   UNL     1      35.993 -24.183 -13.144  0.00  0.00    -0.010 C 
ATOM     13  C   UNL     1      37.026 -23.273 -12.930  0.00  0.00    -0.003 C 
ATOM     14  C   UNL     1      35.286 -24.711 -12.067  0.00  0.00    -0.003 C 
ATOM     15  C   UNL     1      37.356 -22.892 -11.629  0.00  0.00    -0.000 C 
ATOM     16  C   UNL     1      35.616 -24.329 -10.766  0.00  0.00    -0.000 C 
ATOM     17  C   UNL     1      36.650 -23.419 -10.547  0.00  0.00    -0.000 C 
ENDBRANCH   2  12
BRANCH   2  18
ATOM     18  C   UNL     1      36.202 -25.978 -14.851  0.00  0.00    +0.016 C 
BRANCH  18  19
ATOM     19  C   UNL     1      37.361 -26.326 -13.923  0.00  0.00    -0.022 C 
BRANCH  19  20
ATOM     20  C   UNL     1      38.643 -26.568 -14.719  0.00  0.00    -0.082 C 
BRANCH  20  21
ATOM     21  N   UNL     1      39.809 -26.194 -13.928  0.00  0.00    +0.382 N 
ATOM     22  C   UNL     1      40.509 -25.071 -14.535  0.00  0.00    -0.106 C 
ATOM     23  H   UNL     1      40.443 -26.991 -13.871  0.00  0.00    -0.085 HD
ATOM     24  H   UNL     1      39.497 -25.920 -12.997  0.00  0.00    -0.085 HD
ENDBRANCH  20  21
ENDBRANCH  19  20
ENDBRANCH  18  19
ENDBRANCH   2  18
TORSDOF 5
ENDMDL
