MODEL 1
REMARK VINA RESULT:      -9.1      0.000      0.000
REMARK  Name = 26987
REMARK  6 active torsions:
REMARK  status: ('A' for Active; 'I' for Inactive)
REMARK    1  A    between atoms: C_1  and  C_4
REMARK    2  A    between atoms: C_1  and  C_10
REMARK    3  A    between atoms: C_1  and  O_16
REMARK    4  A    between atoms: O_16  and  C_17
REMARK    5  A    between atoms: C_17  and  C_18
REMARK    6  A    between atoms: C_18  and  C_20
REMARK                            x       y       z     vdW  Elec       q    Type
REMARK                         _______ _______ _______ _____ _____    ______ ____
ROOT
ATOM      1  C   UNL     1      34.300 -17.746 -21.480  0.00  0.00    +0.130 C 
ATOM      2  C   UNL     1      35.419 -16.835 -20.934  0.00  0.00    +0.039 C 
ENDROOT
BRANCH   1   4
ATOM      3 CL   UNL     1      33.900 -23.129 -18.856  0.00  0.00    -0.082 Cl
ATOM      4  C   UNL     1      34.199 -19.120 -20.811  0.00  0.00    +0.006 C 
ATOM      5  C   UNL     1      35.357 -19.813 -20.553  0.00  0.00    -0.001 C 
ATOM      6  C   UNL     1      32.951 -19.606 -20.494  0.00  0.00    -0.001 C 
ATOM      7  C   UNL     1      35.265 -21.064 -19.943  0.00  0.00    +0.011 C 
ATOM      8  C   UNL     1      32.859 -20.856 -19.885  0.00  0.00    +0.011 C 
ATOM      9  C   UNL     1      34.014 -21.586 -19.608  0.00  0.00    +0.058 C 
ENDBRANCH   1   4
BRANCH   1  10
ATOM     10  C   UNL     1      34.460 -17.878 -23.000  0.00  0.00    +0.006 C 
ATOM     11  C   UNL     1      34.494 -16.731 -23.757  0.00  0.00    -0.002 C 
ATOM     12  C   UNL     1      34.562 -19.137 -23.542  0.00  0.00    -0.002 C 
ATOM     13  C   UNL     1      34.639 -16.852 -25.140  0.00  0.00    -0.000 C 
ATOM     14  C   UNL     1      34.707 -19.257 -24.924  0.00  0.00    -0.000 C 
ATOM     15  C   UNL     1      34.744 -18.115 -25.722  0.00  0.00    -0.000 C 
ENDBRANCH   1  10
BRANCH   1  16
ATOM     16  O   UNL     1      33.107 -17.037 -21.173  0.00  0.00    -0.350 OA
BRANCH  16  17
ATOM     17  C   UNL     1      33.388 -15.735 -20.675  0.00  0.00    +0.141 C 
BRANCH  17  18
ATOM     18  C   UNL     1      32.310 -14.772 -21.126  0.00  0.00    +0.011 C 
BRANCH  18  20
ATOM     19  N   UNL     1      31.907 -12.567 -22.237  0.00  0.00    +0.387 N 
ATOM     20  C   UNL     1      32.911 -13.493 -21.695  0.00  0.00    -0.056 C 
ATOM     21  C   UNL     1      33.798 -13.775 -22.910  0.00  0.00    -0.023 C 
ATOM     22  C   UNL     1      33.634 -12.560 -23.818  0.00  0.00    -0.025 C 
ATOM     23  C   UNL     1      32.664 -11.646 -23.089  0.00  0.00    -0.077 C 
ATOM     24  C   UNL     1      31.165 -11.852 -21.206  0.00  0.00    -0.101 C 
ATOM     25  H   UNL     1      31.188 -13.075 -22.751  0.00  0.00    -0.080 HD
ENDBRANCH  18  20
ENDBRANCH  17  18
ENDBRANCH  16  17
ENDBRANCH   1  16
TORSDOF 6
ENDMDL
MODEL 2
REMARK VINA RESULT:      -9.0      2.701      4.955
REMARK  Name = 26987
REMARK  6 active torsions:
REMARK  status: ('A' for Active; 'I' for Inactive)
REMARK    1  A    between atoms: C_1  and  C_4
REMARK    2  A    between atoms: C_1  and  C_10
REMARK    3  A    between atoms: C_1  and  O_16
REMARK    4  A    between atoms: O_16  and  C_17
REMARK    5  A    between atoms: C_17  and  C_18
REMARK    6  A    between atoms: C_18  and  C_20
REMARK                            x       y       z     vdW  Elec       q    Type
REMARK                         _______ _______ _______ _____ _____    ______ ____
ROOT
ATOM      1  C   UNL     1      34.904 -18.515 -21.675  0.00  0.00    +0.130 C 
ATOM      2  C   UNL     1      36.444 -18.480 -21.729  0.00  0.00    +0.039 C 
ENDROOT
BRANCH   1   4
ATOM      3 CL   UNL     1      32.307 -13.404 -19.897  0.00  0.00    -0.082 Cl
ATOM      4  C   UNL     1      34.241 -17.211 -21.220  0.00  0.00    +0.006 C 
ATOM      5  C   UNL     1      35.040 -16.202 -20.735  0.00  0.00    -0.001 C 
ATOM      6  C   UNL     1      32.874 -17.100 -21.317  0.00  0.00    -0.001 C 
ATOM      7  C   UNL     1      34.437 -15.015 -20.322  0.00  0.00    +0.011 C 
ATOM      8  C   UNL     1      32.271 -15.913 -20.904  0.00  0.00    +0.011 C 
ATOM      9  C   UNL     1      33.051 -14.870 -20.406  0.00  0.00    +0.058 C 
ENDBRANCH   1   4
BRANCH   1  10
ATOM     10  C   UNL     1      34.460 -19.697 -20.803  0.00  0.00    +0.006 C 
ATOM     11  C   UNL     1      33.114 -19.906 -20.618  0.00  0.00    -0.002 C 
ATOM     12  C   UNL     1      35.427 -20.498 -20.243  0.00  0.00    -0.002 C 
ATOM     13  C   UNL     1      32.711 -20.981 -19.825  0.00  0.00    -0.000 C 
ATOM     14  C   UNL     1      35.023 -21.573 -19.451  0.00  0.00    -0.000 C 
ATOM     15  C   UNL     1      33.666 -21.813 -19.242  0.00  0.00    -0.000 C 
ENDBRANCH   1  10
BRANCH   1  16
ATOM     16  O   UNL     1      34.522 -18.734 -23.026  0.00  0.00    -0.350 OA
BRANCH  16  17
ATOM     17  C   UNL     1      35.404 -18.079 -23.929  0.00  0.00    +0.141 C 
BRANCH  17  18
ATOM     18  C   UNL     1      34.625 -17.549 -25.114  0.00  0.00    +0.011 C 
BRANCH  18  20
ATOM     19  N   UNL     1      33.474 -15.471 -25.895  0.00  0.00    +0.387 N 
ATOM     20  C   UNL     1      33.820 -16.312 -24.741  0.00  0.00    -0.056 C 
ATOM     21  C   UNL     1      34.626 -15.355 -23.860  0.00  0.00    -0.023 C 
ATOM     22  C   UNL     1      34.150 -13.957 -24.241  0.00  0.00    -0.025 C 
ATOM     23  C   UNL     1      33.103 -14.174 -25.321  0.00  0.00    -0.077 C 
ATOM     24  C   UNL     1      32.397 -16.021 -26.709  0.00  0.00    -0.101 C 
ATOM     25  H   UNL     1      34.261 -15.402 -26.541  0.00  0.00    -0.080 HD
ENDBRANCH  18  20
ENDBRANCH  17  18
ENDBRANCH  16  17
ENDBRANCH   1  16
TORSDOF 6
ENDMDL
MODEL 3
REMARK VINA RESULT:      -9.0      5.414      9.145
REMARK  Name = 26987
REMARK  6 active torsions:
REMARK  status: ('A' for Active; 'I' for Inactive)
REMARK    1  A    between atoms: C_1  and  C_4
REMARK    2  A    between atoms: C_1  and  C_10
REMARK    3  A    between atoms: C_1  and  O_16
REMARK    4  A    between atoms: O_16  and  C_17
REMARK    5  A    between atoms: C_17  and  C_18
REMARK    6  A    between atoms: C_18  and  C_20
REMARK                            x       y       z     vdW  Elec       q    Type
REMARK                         _______ _______ _______ _____ _____    ______ ____
ROOT
ATOM      1  C   UNL     1      35.579 -23.319 -15.668  0.00  0.00    +0.130 C 
ATOM      2  C   UNL     1      36.164 -22.009 -15.103  0.00  0.00    +0.039 C 
ENDROOT
BRANCH   1   4
ATOM      3 CL   UNL     1      29.753 -24.197 -14.519  0.00  0.00    -0.082 Cl
ATOM      4  C   UNL     1      34.092 -23.544 -15.374  0.00  0.00    +0.006 C 
ATOM      5  C   UNL     1      33.721 -23.909 -14.102  0.00  0.00    -0.001 C 
ATOM      6  C   UNL     1      33.187 -23.370 -16.396  0.00  0.00    -0.001 C 
ATOM      7  C   UNL     1      32.368 -24.113 -13.834  0.00  0.00    +0.011 C 
ATOM      8  C   UNL     1      31.834 -23.574 -16.128  0.00  0.00    +0.011 C 
ATOM      9  C   UNL     1      31.423 -23.945 -14.848  0.00  0.00    +0.058 C 
ENDBRANCH   1   4
BRANCH   1  10
ATOM     10  C   UNL     1      36.427 -24.499 -15.176  0.00  0.00    +0.006 C 
ATOM     11  C   UNL     1      37.571 -24.231 -14.463  0.00  0.00    -0.002 C 
ATOM     12  C   UNL     1      36.009 -25.775 -15.470  0.00  0.00    -0.002 C 
ATOM     13  C   UNL     1      38.342 -25.304 -14.016  0.00  0.00    -0.000 C 
ATOM     14  C   UNL     1      36.780 -26.847 -15.022  0.00  0.00    -0.000 C 
ATOM     15  C   UNL     1      37.947 -26.612 -14.297  0.00  0.00    -0.000 C 
ENDBRANCH   1  10
BRANCH   1  16
ATOM     16  O   UNL     1      35.714 -23.172 -17.075  0.00  0.00    -0.350 OA
BRANCH  16  17
ATOM     17  C   UNL     1      35.813 -21.804 -17.449  0.00  0.00    +0.141 C 
BRANCH  17  18
ATOM     18  C   UNL     1      36.508 -21.688 -18.789  0.00  0.00    +0.011 C 
BRANCH  18  20
ATOM     19  N   UNL     1      35.476 -19.848 -20.132  0.00  0.00    +0.387 N 
ATOM     20  C   UNL     1      35.530 -21.296 -19.889  0.00  0.00    -0.056 C 
ATOM     21  C   UNL     1      34.085 -21.626 -19.507  0.00  0.00    -0.023 C 
ATOM     22  C   UNL     1      33.238 -20.537 -20.159  0.00  0.00    -0.025 C 
ATOM     23  C   UNL     1      34.230 -19.635 -20.874  0.00  0.00    -0.077 C 
ATOM     24  C   UNL     1      36.628 -19.342 -20.868  0.00  0.00    -0.101 C 
ATOM     25  H   UNL     1      35.500 -19.332 -19.252  0.00  0.00    -0.080 HD
ENDBRANCH  18  20
ENDBRANCH  17  18
ENDBRANCH  16  17
ENDBRANCH   1  16
TORSDOF 6
ENDMDL
MODEL 4
REMARK VINA RESULT:      -8.9      1.195      2.252
REMARK  Name = 26987
REMARK  6 active torsions:
REMARK  status: ('A' for Active; 'I' for Inactive)
REMARK    1  A    between atoms: C_1  and  C_4
REMARK    2  A    between atoms: C_1  and  C_10
REMARK    3  A    between atoms: C_1  and  O_16
REMARK    4  A    between atoms: O_16  and  C_17
REMARK    5  A    between atoms: C_17  and  C_18
REMARK    6  A    between atoms: C_18  and  C_20
REMARK                            x       y       z     vdW  Elec       q    Type
REMARK                         _______ _______ _______ _____ _____    ______ ____
ROOT
ATOM      1  C   UNL     1      35.882 -18.579 -21.520  0.00  0.00    +0.130 C 
ATOM      2  C   UNL     1      37.418 -18.659 -21.629  0.00  0.00    +0.039 C 
ENDROOT
BRANCH   1   4
ATOM      3 CL   UNL     1      33.320 -23.061 -18.457  0.00  0.00    -0.082 Cl
ATOM      4  C   UNL     1      35.227 -19.722 -20.738  0.00  0.00    +0.006 C 
ATOM      5  C   UNL     1      33.856 -19.767 -20.663  0.00  0.00    -0.001 C 
ATOM      6  C   UNL     1      36.039 -20.659 -20.141  0.00  0.00    -0.001 C 
ATOM      7  C   UNL     1      33.260 -20.808 -19.952  0.00  0.00    +0.011 C 
ATOM      8  C   UNL     1      35.444 -21.700 -19.430  0.00  0.00    +0.011 C 
ATOM      9  C   UNL     1      34.055 -21.776 -19.335  0.00  0.00    +0.058 C 
ENDBRANCH   1   4
BRANCH   1  10
ATOM     10  C   UNL     1      35.286 -18.456 -22.928  0.00  0.00    +0.006 C 
ATOM     11  C   UNL     1      34.698 -19.564 -23.489  0.00  0.00    -0.002 C 
ATOM     12  C   UNL     1      35.366 -17.243 -23.570  0.00  0.00    -0.002 C 
ATOM     13  C   UNL     1      34.156 -19.452 -24.770  0.00  0.00    -0.000 C 
ATOM     14  C   UNL     1      34.824 -17.132 -24.851  0.00  0.00    -0.000 C 
ATOM     15  C   UNL     1      34.220 -18.237 -25.450  0.00  0.00    -0.000 C 
ENDBRANCH   1  10
BRANCH   1  16
ATOM     16  O   UNL     1      35.656 -17.382 -20.787  0.00  0.00    -0.350 OA
BRANCH  16  17
ATOM     17  C   UNL     1      34.413 -16.786 -21.134  0.00  0.00    +0.141 C 
BRANCH  17  18
ATOM     18  C   UNL     1      34.500 -15.284 -20.966  0.00  0.00    +0.011 C 
BRANCH  18  20
ATOM     19  N   UNL     1      33.526 -13.485 -22.405  0.00  0.00    +0.387 N 
ATOM     20  C   UNL     1      33.245 -14.594 -21.483  0.00  0.00    -0.056 C 
ATOM     21  C   UNL     1      32.472 -13.904 -20.355  0.00  0.00    -0.023 C 
ATOM     22  C   UNL     1      31.843 -12.670 -20.994  0.00  0.00    -0.025 C 
ATOM     23  C   UNL     1      32.286 -12.705 -22.447  0.00  0.00    -0.077 C 
ATOM     24  C   UNL     1      33.924 -13.927 -23.735  0.00  0.00    -0.101 C 
ATOM     25  H   UNL     1      34.322 -12.936 -22.078  0.00  0.00    -0.080 HD
ENDBRANCH  18  20
ENDBRANCH  17  18
ENDBRANCH  16  17
ENDBRANCH   1  16
TORSDOF 6
ENDMDL
MODEL 5
REMARK VINA RESULT:      -8.5      4.841      8.420
REMARK  Name = 26987
REMARK  6 active torsions:
REMARK  status: ('A' for Active; 'I' for Inactive)
REMARK    1  A    between atoms: C_1  and  C_4
REMARK    2  A    between atoms: C_1  and  C_10
REMARK    3  A    between atoms: C_1  and  O_16
REMARK    4  A    between atoms: O_16  and  C_17
REMARK    5  A    between atoms: C_17  and  C_18
REMARK    6  A    between atoms: C_18  and  C_20
REMARK                            x       y       z     vdW  Elec       q    Type
REMARK                         _______ _______ _______ _____ _____    ______ ____
ROOT
ATOM      1  C   UNL     1      34.038 -23.412 -16.735  0.00  0.00    +0.130 C 
ATOM      2  C   UNL     1      33.831 -24.425 -17.879  0.00  0.00    +0.039 C 
ENDROOT
BRANCH   1   4
ATOM      3 CL   UNL     1      38.476 -24.758 -12.924  0.00  0.00    -0.082 Cl
ATOM      4  C   UNL     1      35.171 -23.755 -15.763  0.00  0.00    +0.006 C 
ATOM      5  C   UNL     1      36.075 -22.774 -15.434  0.00  0.00    -0.001 C 
ATOM      6  C   UNL     1      35.238 -25.033 -15.257  0.00  0.00    -0.001 C 
ATOM      7  C   UNL     1      37.106 -23.086 -14.549  0.00  0.00    +0.011 C 
ATOM      8  C   UNL     1      36.269 -25.345 -14.372  0.00  0.00    +0.011 C 
ATOM      9  C   UNL     1      37.203 -24.372 -14.017  0.00  0.00    +0.058 C 
ENDBRANCH   1   4
BRANCH   1  10
ATOM     10  C   UNL     1      32.709 -23.217 -15.993  0.00  0.00    +0.006 C 
ATOM     11  C   UNL     1      32.725 -23.180 -14.620  0.00  0.00    -0.002 C 
ATOM     12  C   UNL     1      31.558 -23.088 -16.733  0.00  0.00    -0.002 C 
ATOM     13  C   UNL     1      31.516 -23.002 -13.945  0.00  0.00    -0.000 C 
ATOM     14  C   UNL     1      30.350 -22.911 -16.058  0.00  0.00    -0.000 C 
ATOM     15  C   UNL     1      30.330 -22.869 -14.665  0.00  0.00    -0.000 C 
ENDBRANCH   1  10
BRANCH   1  16
ATOM     16  O   UNL     1      34.404 -22.214 -17.405  0.00  0.00    -0.350 OA
BRANCH  16  17
ATOM     17  C   UNL     1      34.528 -22.418 -18.807  0.00  0.00    +0.141 C 
BRANCH  17  18
ATOM     18  C   UNL     1      35.454 -21.376 -19.397  0.00  0.00    +0.011 C 
BRANCH  18  20
ATOM     19  N   UNL     1      35.156 -19.167 -20.531  0.00  0.00    +0.387 N 
ATOM     20  C   UNL     1      34.767 -20.583 -20.501  0.00  0.00    -0.056 C 
ATOM     21  C   UNL     1      33.253 -20.511 -20.289  0.00  0.00    -0.023 C 
ATOM     22  C   UNL     1      32.834 -19.151 -20.838  0.00  0.00    -0.025 C 
ATOM     23  C   UNL     1      34.119 -18.508 -21.331  0.00  0.00    -0.077 C 
ATOM     24  C   UNL     1      36.483 -18.944 -21.090  0.00  0.00    -0.101 C 
ATOM     25  H   UNL     1      35.220 -18.789 -19.586  0.00  0.00    -0.080 HD
ENDBRANCH  18  20
ENDBRANCH  17  18
ENDBRANCH  16  17
ENDBRANCH   1  16
TORSDOF 6
ENDMDL
MODEL 6
REMARK VINA RESULT:      -8.4      7.602     11.019
REMARK  Name = 26987
REMARK  6 active torsions:
REMARK  status: ('A' for Active; 'I' for Inactive)
REMARK    1  A    between atoms: C_1  and  C_4
REMARK    2  A    between atoms: C_1  and  C_10
REMARK    3  A    between atoms: C_1  and  O_16
REMARK    4  A    between atoms: O_16  and  C_17
REMARK    5  A    between atoms: C_17  and  C_18
REMARK    6  A    between atoms: C_18  and  C_20
REMARK                            x       y       z     vdW  Elec       q    Type
REMARK                         _______ _______ _______ _____ _____    ______ ____
ROOT
ATOM      1  C   UNL     1      35.227 -23.827 -14.811  0.00  0.00    +0.130 C 
ATOM      2  C   UNL     1      34.580 -25.203 -15.066  0.00  0.00    +0.039 C 
ENDROOT
BRANCH   1   4
ATOM      3 CL   UNL     1      36.632 -20.724 -19.754  0.00  0.00    -0.082 Cl
ATOM      4  C   UNL     1      35.585 -23.036 -16.073  0.00  0.00    +0.006 C 
ATOM      5  C   UNL     1      34.689 -23.018 -17.115  0.00  0.00    -0.001 C 
ATOM      6  C   UNL     1      36.790 -22.374 -16.113  0.00  0.00    -0.001 C 
ATOM      7  C   UNL     1      35.014 -22.297 -18.263  0.00  0.00    +0.011 C 
ATOM      8  C   UNL     1      37.116 -21.653 -17.261  0.00  0.00    +0.011 C 
ATOM      9  C   UNL     1      36.229 -21.614 -18.337  0.00  0.00    +0.058 C 
ENDBRANCH   1   4
BRANCH   1  10
ATOM     10  C   UNL     1      36.450 -24.010 -13.904  0.00  0.00    +0.006 C 
ATOM     11  C   UNL     1      37.387 -24.954 -14.249  0.00  0.00    -0.002 C 
ATOM     12  C   UNL     1      36.558 -23.222 -12.782  0.00  0.00    -0.002 C 
ATOM     13  C   UNL     1      38.500 -25.119 -13.423  0.00  0.00    -0.000 C 
ATOM     14  C   UNL     1      37.671 -23.388 -11.957  0.00  0.00    -0.000 C 
ATOM     15  C   UNL     1      38.640 -24.337 -12.278  0.00  0.00    -0.000 C 
ENDBRANCH   1  10
BRANCH   1  16
ATOM     16  O   UNL     1      34.216 -23.098 -14.129  0.00  0.00    -0.350 OA
BRANCH  16  17
ATOM     17  C   UNL     1      33.021 -23.858 -14.003  0.00  0.00    +0.141 C 
BRANCH  17  18
ATOM     18  C   UNL     1      31.854 -23.074 -14.564  0.00  0.00    +0.011 C 
BRANCH  18  20
ATOM     19  N   UNL     1      29.524 -23.355 -15.431  0.00  0.00    +0.387 N 
ATOM     20  C   UNL     1      30.831 -23.993 -15.220  0.00  0.00    -0.056 C 
ATOM     21  C   UNL     1      30.482 -25.184 -14.324  0.00  0.00    -0.023 C 
ATOM     22  C   UNL     1      29.017 -25.491 -14.616  0.00  0.00    -0.025 C 
ATOM     23  C   UNL     1      28.594 -24.465 -15.654  0.00  0.00    -0.077 C 
ATOM     24  C   UNL     1      29.513 -22.417 -16.546  0.00  0.00    -0.101 C 
ATOM     25  H   UNL     1      29.266 -22.784 -14.626  0.00  0.00    -0.080 HD
ENDBRANCH  18  20
ENDBRANCH  17  18
ENDBRANCH  16  17
ENDBRANCH   1  16
TORSDOF 6
ENDMDL
MODEL 7
REMARK VINA RESULT:      -8.4      6.015     10.658
REMARK  Name = 26987
REMARK  6 active torsions:
REMARK  status: ('A' for Active; 'I' for Inactive)
REMARK    1  A    between atoms: C_1  and  C_4
REMARK    2  A    between atoms: C_1  and  C_10
REMARK    3  A    between atoms: C_1  and  O_16
REMARK    4  A    between atoms: O_16  and  C_17
REMARK    5  A    between atoms: C_17  and  C_18
REMARK    6  A    between atoms: C_18  and  C_20
REMARK                            x       y       z     vdW  Elec       q    Type
REMARK                         _______ _______ _______ _____ _____    ______ ____
ROOT
ATOM      1  C   UNL     1      33.003  -8.862 -23.405  0.00  0.00    +0.130 C 
ATOM      2  C   UNL     1      34.543  -8.898 -23.329  0.00  0.00    +0.039 C 
ENDROOT
BRANCH   1   4
ATOM      3 CL   UNL     1      30.677  -3.645 -25.247  0.00  0.00    -0.082 Cl
ATOM      4  C   UNL     1      32.409  -7.531 -23.876  0.00  0.00    +0.006 C 
ATOM      5  C   UNL     1      31.053  -7.337 -23.754  0.00  0.00    -0.001 C 
ATOM      6  C   UNL     1      33.256  -6.583 -24.400  0.00  0.00    -0.001 C 
ATOM      7  C   UNL     1      30.512  -6.125 -24.182  0.00  0.00    +0.011 C 
ATOM      8  C   UNL     1      32.715  -5.370 -24.828  0.00  0.00    +0.011 C 
ATOM      9  C   UNL     1      31.344  -5.140 -24.719  0.00  0.00    +0.058 C 
ENDBRANCH   1   4
BRANCH   1  10
ATOM     10  C   UNL     1      32.426  -9.280 -22.046  0.00  0.00    +0.006 C 
ATOM     11  C   UNL     1      31.700 -10.445 -21.974  0.00  0.00    -0.002 C 
ATOM     12  C   UNL     1      32.657  -8.471 -20.959  0.00  0.00    -0.002 C 
ATOM     13  C   UNL     1      31.175 -10.824 -20.738  0.00  0.00    -0.000 C 
ATOM     14  C   UNL     1      32.131  -8.852 -19.724  0.00  0.00    -0.000 C 
ATOM     15  C   UNL     1      31.390 -10.027 -19.614  0.00  0.00    -0.000 C 
ENDBRANCH   1  10
BRANCH   1  16
ATOM     16  O   UNL     1      32.690  -9.837 -24.390  0.00  0.00    -0.350 OA
BRANCH  16  17
ATOM     17  C   UNL     1      33.829 -10.614 -24.735  0.00  0.00    +0.141 C 
BRANCH  17  18
ATOM     18  C   UNL     1      33.393 -11.864 -25.471  0.00  0.00    +0.011 C 
BRANCH  18  20
ATOM     19  N   UNL     1      33.075 -14.302 -25.013  0.00  0.00    +0.387 N 
ATOM     20  C   UNL     1      33.920 -13.121 -24.792  0.00  0.00    -0.056 C 
ATOM     21  C   UNL     1      33.915 -12.986 -23.267  0.00  0.00    -0.023 C 
ATOM     22  C   UNL     1      33.631 -14.389 -22.740  0.00  0.00    -0.025 C 
ATOM     23  C   UNL     1      33.481 -15.257 -23.978  0.00  0.00    -0.077 C 
ATOM     24  C   UNL     1      33.215 -14.870 -26.348  0.00  0.00    -0.101 C 
ATOM     25  H   UNL     1      32.087 -14.056 -24.952  0.00  0.00    -0.080 HD
ENDBRANCH  18  20
ENDBRANCH  17  18
ENDBRANCH  16  17
ENDBRANCH   1  16
TORSDOF 6
ENDMDL
MODEL 8
REMARK VINA RESULT:      -8.4      6.246     10.857
REMARK  Name = 26987
REMARK  6 active torsions:
REMARK  status: ('A' for Active; 'I' for Inactive)
REMARK    1  A    between atoms: C_1  and  C_4
REMARK    2  A    between atoms: C_1  and  C_10
REMARK    3  A    between atoms: C_1  and  O_16
REMARK    4  A    between atoms: O_16  and  C_17
REMARK    5  A    between atoms: C_17  and  C_18
REMARK    6  A    between atoms: C_18  and  C_20
REMARK                            x       y       z     vdW  Elec       q    Type
REMARK                         _______ _______ _______ _____ _____    ______ ____
ROOT
ATOM      1  C   UNL     1      33.187  -8.439 -23.412  0.00  0.00    +0.130 C 
ATOM      2  C   UNL     1      34.727  -8.418 -23.341  0.00  0.00    +0.039 C 
ENDROOT
BRANCH   1   4
ATOM      3 CL   UNL     1      30.669  -3.403 -25.494  0.00  0.00    -0.082 Cl
ATOM      4  C   UNL     1      32.545  -7.153 -23.943  0.00  0.00    +0.006 C 
ATOM      5  C   UNL     1      33.310  -6.302 -24.705  0.00  0.00    -0.001 C 
ATOM      6  C   UNL     1      31.228  -6.902 -23.637  0.00  0.00    -0.001 C 
ATOM      7  C   UNL     1      32.725  -5.132 -25.189  0.00  0.00    +0.011 C 
ATOM      8  C   UNL     1      30.643  -5.732 -24.121  0.00  0.00    +0.011 C 
ATOM      9  C   UNL     1      31.391  -4.847 -24.897  0.00  0.00    +0.058 C 
ENDBRANCH   1   4
BRANCH   1  10
ATOM     10  C   UNL     1      32.628  -8.810 -22.032  0.00  0.00    +0.006 C 
ATOM     11  C   UNL     1      32.845  -7.949 -20.984  0.00  0.00    -0.002 C 
ATOM     12  C   UNL     1      31.933  -9.989 -21.902  0.00  0.00    -0.002 C 
ATOM     13  C   UNL     1      32.336  -8.287 -19.729  0.00  0.00    -0.000 C 
ATOM     14  C   UNL     1      31.425 -10.326 -20.648  0.00  0.00    -0.000 C 
ATOM     15  C   UNL     1      31.627  -9.476 -19.562  0.00  0.00    -0.000 C 
ENDBRANCH   1  10
BRANCH   1  16
ATOM     16  O   UNL     1      32.904  -9.470 -24.348  0.00  0.00    -0.350 OA
BRANCH  16  17
ATOM     17  C   UNL     1      34.012 -10.346 -24.508  0.00  0.00    +0.141 C 
BRANCH  17  18
ATOM     18  C   UNL     1      33.633 -11.491 -25.424  0.00  0.00    +0.011 C 
BRANCH  18  20
ATOM     19  N   UNL     1      33.023 -13.906 -25.195  0.00  0.00    +0.387 N 
ATOM     20  C   UNL     1      33.948 -12.839 -24.788  0.00  0.00    -0.056 C 
ATOM     21  C   UNL     1      33.772 -12.804 -23.269  0.00  0.00    -0.023 C 
ATOM     22  C   UNL     1      33.290 -14.200 -22.887  0.00  0.00    -0.025 C 
ATOM     23  C   UNL     1      33.205 -14.964 -24.198  0.00  0.00    -0.077 C 
ATOM     24  C   UNL     1      33.267 -14.397 -26.546  0.00  0.00    -0.101 C 
ATOM     25  H   UNL     1      32.064 -13.560 -25.227  0.00  0.00    -0.080 HD
ENDBRANCH  18  20
ENDBRANCH  17  18
ENDBRANCH  16  17
ENDBRANCH   1  16
TORSDOF 6
ENDMDL
MODEL 9
REMARK VINA RESULT:      -8.3      2.386      4.307
REMARK  Name = 26987
REMARK  6 active torsions:
REMARK  status: ('A' for Active; 'I' for Inactive)
REMARK    1  A    between atoms: C_1  and  C_4
REMARK    2  A    between atoms: C_1  and  C_10
REMARK    3  A    between atoms: C_1  and  O_16
REMARK    4  A    between atoms: O_16  and  C_17
REMARK    5  A    between atoms: C_17  and  C_18
REMARK    6  A    between atoms: C_18  and  C_20
REMARK                            x       y       z     vdW  Elec       q    Type
REMARK                         _______ _______ _______ _____ _____    ______ ____
ROOT
ATOM      1  C   UNL     1      33.469 -14.207 -22.880  0.00  0.00    +0.130 C 
ATOM      2  C   UNL     1      34.259 -13.089 -22.170  0.00  0.00    +0.039 C 
ENDROOT
BRANCH   1   4
ATOM      3 CL   UNL     1      35.471 -19.773 -21.865  0.00  0.00    -0.082 Cl
ATOM      4  C   UNL     1      33.980 -15.627 -22.620  0.00  0.00    +0.006 C 
ATOM      5  C   UNL     1      33.525 -16.297 -21.509  0.00  0.00    -0.001 C 
ATOM      6  C   UNL     1      34.874 -16.176 -23.509  0.00  0.00    -0.001 C 
ATOM      7  C   UNL     1      33.990 -17.590 -21.273  0.00  0.00    +0.011 C 
ATOM      8  C   UNL     1      35.339 -17.470 -23.273  0.00  0.00    +0.011 C 
ATOM      9  C   UNL     1      34.897 -18.177 -22.156  0.00  0.00    +0.058 C 
ENDBRANCH   1   4
BRANCH   1  10
ATOM     10  C   UNL     1      33.412 -13.903 -24.382  0.00  0.00    +0.006 C 
ATOM     11  C   UNL     1      33.748 -12.640 -24.808  0.00  0.00    -0.002 C 
ATOM     12  C   UNL     1      33.026 -14.905 -25.240  0.00  0.00    -0.002 C 
ATOM     13  C   UNL     1      33.696 -12.364 -26.175  0.00  0.00    -0.000 C 
ATOM     14  C   UNL     1      32.975 -14.628 -26.606  0.00  0.00    -0.000 C 
ATOM     15  C   UNL     1      33.308 -13.358 -27.073  0.00  0.00    -0.000 C 
ENDBRANCH   1  10
BRANCH   1  16
ATOM     16  O   UNL     1      32.169 -14.115 -22.312  0.00  0.00    -0.350 OA
BRANCH  16  17
ATOM     17  C   UNL     1      32.070 -13.020 -21.412  0.00  0.00    +0.141 C 
BRANCH  17  18
ATOM     18  C   UNL     1      31.207 -11.934 -22.018  0.00  0.00    +0.011 C 
BRANCH  18  20
ATOM     19  N   UNL     1      32.065  -9.663 -21.413  0.00  0.00    +0.387 N 
ATOM     20  C   UNL     1      31.102 -10.727 -21.095  0.00  0.00    -0.056 C 
ATOM     21  C   UNL     1      31.462 -11.084 -19.651  0.00  0.00    -0.023 C 
ATOM     22  C   UNL     1      32.117  -9.832 -19.078  0.00  0.00    -0.025 C 
ATOM     23  C   UNL     1      32.109  -8.823 -20.213  0.00  0.00    -0.077 C 
ATOM     24  C   UNL     1      31.703  -8.890 -22.594  0.00  0.00    -0.101 C 
ATOM     25  H   UNL     1      32.976 -10.059 -21.647  0.00  0.00    -0.080 HD
ENDBRANCH  18  20
ENDBRANCH  17  18
ENDBRANCH  16  17
ENDBRANCH   1  16
TORSDOF 6
ENDMDL
