MODEL 1
REMARK VINA RESULT:      -8.6      0.000      0.000
REMARK  Name = 3105
REMARK  10 active torsions:
REMARK  status: ('A' for Active; 'I' for Inactive)
REMARK    1  A    between atoms: C_1  and  C_21
REMARK    2  A    between atoms: C_2  and  O_7
REMARK    3  A    between atoms: C_3  and  O_14
REMARK    4  A    between atoms: O_7  and  C_9
REMARK    5  A    between atoms: C_9  and  C_10
REMARK    6  A    between atoms: O_14  and  C_16
REMARK    7  A    between atoms: C_16  and  C_17
REMARK    8  A    between atoms: C_21  and  O_22
REMARK    9  A    between atoms: C_21  and  C_24
REMARK   10  A    between atoms: C_24  and  N_25
REMARK                            x       y       z     vdW  Elec       q    Type
REMARK                         _______ _______ _______ _____ _____    ______ ____
ROOT
ATOM      1  C   UNL     1      35.016 -21.919 -18.708  0.00  0.00    +0.005 C 
ATOM      2  C   UNL     1      33.960 -23.227 -16.973  0.00  0.00    +0.183 C 
ATOM      3  C   UNL     1      35.112 -23.112 -16.225  0.00  0.00    +0.183 C 
ATOM      4  C   UNL     1      33.913 -22.624 -18.229  0.00  0.00    +0.039 C 
ATOM      5  C   UNL     1      36.169 -21.818 -17.929  0.00  0.00    +0.001 C 
ATOM      6  C   UNL     1      36.217 -22.422 -16.672  0.00  0.00    +0.041 C 
ENDROOT
BRANCH   2   7
ATOM      7  O   UNL     1      32.875 -23.913 -16.518  0.00  0.00    -0.421 OA
BRANCH   7   9
ATOM      8  O   UNL     1      31.305 -22.392 -17.328  0.00  0.00    -0.250 OA
ATOM      9  C   UNL     1      31.692 -23.153 -16.450  0.00  0.00    +0.320 C 
BRANCH   9  10
ATOM     10  C   UNL     1      30.951 -23.407 -15.130  0.00  0.00    +0.090 C 
ATOM     11  C   UNL     1      29.655 -22.581 -15.104  0.00  0.00    +0.011 C 
ATOM     12  C   UNL     1      31.838 -22.980 -13.954  0.00  0.00    +0.011 C 
ATOM     13  C   UNL     1      30.596 -24.896 -15.021  0.00  0.00    +0.011 C 
ENDBRANCH   9  10
ENDBRANCH   7   9
ENDBRANCH   2   7
BRANCH   3  14
ATOM     14  O   UNL     1      35.172 -23.713 -14.966  0.00  0.00    -0.421 OA
BRANCH  14  16
ATOM     15  O   UNL     1      35.830 -25.841 -15.657  0.00  0.00    -0.250 OA
ATOM     16  C   UNL     1      35.970 -24.856 -14.940  0.00  0.00    +0.320 C 
BRANCH  16  17
ATOM     17  C   UNL     1      37.061 -24.701 -13.876  0.00  0.00    +0.090 C 
ATOM     18  C   UNL     1      38.433 -24.596 -14.563  0.00  0.00    +0.011 C 
ATOM     19  C   UNL     1      37.059 -25.928 -12.955  0.00  0.00    +0.011 C 
ATOM     20  C   UNL     1      36.810 -23.422 -13.067  0.00  0.00    +0.011 C 
ENDBRANCH  16  17
ENDBRANCH  14  16
ENDBRANCH   3  14
BRANCH   1  21
ATOM     21  C   UNL     1      34.965 -21.273 -20.051  0.00  0.00    +0.112 C 
BRANCH  21  22
ATOM     22  O   UNL     1      33.763 -20.498 -20.150  0.00  0.00    -0.382 OA
ATOM     23  H   UNL     1      33.552 -20.114 -19.284  0.00  0.00    +0.211 HD
ENDBRANCH  21  22
BRANCH  21  24
ATOM     24  C   UNL     1      36.183 -20.365 -20.308  0.00  0.00    -0.047 C 
BRANCH  24  25
ATOM     25  N   UNL     1      35.781 -18.981 -20.548  0.00  0.00    +0.384 N 
ATOM     26  C   UNL     1      36.250 -18.525 -21.848  0.00  0.00    -0.106 C 
ATOM     27  H   UNL     1      36.179 -18.387 -19.821  0.00  0.00    -0.085 HD
ATOM     28  H   UNL     1      34.763 -18.929 -20.531  0.00  0.00    -0.085 HD
ENDBRANCH  24  25
ENDBRANCH  21  24
ENDBRANCH   1  21
TORSDOF 10
ENDMDL
MODEL 2
REMARK VINA RESULT:      -7.7      1.029      4.807
REMARK  Name = 3105
REMARK  10 active torsions:
REMARK  status: ('A' for Active; 'I' for Inactive)
REMARK    1  A    between atoms: C_1  and  C_21
REMARK    2  A    between atoms: C_2  and  O_7
REMARK    3  A    between atoms: C_3  and  O_14
REMARK    4  A    between atoms: O_7  and  C_9
REMARK    5  A    between atoms: C_9  and  C_10
REMARK    6  A    between atoms: O_14  and  C_16
REMARK    7  A    between atoms: C_16  and  C_17
REMARK    8  A    between atoms: C_21  and  O_22
REMARK    9  A    between atoms: C_21  and  C_24
REMARK   10  A    between atoms: C_24  and  N_25
REMARK                            x       y       z     vdW  Elec       q    Type
REMARK                         _______ _______ _______ _____ _____    ______ ____
ROOT
ATOM      1  C   UNL     1      35.426 -21.742 -18.686  0.00  0.00    +0.005 C 
ATOM      2  C   UNL     1      34.860 -22.844 -16.612  0.00  0.00    +0.183 C 
ATOM      3  C   UNL     1      33.617 -23.126 -17.135  0.00  0.00    +0.183 C 
ATOM      4  C   UNL     1      35.775 -22.143 -17.397  0.00  0.00    +0.039 C 
ATOM      5  C   UNL     1      34.160 -22.042 -19.190  0.00  0.00    +0.001 C 
ATOM      6  C   UNL     1      33.244 -22.743 -18.405  0.00  0.00    +0.041 C 
ENDROOT
BRANCH   2   7
ATOM      7  O   UNL     1      35.213 -23.229 -15.354  0.00  0.00    -0.421 OA
BRANCH   7   9
ATOM      8  O   UNL     1      35.616 -25.476 -15.830  0.00  0.00    -0.250 OA
ATOM      9  C   UNL     1      35.954 -24.426 -15.298  0.00  0.00    +0.320 C 
BRANCH   9  10
ATOM     10  C   UNL     1      37.239 -24.238 -14.482  0.00  0.00    +0.090 C 
ATOM     11  C   UNL     1      36.980 -23.236 -13.345  0.00  0.00    +0.011 C 
ATOM     12  C   UNL     1      38.347 -23.687 -15.389  0.00  0.00    +0.011 C 
ATOM     13  C   UNL     1      37.661 -25.582 -13.875  0.00  0.00    +0.011 C 
ENDBRANCH   9  10
ENDBRANCH   7   9
ENDBRANCH   2   7
BRANCH   3  14
ATOM     14  O   UNL     1      32.691 -23.826 -16.358  0.00  0.00    -0.421 OA
BRANCH  14  16
ATOM     15  O   UNL     1      30.945 -22.508 -17.165  0.00  0.00    -0.250 OA
ATOM     16  C   UNL     1      31.448 -23.200 -16.287  0.00  0.00    +0.320 C 
BRANCH  16  17
ATOM     17  C   UNL     1      30.790 -23.507 -14.937  0.00  0.00    +0.090 C 
ATOM     18  C   UNL     1      29.500 -22.682 -14.798  0.00  0.00    +0.011 C 
ATOM     19  C   UNL     1      31.749 -23.126 -13.800  0.00  0.00    +0.011 C 
ATOM     20  C   UNL     1      30.439 -24.998 -14.866  0.00  0.00    +0.011 C 
ENDBRANCH  16  17
ENDBRANCH  14  16
ENDBRANCH   3  14
BRANCH   1  21
ATOM     21  C   UNL     1      36.405 -20.994 -19.526  0.00  0.00    +0.112 C 
BRANCH  21  22
ATOM     22  O   UNL     1      37.294 -21.929 -20.152  0.00  0.00    -0.382 OA
ATOM     23  H   UNL     1      37.855 -22.344 -19.477  0.00  0.00    +0.211 HD
ENDBRANCH  21  22
BRANCH  21  24
ATOM     24  C   UNL     1      35.714 -20.141 -20.607  0.00  0.00    -0.047 C 
BRANCH  24  25
ATOM     25  N   UNL     1      36.176 -18.755 -20.575  0.00  0.00    +0.384 N 
ATOM     26  C   UNL     1      35.240 -17.882 -21.266  0.00  0.00    -0.106 C 
ATOM     27  H   UNL     1      37.087 -18.697 -21.032  0.00  0.00    -0.085 HD
ATOM     28  H   UNL     1      36.247 -18.456 -19.603  0.00  0.00    -0.085 HD
ENDBRANCH  24  25
ENDBRANCH  21  24
ENDBRANCH   1  21
TORSDOF 10
ENDMDL
MODEL 3
REMARK VINA RESULT:      -7.7      2.561      6.599
REMARK  Name = 3105
REMARK  10 active torsions:
REMARK  status: ('A' for Active; 'I' for Inactive)
REMARK    1  A    between atoms: C_1  and  C_21
REMARK    2  A    between atoms: C_2  and  O_7
REMARK    3  A    between atoms: C_3  and  O_14
REMARK    4  A    between atoms: O_7  and  C_9
REMARK    5  A    between atoms: C_9  and  C_10
REMARK    6  A    between atoms: O_14  and  C_16
REMARK    7  A    between atoms: C_16  and  C_17
REMARK    8  A    between atoms: C_21  and  O_22
REMARK    9  A    between atoms: C_21  and  C_24
REMARK   10  A    between atoms: C_24  and  N_25
REMARK                            x       y       z     vdW  Elec       q    Type
REMARK                         _______ _______ _______ _____ _____    ______ ____
ROOT
ATOM      1  C   UNL     1      32.615 -23.431 -15.250  0.00  0.00    +0.005 C 
ATOM      2  C   UNL     1      34.921 -23.493 -15.967  0.00  0.00    +0.183 C 
ATOM      3  C   UNL     1      34.507 -23.127 -17.230  0.00  0.00    +0.183 C 
ATOM      4  C   UNL     1      33.963 -23.647 -14.966  0.00  0.00    +0.039 C 
ATOM      5  C   UNL     1      32.224 -23.061 -16.537  0.00  0.00    +0.001 C 
ATOM      6  C   UNL     1      33.182 -22.907 -17.539  0.00  0.00    +0.041 C 
ENDROOT
BRANCH   2   7
ATOM      7  O   UNL     1      36.234 -23.707 -15.677  0.00  0.00    -0.421 OA
BRANCH   7   9
ATOM      8  O   UNL     1      36.063 -26.033 -15.665  0.00  0.00    -0.250 OA
ATOM      9  C   UNL     1      36.521 -24.999 -15.194  0.00  0.00    +0.320 C 
BRANCH   9  10
ATOM     10  C   UNL     1      37.482 -24.937 -14.000  0.00  0.00    +0.090 C 
ATOM     11  C   UNL     1      38.929 -25.057 -14.504  0.00  0.00    +0.011 C 
ATOM     12  C   UNL     1      37.189 -26.101 -13.044  0.00  0.00    +0.011 C 
ATOM     13  C   UNL     1      37.315 -23.594 -13.277  0.00  0.00    +0.011 C 
ENDBRANCH   9  10
ENDBRANCH   7   9
ENDBRANCH   2   7
BRANCH   3  14
ATOM     14  O   UNL     1      35.457 -22.971 -18.242  0.00  0.00    -0.421 OA
BRANCH  14  16
ATOM     15  O   UNL     1      36.457 -21.012 -17.468  0.00  0.00    -0.250 OA
ATOM     16  C   UNL     1      35.925 -21.663 -18.360  0.00  0.00    +0.320 C 
BRANCH  16  17
ATOM     17  C   UNL     1      35.676 -21.152 -19.783  0.00  0.00    +0.090 C 
ATOM     18  C   UNL     1      36.665 -20.016 -20.096  0.00  0.00    +0.011 C 
ATOM     19  C   UNL     1      34.245 -20.609 -19.892  0.00  0.00    +0.011 C 
ATOM     20  C   UNL     1      35.895 -22.293 -20.783  0.00  0.00    +0.011 C 
ENDBRANCH  16  17
ENDBRANCH  14  16
ENDBRANCH   3  14
BRANCH   1  21
ATOM     21  C   UNL     1      31.590 -23.595 -14.179  0.00  0.00    +0.112 C 
BRANCH  21  22
ATOM     22  O   UNL     1      32.027 -22.897 -13.005  0.00  0.00    -0.382 OA
ATOM     23  H   UNL     1      32.924 -22.554 -13.147  0.00  0.00    +0.211 HD
ENDBRANCH  21  22
BRANCH  21  24
ATOM     24  C   UNL     1      30.208 -23.065 -14.607  0.00  0.00    -0.047 C 
BRANCH  24  25
ATOM     25  N   UNL     1      29.291 -24.156 -14.931  0.00  0.00    +0.384 N 
ATOM     26  C   UNL     1      28.561 -23.870 -16.156  0.00  0.00    -0.106 C 
ATOM     27  H   UNL     1      28.628 -24.273 -14.165  0.00  0.00    -0.085 HD
ATOM     28  H   UNL     1      29.833 -25.010 -15.065  0.00  0.00    -0.085 HD
ENDBRANCH  24  25
ENDBRANCH  21  24
ENDBRANCH   1  21
TORSDOF 10
ENDMDL
MODEL 4
REMARK VINA RESULT:      -7.5     12.115     15.576
REMARK  Name = 3105
REMARK  10 active torsions:
REMARK  status: ('A' for Active; 'I' for Inactive)
REMARK    1  A    between atoms: C_1  and  C_21
REMARK    2  A    between atoms: C_2  and  O_7
REMARK    3  A    between atoms: C_3  and  O_14
REMARK    4  A    between atoms: O_7  and  C_9
REMARK    5  A    between atoms: C_9  and  C_10
REMARK    6  A    between atoms: O_14  and  C_16
REMARK    7  A    between atoms: C_16  and  C_17
REMARK    8  A    between atoms: C_21  and  O_22
REMARK    9  A    between atoms: C_21  and  C_24
REMARK   10  A    between atoms: C_24  and  N_25
REMARK                            x       y       z     vdW  Elec       q    Type
REMARK                         _______ _______ _______ _____ _____    ______ ____
ROOT
ATOM      1  C   UNL     1      33.834 -11.546 -24.125  0.00  0.00    +0.005 C 
ATOM      2  C   UNL     1      32.744  -9.798 -22.864  0.00  0.00    +0.183 C 
ATOM      3  C   UNL     1      33.685  -8.910 -23.338  0.00  0.00    +0.183 C 
ATOM      4  C   UNL     1      32.821 -11.132 -23.262  0.00  0.00    +0.039 C 
ATOM      5  C   UNL     1      34.773 -10.625 -24.590  0.00  0.00    +0.001 C 
ATOM      6  C   UNL     1      34.697  -9.290 -24.192  0.00  0.00    +0.041 C 
ENDROOT
BRANCH   2   7
ATOM      7  O   UNL     1      31.749  -9.407 -22.020  0.00  0.00    -0.421 OA
BRANCH   7   9
ATOM      8  O   UNL     1      32.737  -8.820 -19.990  0.00  0.00    -0.250 OA
ATOM      9  C   UNL     1      32.042  -9.581 -20.653  0.00  0.00    +0.320 C 
BRANCH   9  10
ATOM     10  C   UNL     1      31.375 -10.850 -20.107  0.00  0.00    +0.090 C 
ATOM     11  C   UNL     1      32.370 -12.020 -20.178  0.00  0.00    +0.011 C 
ATOM     12  C   UNL     1      30.144 -11.190 -20.957  0.00  0.00    +0.011 C 
ATOM     13  C   UNL     1      30.972 -10.626 -18.643  0.00  0.00    +0.011 C 
ENDBRANCH   9  10
ENDBRANCH   7   9
ENDBRANCH   2   7
BRANCH   3  14
ATOM     14  O   UNL     1      33.619  -7.571 -22.946  0.00  0.00    -0.421 OA
BRANCH  14  16
ATOM     15  O   UNL     1      34.066  -6.451 -24.942  0.00  0.00    -0.250 OA
ATOM     16  C   UNL     1      33.327  -6.703 -23.997  0.00  0.00    +0.320 C 
BRANCH  16  17
ATOM     17  C   UNL     1      31.930  -6.105 -23.800  0.00  0.00    +0.090 C 
ATOM     18  C   UNL     1      31.850  -4.748 -24.520  0.00  0.00    +0.011 C 
ATOM     19  C   UNL     1      31.670  -5.889 -22.303  0.00  0.00    +0.011 C 
ATOM     20  C   UNL     1      30.879  -7.049 -24.396  0.00  0.00    +0.011 C 
ENDBRANCH  16  17
ENDBRANCH  14  16
ENDBRANCH   3  14
BRANCH   1  21
ATOM     21  C   UNL     1      33.915 -12.973 -24.552  0.00  0.00    +0.112 C 
BRANCH  21  22
ATOM     22  O   UNL     1      34.482 -13.747 -23.486  0.00  0.00    -0.382 OA
ATOM     23  H   UNL     1      35.228 -13.264 -23.096  0.00  0.00    +0.211 HD
ENDBRANCH  21  22
BRANCH  21  24
ATOM     24  C   UNL     1      32.537 -13.549 -24.928  0.00  0.00    -0.047 C 
BRANCH  24  25
ATOM     25  N   UNL     1      32.585 -14.276 -26.195  0.00  0.00    +0.384 N 
ATOM     26  C   UNL     1      33.305 -13.511 -27.201  0.00  0.00    -0.106 C 
ATOM     27  H   UNL     1      31.633 -14.444 -26.519  0.00  0.00    -0.085 HD
ATOM     28  H   UNL     1      33.071 -15.160 -26.046  0.00  0.00    -0.085 HD
ENDBRANCH  24  25
ENDBRANCH  21  24
ENDBRANCH   1  21
TORSDOF 10
ENDMDL
MODEL 5
REMARK VINA RESULT:      -7.4      2.717      6.410
REMARK  Name = 3105
REMARK  10 active torsions:
REMARK  status: ('A' for Active; 'I' for Inactive)
REMARK    1  A    between atoms: C_1  and  C_21
REMARK    2  A    between atoms: C_2  and  O_7
REMARK    3  A    between atoms: C_3  and  O_14
REMARK    4  A    between atoms: O_7  and  C_9
REMARK    5  A    between atoms: C_9  and  C_10
REMARK    6  A    between atoms: O_14  and  C_16
REMARK    7  A    between atoms: C_16  and  C_17
REMARK    8  A    between atoms: C_21  and  O_22
REMARK    9  A    between atoms: C_21  and  C_24
REMARK   10  A    between atoms: C_24  and  N_25
REMARK                            x       y       z     vdW  Elec       q    Type
REMARK                         _______ _______ _______ _____ _____    ______ ____
ROOT
ATOM      1  C   UNL     1      35.970 -25.223 -14.473  0.00  0.00    +0.005 C 
ATOM      2  C   UNL     1      34.458 -23.923 -15.838  0.00  0.00    +0.183 C 
ATOM      3  C   UNL     1      33.803 -23.534 -14.690  0.00  0.00    +0.183 C 
ATOM      4  C   UNL     1      35.554 -24.778 -15.728  0.00  0.00    +0.039 C 
ATOM      5  C   UNL     1      35.288 -24.813 -13.328  0.00  0.00    +0.001 C 
ATOM      6  C   UNL     1      34.191 -23.958 -13.438  0.00  0.00    +0.041 C 
ENDROOT
BRANCH   2   7
ATOM      7  O   UNL     1      34.063 -23.496 -17.069  0.00  0.00    -0.421 OA
BRANCH   7   9
ATOM      8  O   UNL     1      35.825 -21.968 -17.066  0.00  0.00    -0.250 OA
ATOM      9  C   UNL     1      34.910 -22.535 -17.653  0.00  0.00    +0.320 C 
BRANCH   9  10
ATOM     10  C   UNL     1      34.537 -22.292 -19.121  0.00  0.00    +0.090 C 
ATOM     11  C   UNL     1      35.725 -21.645 -19.850  0.00  0.00    +0.011 C 
ATOM     12  C   UNL     1      33.331 -21.346 -19.194  0.00  0.00    +0.011 C 
ATOM     13  C   UNL     1      34.209 -23.632 -19.794  0.00  0.00    +0.011 C 
ENDBRANCH   9  10
ENDBRANCH   7   9
ENDBRANCH   2   7
BRANCH   3  14
ATOM     14  O   UNL     1      32.702 -22.679 -14.787  0.00  0.00    -0.421 OA
BRANCH  14  16
ATOM     15  O   UNL     1      31.375 -23.512 -13.061  0.00  0.00    -0.250 OA
ATOM     16  C   UNL     1      31.539 -23.216 -14.239  0.00  0.00    +0.320 C 
BRANCH  16  17
ATOM     17  C   UNL     1      30.481 -23.384 -15.335  0.00  0.00    +0.090 C 
ATOM     18  C   UNL     1      30.137 -24.874 -15.489  0.00  0.00    +0.011 C 
ATOM     19  C   UNL     1      31.033 -22.859 -16.667  0.00  0.00    +0.011 C 
ATOM     20  C   UNL     1      29.211 -22.618 -14.942  0.00  0.00    +0.011 C 
ENDBRANCH  16  17
ENDBRANCH  14  16
ENDBRANCH   3  14
BRANCH   1  21
ATOM     21  C   UNL     1      37.143 -26.136 -14.356  0.00  0.00    +0.112 C 
BRANCH  21  22
ATOM     22  O   UNL     1      37.523 -26.578 -15.665  0.00  0.00    -0.382 OA
ATOM     23  H   UNL     1      38.177 -25.965 -16.037  0.00  0.00    +0.211 HD
ENDBRANCH  21  22
BRANCH  21  24
ATOM     24  C   UNL     1      38.345 -25.456 -13.674  0.00  0.00    -0.047 C 
BRANCH  24  25
ATOM     25  N   UNL     1      39.582 -26.202 -13.897  0.00  0.00    +0.384 N 
ATOM     26  C   UNL     1      40.525 -25.417 -14.678  0.00  0.00    -0.106 C 
ATOM     27  H   UNL     1      39.367 -27.064 -14.399  0.00  0.00    -0.085 HD
ATOM     28  H   UNL     1      40.003 -26.414 -12.992  0.00  0.00    -0.085 HD
ENDBRANCH  24  25
ENDBRANCH  21  24
ENDBRANCH   1  21
TORSDOF 10
ENDMDL
MODEL 6
REMARK VINA RESULT:      -7.4      7.647     11.791
REMARK  Name = 3105
REMARK  10 active torsions:
REMARK  status: ('A' for Active; 'I' for Inactive)
REMARK    1  A    between atoms: C_1  and  C_21
REMARK    2  A    between atoms: C_2  and  O_7
REMARK    3  A    between atoms: C_3  and  O_14
REMARK    4  A    between atoms: O_7  and  C_9
REMARK    5  A    between atoms: C_9  and  C_10
REMARK    6  A    between atoms: O_14  and  C_16
REMARK    7  A    between atoms: C_16  and  C_17
REMARK    8  A    between atoms: C_21  and  O_22
REMARK    9  A    between atoms: C_21  and  C_24
REMARK   10  A    between atoms: C_24  and  N_25
REMARK                            x       y       z     vdW  Elec       q    Type
REMARK                         _______ _______ _______ _____ _____    ______ ____
ROOT
ATOM      1  C   UNL     1      32.134 -12.660 -21.487  0.00  0.00    +0.005 C 
ATOM      2  C   UNL     1      33.470 -13.850 -23.110  0.00  0.00    +0.183 C 
ATOM      3  C   UNL     1      33.442 -14.951 -22.281  0.00  0.00    +0.183 C 
ATOM      4  C   UNL     1      32.809 -12.691 -22.707  0.00  0.00    +0.039 C 
ATOM      5  C   UNL     1      32.122 -13.789 -20.669  0.00  0.00    +0.001 C 
ATOM      6  C   UNL     1      32.784 -14.949 -21.071  0.00  0.00    +0.041 C 
ENDROOT
BRANCH   2   7
ATOM      7  O   UNL     1      34.126 -13.867 -24.303  0.00  0.00    -0.421 OA
BRANCH   7   9
ATOM      8  O   UNL     1      32.619 -15.154 -25.533  0.00  0.00    -0.250 OA
ATOM      9  C   UNL     1      33.307 -14.147 -25.414  0.00  0.00    +0.320 C 
BRANCH   9  10
ATOM     10  C   UNL     1      33.390 -13.022 -26.455  0.00  0.00    +0.090 C 
ATOM     11  C   UNL     1      34.397 -13.412 -27.548  0.00  0.00    +0.011 C 
ATOM     12  C   UNL     1      33.865 -11.731 -25.777  0.00  0.00    +0.011 C 
ATOM     13  C   UNL     1      32.012 -12.816 -27.097  0.00  0.00    +0.011 C 
ENDBRANCH   9  10
ENDBRANCH   7   9
ENDBRANCH   2   7
BRANCH   3  14
ATOM     14  O   UNL     1      34.103 -16.118 -22.673  0.00  0.00    -0.421 OA
BRANCH  14  16
ATOM     15  O   UNL     1      35.189 -16.193 -20.610  0.00  0.00    -0.250 OA
ATOM     16  C   UNL     1      34.780 -16.743 -21.627  0.00  0.00    +0.320 C 
BRANCH  16  17
ATOM     17  C   UNL     1      34.941 -18.236 -21.935  0.00  0.00    +0.090 C 
ATOM     18  C   UNL     1      36.295 -18.725 -21.395  0.00  0.00    +0.011 C 
ATOM     19  C   UNL     1      34.902 -18.455 -23.453  0.00  0.00    +0.011 C 
ATOM     20  C   UNL     1      33.818 -19.024 -21.250  0.00  0.00    +0.011 C 
ENDBRANCH  16  17
ENDBRANCH  14  16
ENDBRANCH   3  14
BRANCH   1  21
ATOM     21  C   UNL     1      31.425 -11.420 -21.057  0.00  0.00    +0.112 C 
BRANCH  21  22
ATOM     22  O   UNL     1      30.057 -11.495 -21.479  0.00  0.00    -0.382 OA
ATOM     23  H   UNL     1      29.663 -10.608 -21.462  0.00  0.00    +0.211 HD
ENDBRANCH  21  22
BRANCH  21  24
ATOM     24  C   UNL     1      31.481 -11.215 -19.532  0.00  0.00    -0.047 C 
BRANCH  24  25
ATOM     25  N   UNL     1      32.221 -10.005 -19.178  0.00  0.00    +0.384 N 
ATOM     26  C   UNL     1      32.110  -9.007 -20.230  0.00  0.00    -0.106 C 
ATOM     27  H   UNL     1      33.204 -10.243 -19.044  0.00  0.00    -0.085 HD
ATOM     28  H   UNL     1      31.828  -9.621 -18.319  0.00  0.00    -0.085 HD
ENDBRANCH  24  25
ENDBRANCH  21  24
ENDBRANCH   1  21
TORSDOF 10
ENDMDL
MODEL 7
REMARK VINA RESULT:      -7.4      7.664     11.789
REMARK  Name = 3105
REMARK  10 active torsions:
REMARK  status: ('A' for Active; 'I' for Inactive)
REMARK    1  A    between atoms: C_1  and  C_21
REMARK    2  A    between atoms: C_2  and  O_7
REMARK    3  A    between atoms: C_3  and  O_14
REMARK    4  A    between atoms: O_7  and  C_9
REMARK    5  A    between atoms: C_9  and  C_10
REMARK    6  A    between atoms: O_14  and  C_16
REMARK    7  A    between atoms: C_16  and  C_17
REMARK    8  A    between atoms: C_21  and  O_22
REMARK    9  A    between atoms: C_21  and  C_24
REMARK   10  A    between atoms: C_24  and  N_25
REMARK                            x       y       z     vdW  Elec       q    Type
REMARK                         _______ _______ _______ _____ _____    ______ ____
ROOT
ATOM      1  C   UNL     1      32.146 -12.651 -21.458  0.00  0.00    +0.005 C 
ATOM      2  C   UNL     1      33.483 -13.830 -23.089  0.00  0.00    +0.183 C 
ATOM      3  C   UNL     1      33.469 -14.931 -22.260  0.00  0.00    +0.183 C 
ATOM      4  C   UNL     1      32.813 -12.676 -22.682  0.00  0.00    +0.039 C 
ATOM      5  C   UNL     1      32.148 -13.780 -20.639  0.00  0.00    +0.001 C 
ATOM      6  C   UNL     1      32.818 -14.935 -21.046  0.00  0.00    +0.041 C 
ENDROOT
BRANCH   2   7
ATOM      7  O   UNL     1      34.131 -13.841 -24.286  0.00  0.00    -0.421 OA
BRANCH   7   9
ATOM      8  O   UNL     1      32.606 -15.124 -25.497  0.00  0.00    -0.250 OA
ATOM      9  C   UNL     1      33.308 -14.125 -25.392  0.00  0.00    +0.320 C 
BRANCH   9  10
ATOM     10  C   UNL     1      33.405 -13.016 -26.448  0.00  0.00    +0.090 C 
ATOM     11  C   UNL     1      32.027 -12.805 -27.096  0.00  0.00    +0.011 C 
ATOM     12  C   UNL     1      34.409 -13.427 -27.533  0.00  0.00    +0.011 C 
ATOM     13  C   UNL     1      33.845 -11.708 -25.776  0.00  0.00    +0.011 C 
ENDBRANCH   9  10
ENDBRANCH   7   9
ENDBRANCH   2   7
BRANCH   3  14
ATOM     14  O   UNL     1      34.137 -16.092 -22.655  0.00  0.00    -0.421 OA
BRANCH  14  16
ATOM     15  O   UNL     1      35.191 -16.194 -20.577  0.00  0.00    -0.250 OA
ATOM     16  C   UNL     1      34.796 -16.731 -21.606  0.00  0.00    +0.320 C 
BRANCH  16  17
ATOM     17  C   UNL     1      34.956 -18.221 -21.928  0.00  0.00    +0.090 C 
ATOM     18  C   UNL     1      34.900 -18.423 -23.451  0.00  0.00    +0.011 C 
ATOM     19  C   UNL     1      33.813 -19.013 -21.279  0.00  0.00    +0.011 C 
ATOM     20  C   UNL     1      36.312 -18.714 -21.409  0.00  0.00    +0.011 C 
ENDBRANCH  16  17
ENDBRANCH  14  16
ENDBRANCH   3  14
BRANCH   1  21
ATOM     21  C   UNL     1      31.429 -11.417 -21.024  0.00  0.00    +0.112 C 
BRANCH  21  22
ATOM     22  O   UNL     1      30.052 -11.516 -21.413  0.00  0.00    -0.382 OA
ATOM     23  H   UNL     1      29.997 -11.733 -22.357  0.00  0.00    +0.211 HD
ENDBRANCH  21  22
BRANCH  21  24
ATOM     24  C   UNL     1      31.518 -11.196 -19.502  0.00  0.00    -0.047 C 
BRANCH  24  25
ATOM     25  N   UNL     1      32.147  -9.917 -19.180  0.00  0.00    +0.384 N 
ATOM     26  C   UNL     1      32.142  -9.034 -20.336  0.00  0.00    -0.106 C 
ATOM     27  H   UNL     1      33.111 -10.084 -18.890  0.00  0.00    -0.085 HD
ATOM     28  H   UNL     1      31.621  -9.475 -18.427  0.00  0.00    -0.085 HD
ENDBRANCH  24  25
ENDBRANCH  21  24
ENDBRANCH   1  21
TORSDOF 10
ENDMDL
MODEL 8
REMARK VINA RESULT:      -7.1      5.358     11.259
REMARK  Name = 3105
REMARK  10 active torsions:
REMARK  status: ('A' for Active; 'I' for Inactive)
REMARK    1  A    between atoms: C_1  and  C_21
REMARK    2  A    between atoms: C_2  and  O_7
REMARK    3  A    between atoms: C_3  and  O_14
REMARK    4  A    between atoms: O_7  and  C_9
REMARK    5  A    between atoms: C_9  and  C_10
REMARK    6  A    between atoms: O_14  and  C_16
REMARK    7  A    between atoms: C_16  and  C_17
REMARK    8  A    between atoms: C_21  and  O_22
REMARK    9  A    between atoms: C_21  and  C_24
REMARK   10  A    between atoms: C_24  and  N_25
REMARK                            x       y       z     vdW  Elec       q    Type
REMARK                         _______ _______ _______ _____ _____    ______ ____
ROOT
ATOM      1  C   UNL     1      34.647 -18.540 -22.711  0.00  0.00    +0.005 C 
ATOM      2  C   UNL     1      34.707 -16.158 -23.116  0.00  0.00    +0.183 C 
ATOM      3  C   UNL     1      34.679 -16.418 -24.469  0.00  0.00    +0.183 C 
ATOM      4  C   UNL     1      34.691 -17.233 -22.227  0.00  0.00    +0.039 C 
ATOM      5  C   UNL     1      34.620 -18.773 -24.086  0.00  0.00    +0.001 C 
ATOM      6  C   UNL     1      34.636 -17.698 -24.976  0.00  0.00    +0.041 C 
ENDROOT
BRANCH   2   7
ATOM      7  O   UNL     1      34.750 -14.887 -22.630  0.00  0.00    -0.421 OA
BRANCH   7   9
ATOM      8  O   UNL     1      35.046 -14.866 -20.317  0.00  0.00    -0.250 OA
ATOM      9  C   UNL     1      34.318 -14.758 -21.296  0.00  0.00    +0.320 C 
BRANCH   9  10
ATOM     10  C   UNL     1      32.813 -14.462 -21.233  0.00  0.00    +0.090 C 
ATOM     11  C   UNL     1      32.567 -13.268 -20.297  0.00  0.00    +0.011 C 
ATOM     12  C   UNL     1      32.072 -15.687 -20.684  0.00  0.00    +0.011 C 
ATOM     13  C   UNL     1      32.302 -14.109 -22.636  0.00  0.00    +0.011 C 
ENDBRANCH   9  10
ENDBRANCH   7   9
ENDBRANCH   2   7
BRANCH   3  14
ATOM     14  O   UNL     1      34.696 -15.351 -25.370  0.00  0.00    -0.421 OA
BRANCH  14  16
ATOM     15  O   UNL     1      32.722 -16.112 -26.351  0.00  0.00    -0.250 OA
ATOM     16  C   UNL     1      33.502 -15.207 -26.074  0.00  0.00    +0.320 C 
BRANCH  16  17
ATOM     17  C   UNL     1      33.300 -13.737 -26.456  0.00  0.00    +0.090 C 
ATOM     18  C   UNL     1      34.263 -13.370 -27.598  0.00  0.00    +0.011 C 
ATOM     19  C   UNL     1      33.603 -12.845 -25.245  0.00  0.00    +0.011 C 
ATOM     20  C   UNL     1      31.858 -13.524 -26.933  0.00  0.00    +0.011 C 
ENDBRANCH  16  17
ENDBRANCH  14  16
ENDBRANCH   3  14
BRANCH   1  21
ATOM     21  C   UNL     1      34.630 -19.688 -21.760  0.00  0.00    +0.112 C 
BRANCH  21  22
ATOM     22  O   UNL     1      35.888 -19.746 -21.075  0.00  0.00    -0.382 OA
ATOM     23  H   UNL     1      36.540 -19.206 -21.549  0.00  0.00    +0.211 HD
ENDBRANCH  21  22
BRANCH  21  24
ATOM     24  C   UNL     1      33.489 -19.576 -20.731  0.00  0.00    -0.047 C 
BRANCH  24  25
ATOM     25  N   UNL     1      32.849 -20.868 -20.493  0.00  0.00    +0.384 N 
ATOM     26  C   UNL     1      33.515 -21.583 -19.415  0.00  0.00    -0.106 C 
ATOM     27  H   UNL     1      32.899 -21.426 -21.346  0.00  0.00    -0.085 HD
ATOM     28  H   UNL     1      31.877 -20.708 -20.229  0.00  0.00    -0.085 HD
ENDBRANCH  24  25
ENDBRANCH  21  24
ENDBRANCH   1  21
TORSDOF 10
ENDMDL
MODEL 9
REMARK VINA RESULT:      -7.0      5.470     11.395
REMARK  Name = 3105
REMARK  10 active torsions:
REMARK  status: ('A' for Active; 'I' for Inactive)
REMARK    1  A    between atoms: C_1  and  C_21
REMARK    2  A    between atoms: C_2  and  O_7
REMARK    3  A    between atoms: C_3  and  O_14
REMARK    4  A    between atoms: O_7  and  C_9
REMARK    5  A    between atoms: C_9  and  C_10
REMARK    6  A    between atoms: O_14  and  C_16
REMARK    7  A    between atoms: C_16  and  C_17
REMARK    8  A    between atoms: C_21  and  O_22
REMARK    9  A    between atoms: C_21  and  C_24
REMARK   10  A    between atoms: C_24  and  N_25
REMARK                            x       y       z     vdW  Elec       q    Type
REMARK                         _______ _______ _______ _____ _____    ______ ____
ROOT
ATOM      1  C   UNL     1      34.529 -18.542 -22.942  0.00  0.00    +0.005 C 
ATOM      2  C   UNL     1      34.460 -16.170 -23.395  0.00  0.00    +0.183 C 
ATOM      3  C   UNL     1      34.599 -16.453 -24.737  0.00  0.00    +0.183 C 
ATOM      4  C   UNL     1      34.426 -17.228 -22.488  0.00  0.00    +0.039 C 
ATOM      5  C   UNL     1      34.668 -18.799 -24.306  0.00  0.00    +0.001 C 
ATOM      6  C   UNL     1      34.703 -17.741 -25.215  0.00  0.00    +0.041 C 
ENDROOT
BRANCH   2   7
ATOM      7  O   UNL     1      34.359 -14.892 -22.939  0.00  0.00    -0.421 OA
BRANCH   7   9
ATOM      8  O   UNL     1      32.106 -14.344 -23.189  0.00  0.00    -0.250 OA
ATOM      9  C   UNL     1      33.078 -14.540 -22.470  0.00  0.00    +0.320 C 
BRANCH   9  10
ATOM     10  C   UNL     1      33.063 -14.438 -20.939  0.00  0.00    +0.090 C 
ATOM     11  C   UNL     1      32.250 -15.605 -20.357  0.00  0.00    +0.011 C 
ATOM     12  C   UNL     1      32.407 -13.116 -20.520  0.00  0.00    +0.011 C 
ATOM     13  C   UNL     1      34.500 -14.516 -20.407  0.00  0.00    +0.011 C 
ENDBRANCH   9  10
ENDBRANCH   7   9
ENDBRANCH   2   7
BRANCH   3  14
ATOM     14  O   UNL     1      34.636 -15.402 -25.657  0.00  0.00    -0.421 OA
BRANCH  14  16
ATOM     15  O   UNL     1      32.512 -15.974 -26.429  0.00  0.00    -0.250 OA
ATOM     16  C   UNL     1      33.403 -15.150 -26.255  0.00  0.00    +0.320 C 
BRANCH  16  17
ATOM     17  C   UNL     1      33.318 -13.676 -26.666  0.00  0.00    +0.090 C 
ATOM     18  C   UNL     1      31.927 -13.389 -27.253  0.00  0.00    +0.011 C 
ATOM     19  C   UNL     1      34.380 -13.378 -27.733  0.00  0.00    +0.011 C 
ATOM     20  C   UNL     1      33.532 -12.788 -25.434  0.00  0.00    +0.011 C 
ENDBRANCH  16  17
ENDBRANCH  14  16
ENDBRANCH   3  14
BRANCH   1  21
ATOM     21  C   UNL     1      34.491 -19.674 -21.971  0.00  0.00    +0.112 C 
BRANCH  21  22
ATOM     22  O   UNL     1      35.774 -19.792 -21.343  0.00  0.00    -0.382 OA
ATOM     23  H   UNL     1      36.182 -18.914 -21.269  0.00  0.00    +0.211 HD
ENDBRANCH  21  22
BRANCH  21  24
ATOM     24  C   UNL     1      33.407 -19.481 -20.894  0.00  0.00    -0.047 C 
BRANCH  24  25
ATOM     25  N   UNL     1      32.741 -20.741 -20.571  0.00  0.00    +0.384 N 
ATOM     26  C   UNL     1      33.417 -21.417 -19.474  0.00  0.00    -0.106 C 
ATOM     27  H   UNL     1      32.751 -21.345 -21.393  0.00  0.00    -0.085 HD
ATOM     28  H   UNL     1      31.781 -20.540 -20.290  0.00  0.00    -0.085 HD
ENDBRANCH  24  25
ENDBRANCH  21  24
ENDBRANCH   1  21
TORSDOF 10
ENDMDL
