MODEL 1
REMARK VINA RESULT:     -10.1      0.000      0.000
REMARK  Name = 5280863
REMARK  5 active torsions:
REMARK  status: ('A' for Active; 'I' for Inactive)
REMARK    1  A    between atoms: C_5  and  C_12
REMARK    2  A    between atoms: C_7  and  O_20
REMARK    3  A    between atoms: C_8  and  O_22
REMARK    4  A    between atoms: C_10  and  O_24
REMARK    5  A    between atoms: C_17  and  O_18
REMARK                            x       y       z     vdW  Elec       q    Type
REMARK                         _______ _______ _______ _____ _____    ______ ____
ROOT
ATOM      1  O   UNL     1      34.022 -16.878 -21.686  0.00  0.00    -0.450 OA
ATOM      2  O   UNL     1      34.600 -16.968 -25.718  0.00  0.00    -0.283 OA
ATOM      3  C   UNL     1      33.844 -15.765 -23.836  0.00  0.00    +0.110 A 
ATOM      4  C   UNL     1      33.671 -15.798 -22.454  0.00  0.00    +0.155 A 
ATOM      5  C   UNL     1      34.585 -17.979 -22.311  0.00  0.00    +0.182 A 
ATOM      6  C   UNL     1      34.429 -16.936 -24.507  0.00  0.00    +0.238 A 
ATOM      7  C   UNL     1      34.798 -18.078 -23.636  0.00  0.00    +0.208 A 
ATOM      8  C   UNL     1      33.466 -14.636 -24.568  0.00  0.00    +0.143 C 
ATOM      9  C   UNL     1      33.117 -14.700 -21.793  0.00  0.00    +0.074 C 
ATOM     10  C   UNL     1      32.738 -13.572 -22.520  0.00  0.00    +0.140 C 
ATOM     11  C   UNL     1      32.913 -13.540 -23.905  0.00  0.00    +0.073 C 
ENDROOT
BRANCH   5  12
ATOM     12  C   UNL     1      34.915 -19.067 -21.373  0.00  0.00    +0.038 C 
ATOM     13  C   UNL     1      33.906 -19.901 -20.890  0.00  0.00    +0.006 C 
ATOM     14  C   UNL     1      36.235 -19.263 -20.969  0.00  0.00    +0.006 C 
ATOM     15  C   UNL     1      34.218 -20.931 -20.002  0.00  0.00    +0.037 C 
ATOM     16  C   UNL     1      36.547 -20.293 -20.081  0.00  0.00    +0.037 C 
ATOM     17  C   UNL     1      35.538 -21.127 -19.598  0.00  0.00    +0.134 C 
BRANCH  17  18
ATOM     18  O   UNL     1      35.843 -22.132 -18.732  0.00  0.00    -0.506 OA
ATOM     19  H   UNL     1      35.402 -22.190 -17.908  0.00  0.00    +0.292 HD
ENDBRANCH  17  18
ENDBRANCH   5  12
BRANCH   7  20
ATOM     20  O   UNL     1      35.330 -19.202 -24.231  0.00  0.00    -0.501 OA
ATOM     21  H   UNL     1      34.762 -19.866 -24.570  0.00  0.00    +0.292 HD
ENDBRANCH   7  20
BRANCH   8  22
ATOM     22  O   UNL     1      33.615 -14.554 -25.919  0.00  0.00    -0.505 OA
ATOM     23  H   UNL     1      33.588 -13.719 -26.344  0.00  0.00    +0.292 HD
ENDBRANCH   8  22
BRANCH  10  24
ATOM     24  O   UNL     1      32.197 -12.500 -21.880  0.00  0.00    -0.505 OA
ATOM     25  H   UNL     1      31.647 -12.630 -21.133  0.00  0.00    +0.292 HD
ENDBRANCH  10  24
TORSDOF 5
ENDMDL
MODEL 2
REMARK VINA RESULT:     -10.0      0.802      1.346
REMARK  Name = 5280863
REMARK  5 active torsions:
REMARK  status: ('A' for Active; 'I' for Inactive)
REMARK    1  A    between atoms: C_5  and  C_12
REMARK    2  A    between atoms: C_7  and  O_20
REMARK    3  A    between atoms: C_8  and  O_22
REMARK    4  A    between atoms: C_10  and  O_24
REMARK    5  A    between atoms: C_17  and  O_18
REMARK                            x       y       z     vdW  Elec       q    Type
REMARK                         _______ _______ _______ _____ _____    ______ ____
ROOT
ATOM      1  O   UNL     1      33.682 -17.004 -21.074  0.00  0.00    -0.450 OA
ATOM      2  O   UNL     1      34.776 -16.460 -24.961  0.00  0.00    -0.283 OA
ATOM      3  C   UNL     1      33.793 -15.555 -23.018  0.00  0.00    +0.110 A 
ATOM      4  C   UNL     1      33.443 -15.805 -21.693  0.00  0.00    +0.155 A 
ATOM      5  C   UNL     1      34.312 -18.006 -21.794  0.00  0.00    +0.182 A 
ATOM      6  C   UNL     1      34.450 -16.619 -23.792  0.00  0.00    +0.238 A 
ATOM      7  C   UNL     1      34.693 -17.897 -23.080  0.00  0.00    +0.208 A 
ATOM      8  C   UNL     1      33.523 -14.312 -23.597  0.00  0.00    +0.143 C 
ATOM      9  C   UNL     1      32.817 -14.812 -20.937  0.00  0.00    +0.074 C 
ATOM     10  C   UNL     1      32.545 -13.571 -21.512  0.00  0.00    +0.140 C 
ATOM     11  C   UNL     1      32.898 -13.321 -22.839  0.00  0.00    +0.073 C 
ENDROOT
BRANCH   5  12
ATOM     12  C   UNL     1      34.507 -19.240 -21.013  0.00  0.00    +0.038 C 
ATOM     13  C   UNL     1      35.797 -19.684 -20.721  0.00  0.00    +0.006 C 
ATOM     14  C   UNL     1      33.403 -19.964 -20.564  0.00  0.00    +0.006 C 
ATOM     15  C   UNL     1      35.983 -20.852 -19.980  0.00  0.00    +0.037 C 
ATOM     16  C   UNL     1      33.588 -21.132 -19.824  0.00  0.00    +0.037 C 
ATOM     17  C   UNL     1      34.879 -21.576 -19.532  0.00  0.00    +0.134 C 
BRANCH  17  18
ATOM     18  O   UNL     1      35.059 -22.715 -18.809  0.00  0.00    -0.506 OA
ATOM     19  H   UNL     1      34.750 -23.534 -19.142  0.00  0.00    +0.292 HD
ENDBRANCH  17  18
ENDBRANCH   5  12
BRANCH   7  20
ATOM     20  O   UNL     1      35.288 -18.925 -23.779  0.00  0.00    -0.501 OA
ATOM     21  H   UNL     1      36.120 -18.794 -24.189  0.00  0.00    +0.292 HD
ENDBRANCH   7  20
BRANCH   8  22
ATOM     22  O   UNL     1      33.846 -14.017 -24.887  0.00  0.00    -0.505 OA
ATOM     23  H   UNL     1      33.222 -13.592 -25.441  0.00  0.00    +0.292 HD
ENDBRANCH   8  22
BRANCH  10  24
ATOM     24  O   UNL     1      31.935 -12.600 -20.777  0.00  0.00    -0.505 OA
ATOM     25  H   UNL     1      31.173 -12.805 -20.272  0.00  0.00    +0.292 HD
ENDBRANCH  10  24
TORSDOF 5
ENDMDL
MODEL 3
REMARK VINA RESULT:      -9.6      2.157      7.039
REMARK  Name = 5280863
REMARK  5 active torsions:
REMARK  status: ('A' for Active; 'I' for Inactive)
REMARK    1  A    between atoms: C_5  and  C_12
REMARK    2  A    between atoms: C_7  and  O_20
REMARK    3  A    between atoms: C_8  and  O_22
REMARK    4  A    between atoms: C_10  and  O_24
REMARK    5  A    between atoms: C_17  and  O_18
REMARK                            x       y       z     vdW  Elec       q    Type
REMARK                         _______ _______ _______ _____ _____    ______ ____
ROOT
ATOM      1  O   UNL     1      34.026 -14.517 -22.544  0.00  0.00    -0.450 OA
ATOM      2  O   UNL     1      33.733 -16.355 -26.169  0.00  0.00    -0.283 OA
ATOM      3  C   UNL     1      34.365 -16.500 -23.902  0.00  0.00    +0.110 A 
ATOM      4  C   UNL     1      34.440 -15.815 -22.691  0.00  0.00    +0.155 A 
ATOM      5  C   UNL     1      33.498 -13.862 -23.646  0.00  0.00    +0.182 A 
ATOM      6  C   UNL     1      33.819 -15.807 -25.078  0.00  0.00    +0.238 A 
ATOM      7  C   UNL     1      33.379 -14.406 -24.871  0.00  0.00    +0.208 A 
ATOM      8  C   UNL     1      34.804 -17.824 -23.992  0.00  0.00    +0.143 C 
ATOM      9  C   UNL     1      34.957 -16.451 -21.560  0.00  0.00    +0.074 C 
ATOM     10  C   UNL     1      35.396 -17.771 -21.647  0.00  0.00    +0.140 C 
ATOM     11  C   UNL     1      35.319 -18.457 -22.860  0.00  0.00    +0.073 C 
ENDROOT
BRANCH   5  12
ATOM     12  C   UNL     1      33.094 -12.476 -23.352  0.00  0.00    +0.038 C 
ATOM     13  C   UNL     1      33.737 -11.413 -23.985  0.00  0.00    +0.006 C 
ATOM     14  C   UNL     1      32.066 -12.228 -22.442  0.00  0.00    +0.006 C 
ATOM     15  C   UNL     1      33.353 -10.101 -23.707  0.00  0.00    +0.037 C 
ATOM     16  C   UNL     1      31.682 -10.916 -22.164  0.00  0.00    +0.037 C 
ATOM     17  C   UNL     1      32.327  -9.852 -22.797  0.00  0.00    +0.134 C 
BRANCH  17  18
ATOM     18  O   UNL     1      31.952  -8.572 -22.526  0.00  0.00    -0.506 OA
ATOM     19  H   UNL     1      31.383  -8.117 -23.114  0.00  0.00    +0.292 HD
ENDBRANCH  17  18
ENDBRANCH   5  12
BRANCH   7  20
ATOM     20  O   UNL     1      32.880 -13.716 -25.955  0.00  0.00    -0.501 OA
ATOM     21  H   UNL     1      33.024 -12.793 -26.030  0.00  0.00    +0.292 HD
ENDBRANCH   7  20
BRANCH   8  22
ATOM     22  O   UNL     1      34.752 -18.537 -25.151  0.00  0.00    -0.505 OA
ATOM     23  H   UNL     1      34.129 -19.230 -25.248  0.00  0.00    +0.292 HD
ENDBRANCH   8  22
BRANCH  10  24
ATOM     24  O   UNL     1      35.900 -18.394 -20.546  0.00  0.00    -0.505 OA
ATOM     25  H   UNL     1      35.817 -19.323 -20.455  0.00  0.00    +0.292 HD
ENDBRANCH  10  24
TORSDOF 5
ENDMDL
MODEL 4
REMARK VINA RESULT:      -9.4      1.373      3.085
REMARK  Name = 5280863
REMARK  5 active torsions:
REMARK  status: ('A' for Active; 'I' for Inactive)
REMARK    1  A    between atoms: C_5  and  C_12
REMARK    2  A    between atoms: C_7  and  O_20
REMARK    3  A    between atoms: C_8  and  O_22
REMARK    4  A    between atoms: C_10  and  O_24
REMARK    5  A    between atoms: C_17  and  O_18
REMARK                            x       y       z     vdW  Elec       q    Type
REMARK                         _______ _______ _______ _____ _____    ______ ____
ROOT
ATOM      1  O   UNL     1      34.344 -17.156 -23.245  0.00  0.00    -0.450 OA
ATOM      2  O   UNL     1      34.223 -13.603 -21.254  0.00  0.00    -0.283 OA
ATOM      3  C   UNL     1      33.972 -14.758 -23.294  0.00  0.00    +0.110 A 
ATOM      4  C   UNL     1      34.032 -16.003 -23.917  0.00  0.00    +0.155 A 
ATOM      5  C   UNL     1      34.599 -17.081 -21.885  0.00  0.00    +0.182 A 
ATOM      6  C   UNL     1      34.255 -14.669 -21.854  0.00  0.00    +0.238 A 
ATOM      7  C   UNL     1      34.582 -15.942 -21.168  0.00  0.00    +0.208 A 
ATOM      8  C   UNL     1      33.649 -13.616 -24.031  0.00  0.00    +0.143 C 
ATOM      9  C   UNL     1      33.770 -16.114 -25.284  0.00  0.00    +0.074 C 
ATOM     10  C   UNL     1      33.447 -14.976 -26.022  0.00  0.00    +0.140 C 
ATOM     11  C   UNL     1      33.387 -13.729 -25.397  0.00  0.00    +0.073 C 
ENDROOT
BRANCH   5  12
ATOM     12  C   UNL     1      34.921 -18.389 -21.287  0.00  0.00    +0.038 C 
ATOM     13  C   UNL     1      36.252 -18.752 -21.078  0.00  0.00    +0.006 C 
ATOM     14  C   UNL     1      33.895 -19.263 -20.928  0.00  0.00    +0.006 C 
ATOM     15  C   UNL     1      36.556 -19.989 -20.511  0.00  0.00    +0.037 C 
ATOM     16  C   UNL     1      34.200 -20.501 -20.362  0.00  0.00    +0.037 C 
ATOM     17  C   UNL     1      35.531 -20.864 -20.153  0.00  0.00    +0.134 C 
BRANCH  17  18
ATOM     18  O   UNL     1      35.829 -22.072 -19.600  0.00  0.00    -0.506 OA
ATOM     19  H   UNL     1      36.545 -22.148 -19.001  0.00  0.00    +0.292 HD
ENDBRANCH  17  18
ENDBRANCH   5  12
BRANCH   7  20
ATOM     20  O   UNL     1      34.874 -15.897 -19.821  0.00  0.00    -0.501 OA
ATOM     21  H   UNL     1      35.729 -16.132 -19.518  0.00  0.00    +0.292 HD
ENDBRANCH   7  20
BRANCH   8  22
ATOM     22  O   UNL     1      33.578 -12.376 -23.471  0.00  0.00    -0.505 OA
ATOM     23  H   UNL     1      32.747 -12.023 -23.219  0.00  0.00    +0.292 HD
ENDBRANCH   8  22
BRANCH  10  24
ATOM     24  O   UNL     1      33.191 -15.080 -27.355  0.00  0.00    -0.505 OA
ATOM     25  H   UNL     1      32.785 -15.853 -27.694  0.00  0.00    +0.292 HD
ENDBRANCH  10  24
TORSDOF 5
ENDMDL
MODEL 5
REMARK VINA RESULT:      -9.2      5.841     11.709
REMARK  Name = 5280863
REMARK  5 active torsions:
REMARK  status: ('A' for Active; 'I' for Inactive)
REMARK    1  A    between atoms: C_5  and  C_12
REMARK    2  A    between atoms: C_7  and  O_20
REMARK    3  A    between atoms: C_8  and  O_22
REMARK    4  A    between atoms: C_10  and  O_24
REMARK    5  A    between atoms: C_17  and  O_18
REMARK                            x       y       z     vdW  Elec       q    Type
REMARK                         _______ _______ _______ _____ _____    ______ ____
ROOT
ATOM      1  O   UNL     1      36.666 -23.898 -15.851  0.00  0.00    -0.450 OA
ATOM      2  O   UNL     1      34.199 -24.180 -12.621  0.00  0.00    -0.283 OA
ATOM      3  C   UNL     1      36.299 -24.663 -13.577  0.00  0.00    +0.110 A 
ATOM      4  C   UNL     1      37.093 -24.534 -14.715  0.00  0.00    +0.155 A 
ATOM      5  C   UNL     1      35.394 -23.347 -15.863  0.00  0.00    +0.182 A 
ATOM      6  C   UNL     1      34.943 -24.093 -13.588  0.00  0.00    +0.238 A 
ATOM      7  C   UNL     1      34.527 -23.409 -14.836  0.00  0.00    +0.208 A 
ATOM      8  C   UNL     1      36.788 -25.325 -12.447  0.00  0.00    +0.143 C 
ATOM      9  C   UNL     1      38.383 -25.068 -14.730  0.00  0.00    +0.074 C 
ATOM     10  C   UNL     1      38.873 -25.729 -13.605  0.00  0.00    +0.140 C 
ATOM     11  C   UNL     1      38.078 -25.857 -12.465  0.00  0.00    +0.073 C 
ENDROOT
BRANCH   5  12
ATOM     12  C   UNL     1      35.062 -22.694 -17.141  0.00  0.00    +0.038 C 
ATOM     13  C   UNL     1      33.776 -22.809 -17.670  0.00  0.00    +0.006 C 
ATOM     14  C   UNL     1      36.033 -21.960 -17.822  0.00  0.00    +0.006 C 
ATOM     15  C   UNL     1      33.462 -22.191 -18.880  0.00  0.00    +0.037 C 
ATOM     16  C   UNL     1      35.719 -21.341 -19.032  0.00  0.00    +0.037 C 
ATOM     17  C   UNL     1      34.432 -21.457 -19.561  0.00  0.00    +0.134 C 
BRANCH  17  18
ATOM     18  O   UNL     1      34.125 -20.853 -20.742  0.00  0.00    -0.506 OA
ATOM     19  H   UNL     1      33.868 -19.952 -20.753  0.00  0.00    +0.292 HD
ENDBRANCH  17  18
ENDBRANCH   5  12
BRANCH   7  20
ATOM     20  O   UNL     1      33.255 -22.880 -14.892  0.00  0.00    -0.501 OA
ATOM     21  H   UNL     1      32.790 -22.864 -15.705  0.00  0.00    +0.292 HD
ENDBRANCH   7  20
BRANCH   8  22
ATOM     22  O   UNL     1      36.053 -25.477 -11.310  0.00  0.00    -0.505 OA
ATOM     23  H   UNL     1      35.877 -24.738 -10.763  0.00  0.00    +0.292 HD
ENDBRANCH   8  22
BRANCH  10  24
ATOM     24  O   UNL     1      40.131 -26.251 -13.616  0.00  0.00    -0.505 OA
ATOM     25  H   UNL     1      40.296 -27.063 -14.054  0.00  0.00    +0.292 HD
ENDBRANCH  10  24
TORSDOF 5
ENDMDL
MODEL 6
REMARK VINA RESULT:      -9.1      3.874      6.800
REMARK  Name = 5280863
REMARK  5 active torsions:
REMARK  status: ('A' for Active; 'I' for Inactive)
REMARK    1  A    between atoms: C_5  and  C_12
REMARK    2  A    between atoms: C_7  and  O_20
REMARK    3  A    between atoms: C_8  and  O_22
REMARK    4  A    between atoms: C_10  and  O_24
REMARK    5  A    between atoms: C_17  and  O_18
REMARK                            x       y       z     vdW  Elec       q    Type
REMARK                         _______ _______ _______ _____ _____    ______ ____
ROOT
ATOM      1  O   UNL     1      33.940 -11.485 -24.099  0.00  0.00    -0.450 OA
ATOM      2  O   UNL     1      31.114 -10.813 -21.241  0.00  0.00    -0.283 OA
ATOM      3  C   UNL     1      32.745  -9.913 -22.688  0.00  0.00    +0.110 A 
ATOM      4  C   UNL     1      33.697 -10.210 -23.660  0.00  0.00    +0.155 A 
ATOM      5  C   UNL     1      33.195 -12.523 -23.561  0.00  0.00    +0.182 A 
ATOM      6  C   UNL     1      31.961 -11.011 -22.103  0.00  0.00    +0.238 A 
ATOM      7  C   UNL     1      32.253 -12.373 -22.612  0.00  0.00    +0.208 A 
ATOM      8  C   UNL     1      32.542  -8.592 -22.278  0.00  0.00    +0.143 C 
ATOM      9  C   UNL     1      34.456  -9.185 -24.230  0.00  0.00    +0.074 C 
ATOM     10  C   UNL     1      34.256  -7.866 -23.824  0.00  0.00    +0.140 C 
ATOM     11  C   UNL     1      33.301  -7.570 -22.850  0.00  0.00    +0.073 C 
ENDROOT
BRANCH   5  12
ATOM     12  C   UNL     1      33.555 -13.838 -24.118  0.00  0.00    +0.038 C 
ATOM     13  C   UNL     1      34.381 -14.700 -23.396  0.00  0.00    +0.006 C 
ATOM     14  C   UNL     1      33.069 -14.223 -25.367  0.00  0.00    +0.006 C 
ATOM     15  C   UNL     1      34.722 -15.945 -23.923  0.00  0.00    +0.037 C 
ATOM     16  C   UNL     1      33.409 -15.469 -25.895  0.00  0.00    +0.037 C 
ATOM     17  C   UNL     1      34.236 -16.330 -25.172  0.00  0.00    +0.134 C 
BRANCH  17  18
ATOM     18  O   UNL     1      34.568 -17.546 -25.687  0.00  0.00    -0.506 OA
ATOM     19  H   UNL     1      35.466 -17.809 -25.725  0.00  0.00    +0.292 HD
ENDBRANCH  17  18
ENDBRANCH   5  12
BRANCH   7  20
ATOM     20  O   UNL     1      31.553 -13.431 -22.072  0.00  0.00    -0.501 OA
ATOM     21  H   UNL     1      30.617 -13.405 -22.040  0.00  0.00    +0.292 HD
ENDBRANCH   7  20
BRANCH   8  22
ATOM     22  O   UNL     1      31.624  -8.250 -21.332  0.00  0.00    -0.505 OA
ATOM     23  H   UNL     1      31.550  -8.754 -20.546  0.00  0.00    +0.292 HD
ENDBRANCH   8  22
BRANCH  10  24
ATOM     24  O   UNL     1      34.994  -6.865 -24.377  0.00  0.00    -0.505 OA
ATOM     25  H   UNL     1      35.898  -7.008 -24.581  0.00  0.00    +0.292 HD
ENDBRANCH  10  24
TORSDOF 5
ENDMDL
MODEL 7
REMARK VINA RESULT:      -9.1      4.810      9.739
REMARK  Name = 5280863
REMARK  5 active torsions:
REMARK  status: ('A' for Active; 'I' for Inactive)
REMARK    1  A    between atoms: C_5  and  C_12
REMARK    2  A    between atoms: C_7  and  O_20
REMARK    3  A    between atoms: C_8  and  O_22
REMARK    4  A    between atoms: C_10  and  O_24
REMARK    5  A    between atoms: C_17  and  O_18
REMARK                            x       y       z     vdW  Elec       q    Type
REMARK                         _______ _______ _______ _____ _____    ______ ____
ROOT
ATOM      1  O   UNL     1      32.034 -22.535 -17.517  0.00  0.00    -0.450 OA
ATOM      2  O   UNL     1      34.437 -24.363 -14.781  0.00  0.00    -0.283 OA
ATOM      3  C   UNL     1      32.246 -23.857 -15.492  0.00  0.00    +0.110 A 
ATOM      4  C   UNL     1      31.481 -23.210 -16.460  0.00  0.00    +0.155 A 
ATOM      5  C   UNL     1      33.414 -22.506 -17.634  0.00  0.00    +0.182 A 
ATOM      6  C   UNL     1      33.713 -23.819 -15.603  0.00  0.00    +0.238 A 
ATOM      7  C   UNL     1      34.266 -23.081 -16.765  0.00  0.00    +0.208 A 
ATOM      8  C   UNL     1      31.627 -24.529 -14.436  0.00  0.00    +0.143 C 
ATOM      9  C   UNL     1      30.087 -23.230 -16.376  0.00  0.00    +0.074 C 
ATOM     10  C   UNL     1      29.466 -23.900 -15.323  0.00  0.00    +0.140 C 
ATOM     11  C   UNL     1      30.234 -24.549 -14.355  0.00  0.00    +0.073 C 
ENDROOT
BRANCH   5  12
ATOM     12  C   UNL     1      33.876 -21.748 -18.810  0.00  0.00    +0.038 C 
ATOM     13  C   UNL     1      32.973 -20.977 -19.542  0.00  0.00    +0.006 C 
ATOM     14  C   UNL     1      35.217 -21.801 -19.192  0.00  0.00    +0.006 C 
ATOM     15  C   UNL     1      33.410 -20.259 -20.655  0.00  0.00    +0.037 C 
ATOM     16  C   UNL     1      35.654 -21.084 -20.305  0.00  0.00    +0.037 C 
ATOM     17  C   UNL     1      34.750 -20.313 -21.037  0.00  0.00    +0.134 C 
BRANCH  17  18
ATOM     18  O   UNL     1      35.177 -19.612 -22.123  0.00  0.00    -0.506 OA
ATOM     19  H   UNL     1      35.552 -18.761 -22.013  0.00  0.00    +0.292 HD
ENDBRANCH  17  18
ENDBRANCH   5  12
BRANCH   7  20
ATOM     20  O   UNL     1      35.636 -23.005 -16.892  0.00  0.00    -0.501 OA
ATOM     21  H   UNL     1      36.178 -23.682 -16.536  0.00  0.00    +0.292 HD
ENDBRANCH   7  20
BRANCH   8  22
ATOM     22  O   UNL     1      32.329 -25.177 -13.465  0.00  0.00    -0.505 OA
ATOM     23  H   UNL     1      33.256 -25.283 -13.549  0.00  0.00    +0.292 HD
ENDBRANCH   8  22
BRANCH  10  24
ATOM     24  O   UNL     1      28.107 -23.922 -15.238  0.00  0.00    -0.505 OA
ATOM     25  H   UNL     1      27.690 -24.384 -14.539  0.00  0.00    +0.292 HD
ENDBRANCH  10  24
TORSDOF 5
ENDMDL
MODEL 8
REMARK VINA RESULT:      -9.1      9.233     11.702
REMARK  Name = 5280863
REMARK  5 active torsions:
REMARK  status: ('A' for Active; 'I' for Inactive)
REMARK    1  A    between atoms: C_5  and  C_12
REMARK    2  A    between atoms: C_7  and  O_20
REMARK    3  A    between atoms: C_8  and  O_22
REMARK    4  A    between atoms: C_10  and  O_24
REMARK    5  A    between atoms: C_17  and  O_18
REMARK                            x       y       z     vdW  Elec       q    Type
REMARK                         _______ _______ _______ _____ _____    ______ ____
ROOT
ATOM      1  O   UNL     1      33.432 -23.915 -13.596  0.00  0.00    -0.450 OA
ATOM      2  O   UNL     1      36.556 -23.508 -16.180  0.00  0.00    -0.283 OA
ATOM      3  C   UNL     1      35.828 -23.764 -13.952  0.00  0.00    +0.110 A 
ATOM      4  C   UNL     1      34.717 -23.898 -13.122  0.00  0.00    +0.155 A 
ATOM      5  C   UNL     1      33.230 -23.806 -14.963  0.00  0.00    +0.182 A 
ATOM      6  C   UNL     1      35.620 -23.634 -15.402  0.00  0.00    +0.238 A 
ATOM      7  C   UNL     1      34.213 -23.663 -15.870  0.00  0.00    +0.208 A 
ATOM      8  C   UNL     1      37.117 -23.752 -13.411  0.00  0.00    +0.143 C 
ATOM      9  C   UNL     1      34.888 -24.020 -11.741  0.00  0.00    +0.074 C 
ATOM     10  C   UNL     1      36.172 -24.009 -11.198  0.00  0.00    +0.140 C 
ATOM     11  C   UNL     1      37.284 -23.876 -12.031  0.00  0.00    +0.073 C 
ENDROOT
BRANCH   5  12
ATOM     12  C   UNL     1      31.805 -23.837 -15.338  0.00  0.00    +0.038 C 
ATOM     13  C   UNL     1      30.986 -24.870 -14.881  0.00  0.00    +0.006 C 
ATOM     14  C   UNL     1      31.275 -22.833 -16.149  0.00  0.00    +0.006 C 
ATOM     15  C   UNL     1      29.637 -24.899 -15.236  0.00  0.00    +0.037 C 
ATOM     16  C   UNL     1      29.927 -22.863 -16.504  0.00  0.00    +0.037 C 
ATOM     17  C   UNL     1      29.108 -23.897 -16.047  0.00  0.00    +0.134 C 
BRANCH  17  18
ATOM     18  O   UNL     1      27.791 -23.925 -16.393  0.00  0.00    -0.506 OA
ATOM     19  H   UNL     1      27.133 -23.805 -15.737  0.00  0.00    +0.292 HD
ENDBRANCH  17  18
ENDBRANCH   5  12
BRANCH   7  20
ATOM     20  O   UNL     1      33.977 -23.523 -17.221  0.00  0.00    -0.501 OA
ATOM     21  H   UNL     1      33.097 -23.497 -17.542  0.00  0.00    +0.292 HD
ENDBRANCH   7  20
BRANCH   8  22
ATOM     22  O   UNL     1      38.235 -23.623 -14.179  0.00  0.00    -0.505 OA
ATOM     23  H   UNL     1      39.024 -23.286 -13.804  0.00  0.00    +0.292 HD
ENDBRANCH   8  22
BRANCH  10  24
ATOM     24  O   UNL     1      36.343 -24.128  -9.852  0.00  0.00    -0.505 OA
ATOM     25  H   UNL     1      36.120 -24.930  -9.422  0.00  0.00    +0.292 HD
ENDBRANCH  10  24
TORSDOF 5
ENDMDL
MODEL 9
REMARK VINA RESULT:      -8.9      5.265      8.474
REMARK  Name = 5280863
REMARK  5 active torsions:
REMARK  status: ('A' for Active; 'I' for Inactive)
REMARK    1  A    between atoms: C_5  and  C_12
REMARK    2  A    between atoms: C_7  and  O_20
REMARK    3  A    between atoms: C_8  and  O_22
REMARK    4  A    between atoms: C_10  and  O_24
REMARK    5  A    between atoms: C_17  and  O_18
REMARK                            x       y       z     vdW  Elec       q    Type
REMARK                         _______ _______ _______ _____ _____    ______ ____
ROOT
ATOM      1  O   UNL     1      35.956 -22.707 -16.977  0.00  0.00    -0.450 OA
ATOM      2  O   UNL     1      32.029 -22.635 -18.063  0.00  0.00    -0.283 OA
ATOM      3  C   UNL     1      34.241 -21.961 -18.525  0.00  0.00    +0.110 A 
ATOM      4  C   UNL     1      35.566 -22.023 -18.099  0.00  0.00    +0.155 A 
ATOM      5  C   UNL     1      34.991 -23.376 -16.242  0.00  0.00    +0.182 A 
ATOM      6  C   UNL     1      33.210 -22.658 -17.741  0.00  0.00    +0.238 A 
ATOM      7  C   UNL     1      33.678 -23.389 -16.539  0.00  0.00    +0.208 A 
ATOM      8  C   UNL     1      33.903 -21.247 -19.677  0.00  0.00    +0.143 C 
ATOM      9  C   UNL     1      36.564 -21.368 -18.824  0.00  0.00    +0.074 C 
ATOM     10  C   UNL     1      36.230 -20.654 -19.974  0.00  0.00    +0.140 C 
ATOM     11  C   UNL     1      34.902 -20.594 -20.400  0.00  0.00    +0.073 C 
ENDROOT
BRANCH   5  12
ATOM     12  C   UNL     1      35.542 -24.068 -15.064  0.00  0.00    +0.038 C 
ATOM     13  C   UNL     1      35.492 -23.459 -13.810  0.00  0.00    +0.006 C 
ATOM     14  C   UNL     1      36.113 -25.334 -15.202  0.00  0.00    +0.006 C 
ATOM     15  C   UNL     1      36.014 -24.115 -12.694  0.00  0.00    +0.037 C 
ATOM     16  C   UNL     1      36.634 -25.989 -14.087  0.00  0.00    +0.037 C 
ATOM     17  C   UNL     1      36.585 -25.379 -12.832  0.00  0.00    +0.134 C 
BRANCH  17  18
ATOM     18  O   UNL     1      37.093 -26.019 -11.744  0.00  0.00    -0.506 OA
ATOM     19  H   UNL     1      36.529 -26.522 -11.191  0.00  0.00    +0.292 HD
ENDBRANCH  17  18
ENDBRANCH   5  12
BRANCH   7  20
ATOM     20  O   UNL     1      32.738 -24.037 -15.767  0.00  0.00    -0.501 OA
ATOM     21  H   UNL     1      32.980 -24.396 -14.937  0.00  0.00    +0.292 HD
ENDBRANCH   7  20
BRANCH   8  22
ATOM     22  O   UNL     1      32.623 -21.155 -20.135  0.00  0.00    -0.505 OA
ATOM     23  H   UNL     1      32.384 -21.566 -20.943  0.00  0.00    +0.292 HD
ENDBRANCH   8  22
BRANCH  10  24
ATOM     24  O   UNL     1      37.200 -20.014 -20.683  0.00  0.00    -0.505 OA
ATOM     25  H   UNL     1      37.178 -19.082 -20.770  0.00  0.00    +0.292 HD
ENDBRANCH  10  24
TORSDOF 5
ENDMDL
