MODEL 1
REMARK VINA RESULT:      -4.3      0.000      0.000
REMARK  Name = 68152
REMARK  4 active torsions:
REMARK  status: ('A' for Active; 'I' for Inactive)
REMARK    1  A    between atoms: C_1  and  C_3
REMARK    2  A    between atoms: C_1  and  C_6
REMARK    3  A    between atoms: C_3  and  O_4
REMARK    4  A    between atoms: C_6  and  O_7
REMARK                            x       y       z     vdW  Elec       q    Type
REMARK                         _______ _______ _______ _____ _____    ______ ____
ROOT
ATOM      1  C   UNL     1      39.364 -25.200 -14.007  0.00  0.00    +0.141 C 
ENDROOT
BRANCH   1   3
ATOM      2  O   UNL     1      41.243 -26.718 -14.089  0.00  0.00    -0.250 OA
ATOM      3  C   UNL     1      40.439 -26.014 -14.685  0.00  0.00    +0.316 C 
BRANCH   3   4
ATOM      4  O   UNL     1      40.411 -25.893 -16.036  0.00  0.00    -0.480 OA
ATOM      5  H   UNL     1      40.861 -26.516 -16.572  0.00  0.00    +0.295 HD
ENDBRANCH   3   4
ENDBRANCH   1   3
BRANCH   1   6
ATOM      6  C   UNL     1      38.062 -25.977 -13.916  0.00  0.00    +0.149 C 
BRANCH   6   7
ATOM      7  O   UNL     1      38.199 -27.209 -14.612  0.00  0.00    -0.381 OA
ATOM      8  H   UNL     1      39.070 -27.591 -14.424  0.00  0.00    +0.210 HD
ENDBRANCH   6   7
ENDBRANCH   1   6
TORSDOF 4
ENDMDL
MODEL 2
REMARK VINA RESULT:      -4.1     12.068     13.289
REMARK  Name = 68152
REMARK  4 active torsions:
REMARK  status: ('A' for Active; 'I' for Inactive)
REMARK    1  A    between atoms: C_1  and  C_3
REMARK    2  A    between atoms: C_1  and  C_6
REMARK    3  A    between atoms: C_3  and  O_4
REMARK    4  A    between atoms: C_6  and  O_7
REMARK                            x       y       z     vdW  Elec       q    Type
REMARK                         _______ _______ _______ _____ _____    ______ ____
ROOT
ATOM      1  C   UNL     1      27.939 -22.519 -15.778  0.00  0.00    +0.141 C 
ENDROOT
BRANCH   1   3
ATOM      2  O   UNL     1      25.569 -22.042 -15.753  0.00  0.00    -0.250 OA
ATOM      3  C   UNL     1      26.650 -21.950 -16.320  0.00  0.00    +0.316 C 
BRANCH   3   4
ATOM      4  O   UNL     1      26.820 -21.309 -17.503  0.00  0.00    -0.480 OA
ATOM      5  H   UNL     1      27.211 -21.757 -18.227  0.00  0.00    +0.295 HD
ENDBRANCH   3   4
ENDBRANCH   1   3
BRANCH   1   6
ATOM      6  C   UNL     1      28.687 -23.298 -16.845  0.00  0.00    +0.149 C 
BRANCH   6   7
ATOM      7  O   UNL     1      27.763 -24.073 -17.598  0.00  0.00    -0.381 OA
ATOM      8  H   UNL     1      27.099 -24.452 -17.002  0.00  0.00    +0.210 HD
ENDBRANCH   6   7
ENDBRANCH   1   6
TORSDOF 4
ENDMDL
MODEL 3
REMARK VINA RESULT:      -4.0      1.045      2.656
REMARK  Name = 68152
REMARK  4 active torsions:
REMARK  status: ('A' for Active; 'I' for Inactive)
REMARK    1  A    between atoms: C_1  and  C_3
REMARK    2  A    between atoms: C_1  and  C_6
REMARK    3  A    between atoms: C_3  and  O_4
REMARK    4  A    between atoms: C_6  and  O_7
REMARK                            x       y       z     vdW  Elec       q    Type
REMARK                         _______ _______ _______ _____ _____    ______ ____
ROOT
ATOM      1  C   UNL     1      39.144 -25.339 -13.992  0.00  0.00    +0.141 C 
ENDROOT
BRANCH   1   3
ATOM      2  O   UNL     1      37.987 -27.332 -14.722  0.00  0.00    -0.250 OA
ATOM      3  C   UNL     1      38.103 -26.114 -14.762  0.00  0.00    +0.316 C 
BRANCH   3   4
ATOM      4  O   UNL     1      37.294 -25.311 -15.498  0.00  0.00    -0.480 OA
ATOM      5  H   UNL     1      37.101 -24.443 -15.203  0.00  0.00    +0.295 HD
ENDBRANCH   3   4
ENDBRANCH   1   3
BRANCH   1   6
ATOM      6  C   UNL     1      40.488 -25.373 -14.698  0.00  0.00    +0.149 C 
BRANCH   6   7
ATOM      7  O   UNL     1      40.317 -25.888 -16.012  0.00  0.00    -0.381 OA
ATOM      8  H   UNL     1      41.169 -26.207 -16.347  0.00  0.00    +0.210 HD
ENDBRANCH   6   7
ENDBRANCH   1   6
TORSDOF 4
ENDMDL
MODEL 4
REMARK VINA RESULT:      -3.9     10.677     12.021
REMARK  Name = 68152
REMARK  4 active torsions:
REMARK  status: ('A' for Active; 'I' for Inactive)
REMARK    1  A    between atoms: C_1  and  C_3
REMARK    2  A    between atoms: C_1  and  C_6
REMARK    3  A    between atoms: C_3  and  O_4
REMARK    4  A    between atoms: C_6  and  O_7
REMARK                            x       y       z     vdW  Elec       q    Type
REMARK                         _______ _______ _______ _____ _____    ______ ____
ROOT
ATOM      1  C   UNL     1      28.573 -22.975 -15.668  0.00  0.00    +0.141 C 
ENDROOT
BRANCH   1   3
ATOM      2  O   UNL     1      27.380 -21.589 -17.248  0.00  0.00    -0.250 OA
ATOM      3  C   UNL     1      27.806 -22.692 -16.937  0.00  0.00    +0.316 C 
BRANCH   3   4
ATOM      4  O   UNL     1      27.650 -23.797 -17.709  0.00  0.00    -0.480 OA
ATOM      5  H   UNL     1      28.386 -24.348 -17.893  0.00  0.00    +0.295 HD
ENDBRANCH   3   4
ENDBRANCH   1   3
BRANCH   1   6
ATOM      6  C   UNL     1      30.070 -22.990 -15.923  0.00  0.00    +0.149 C 
BRANCH   6   7
ATOM      7  O   UNL     1      30.344 -22.341 -17.158  0.00  0.00    -0.381 OA
ATOM      8  H   UNL     1      30.851 -22.937 -17.730  0.00  0.00    +0.210 HD
ENDBRANCH   6   7
ENDBRANCH   1   6
TORSDOF 4
ENDMDL
MODEL 5
REMARK VINA RESULT:      -3.8     10.915     11.640
REMARK  Name = 68152
REMARK  4 active torsions:
REMARK  status: ('A' for Active; 'I' for Inactive)
REMARK    1  A    between atoms: C_1  and  C_3
REMARK    2  A    between atoms: C_1  and  C_6
REMARK    3  A    between atoms: C_3  and  O_4
REMARK    4  A    between atoms: C_6  and  O_7
REMARK                            x       y       z     vdW  Elec       q    Type
REMARK                         _______ _______ _______ _____ _____    ______ ____
ROOT
ATOM      1  C   UNL     1      41.308 -14.848 -16.969  0.00  0.00    +0.141 C 
ENDROOT
BRANCH   1   3
ATOM      2  O   UNL     1      42.324 -16.504 -15.532  0.00  0.00    -0.250 OA
ATOM      3  C   UNL     1      41.337 -15.851 -15.842  0.00  0.00    +0.316 C 
BRANCH   3   4
ATOM      4  O   UNL     1      40.148 -15.943 -15.195  0.00  0.00    -0.480 OA
ATOM      5  H   UNL     1      39.648 -15.170 -15.023  0.00  0.00    +0.295 HD
ENDBRANCH   3   4
ENDBRANCH   1   3
BRANCH   1   6
ATOM      6  C   UNL     1      41.823 -13.494 -16.513  0.00  0.00    +0.149 C 
BRANCH   6   7
ATOM      7  O   UNL     1      41.626 -13.363 -15.111  0.00  0.00    -0.381 OA
ATOM      8  H   UNL     1      42.445 -13.050 -14.698  0.00  0.00    +0.210 HD
ENDBRANCH   6   7
ENDBRANCH   1   6
TORSDOF 4
ENDMDL
MODEL 6
REMARK VINA RESULT:      -3.8     10.714     11.466
REMARK  Name = 68152
REMARK  4 active torsions:
REMARK  status: ('A' for Active; 'I' for Inactive)
REMARK    1  A    between atoms: C_1  and  C_3
REMARK    2  A    between atoms: C_1  and  C_6
REMARK    3  A    between atoms: C_3  and  O_4
REMARK    4  A    between atoms: C_6  and  O_7
REMARK                            x       y       z     vdW  Elec       q    Type
REMARK                         _______ _______ _______ _____ _____    ______ ____
ROOT
ATOM      1  C   UNL     1      41.496 -14.207 -15.641  0.00  0.00    +0.141 C 
ENDROOT
BRANCH   1   3
ATOM      2  O   UNL     1      42.218 -16.512 -15.727  0.00  0.00    -0.250 OA
ATOM      3  C   UNL     1      41.319 -15.702 -15.544  0.00  0.00    +0.316 C 
BRANCH   3   4
ATOM      4  O   UNL     1      40.051 -16.056 -15.215  0.00  0.00    -0.480 OA
ATOM      5  H   UNL     1      39.896 -16.834 -14.715  0.00  0.00    +0.295 HD
ENDBRANCH   3   4
ENDBRANCH   1   3
BRANCH   1   6
ATOM      6  C   UNL     1      41.617 -13.761 -17.088  0.00  0.00    +0.149 C 
BRANCH   6   7
ATOM      7  O   UNL     1      40.895 -14.660 -17.920  0.00  0.00    -0.381 OA
ATOM      8  H   UNL     1      41.284 -15.545 -17.852  0.00  0.00    +0.210 HD
ENDBRANCH   6   7
ENDBRANCH   1   6
TORSDOF 4
ENDMDL
MODEL 7
REMARK VINA RESULT:      -3.7      4.092      5.337
REMARK  Name = 68152
REMARK  4 active torsions:
REMARK  status: ('A' for Active; 'I' for Inactive)
REMARK    1  A    between atoms: C_1  and  C_3
REMARK    2  A    between atoms: C_1  and  C_6
REMARK    3  A    between atoms: C_3  and  O_4
REMARK    4  A    between atoms: C_6  and  O_7
REMARK                            x       y       z     vdW  Elec       q    Type
REMARK                         _______ _______ _______ _____ _____    ______ ____
ROOT
ATOM      1  C   UNL     1      37.217 -23.980 -11.946  0.00  0.00    +0.141 C 
ENDROOT
BRANCH   1   3
ATOM      2  O   UNL     1      34.835 -24.323 -11.717  0.00  0.00    -0.250 OA
ATOM      3  C   UNL     1      35.929 -24.186 -11.186  0.00  0.00    +0.316 C 
BRANCH   3   4
ATOM      4  O   UNL     1      36.116 -24.217  -9.843  0.00  0.00    -0.480 OA
ATOM      5  H   UNL     1      36.910 -24.567  -9.488  0.00  0.00    +0.295 HD
ENDBRANCH   3   4
ENDBRANCH   1   3
BRANCH   1   6
ATOM      6  C   UNL     1      37.863 -25.307 -12.303  0.00  0.00    +0.149 C 
BRANCH   6   7
ATOM      7  O   UNL     1      37.019 -26.371 -11.880  0.00  0.00    -0.381 OA
ATOM      8  H   UNL     1      36.606 -26.138 -11.034  0.00  0.00    +0.210 HD
ENDBRANCH   6   7
ENDBRANCH   1   6
TORSDOF 4
ENDMDL
MODEL 8
REMARK VINA RESULT:      -3.7      2.377      3.127
REMARK  Name = 68152
REMARK  4 active torsions:
REMARK  status: ('A' for Active; 'I' for Inactive)
REMARK    1  A    between atoms: C_1  and  C_3
REMARK    2  A    between atoms: C_1  and  C_6
REMARK    3  A    between atoms: C_3  and  O_4
REMARK    4  A    between atoms: C_6  and  O_7
REMARK                            x       y       z     vdW  Elec       q    Type
REMARK                         _______ _______ _______ _____ _____    ______ ____
ROOT
ATOM      1  C   UNL     1      37.126 -25.167 -14.048  0.00  0.00    +0.141 C 
ENDROOT
BRANCH   1   3
ATOM      2  O   UNL     1      38.313 -27.168 -14.699  0.00  0.00    -0.250 OA
ATOM      3  C   UNL     1      37.258 -26.552 -14.631  0.00  0.00    +0.316 C 
BRANCH   3   4
ATOM      4  O   UNL     1      36.073 -27.052 -15.062  0.00  0.00    -0.480 OA
ATOM      5  H   UNL     1      35.888 -27.966 -14.970  0.00  0.00    +0.295 HD
ENDBRANCH   3   4
ENDBRANCH   1   3
BRANCH   1   6
ATOM      6  C   UNL     1      36.637 -25.219 -12.611  0.00  0.00    +0.149 C 
BRANCH   6   7
ATOM      7  O   UNL     1      36.843 -26.527 -12.091  0.00  0.00    -0.381 OA
ATOM      8  H   UNL     1      36.389 -26.610 -11.238  0.00  0.00    +0.210 HD
ENDBRANCH   6   7
ENDBRANCH   1   6
TORSDOF 4
ENDMDL
MODEL 9
REMARK VINA RESULT:      -3.7      1.823      1.861
REMARK  Name = 68152
REMARK  4 active torsions:
REMARK  status: ('A' for Active; 'I' for Inactive)
REMARK    1  A    between atoms: C_1  and  C_3
REMARK    2  A    between atoms: C_1  and  C_6
REMARK    3  A    between atoms: C_3  and  O_4
REMARK    4  A    between atoms: C_6  and  O_7
REMARK                            x       y       z     vdW  Elec       q    Type
REMARK                         _______ _______ _______ _____ _____    ______ ____
ROOT
ATOM      1  C   UNL     1      39.084 -25.551 -13.526  0.00  0.00    +0.141 C 
ENDROOT
BRANCH   1   3
ATOM      2  O   UNL     1      41.118 -24.701 -14.518  0.00  0.00    -0.250 OA
ATOM      3  C   UNL     1      40.079 -25.335 -14.640  0.00  0.00    +0.316 C 
BRANCH   3   4
ATOM      4  O   UNL     1      39.703 -25.936 -15.798  0.00  0.00    -0.480 OA
ATOM      5  H   UNL     1      39.941 -25.556 -16.621  0.00  0.00    +0.295 HD
ENDBRANCH   3   4
ENDBRANCH   1   3
BRANCH   1   6
ATOM      6  C   UNL     1      37.992 -24.496 -13.553  0.00  0.00    +0.149 C 
BRANCH   6   7
ATOM      7  O   UNL     1      38.173 -23.659 -14.688  0.00  0.00    -0.381 OA
ATOM      8  H   UNL     1      37.515 -22.947 -14.672  0.00  0.00    +0.210 HD
ENDBRANCH   6   7
ENDBRANCH   1   6
TORSDOF 4
ENDMDL
