MODEL 1
REMARK VINA RESULT:      -8.1      0.000      0.000
REMARK  Name = 5281034
REMARK  2 active torsions:
REMARK  status: ('A' for Active; 'I' for Inactive)
REMARK    1  A    between atoms: C_7  and  O_23
REMARK    2  A    between atoms: C_22  and  O_25
REMARK                            x       y       z     vdW  Elec       q    Type
REMARK                         _______ _______ _______ _____ _____    ______ ____
ROOT
ATOM      1  O   UNL     1      33.887 -10.814 -26.028  0.00  0.00    -0.292 OA
ATOM      2  C   UNL     1      34.927 -17.982 -22.944  0.00  0.00    +0.002 C 
ATOM      3  C   UNL     1      34.657 -18.082 -21.427  0.00  0.00    +0.023 C 
ATOM      4  C   UNL     1      34.126 -16.864 -23.626  0.00  0.00    +0.000 C 
ATOM      5  C   UNL     1      34.496 -15.499 -22.964  0.00  0.00    +0.000 C 
ATOM      6  C   UNL     1      33.742 -14.291 -23.640  0.00  0.00    +0.005 C 
ATOM      7  C   UNL     1      35.497 -19.347 -21.069  0.00  0.00    +0.088 C 
ATOM      8  C   UNL     1      35.093 -16.753 -20.787  0.00  0.00    +0.002 C 
ATOM      9  C   UNL     1      34.371 -15.548 -21.418  0.00  0.00    +0.000 C 
ATOM     10  C   UNL     1      34.060 -14.324 -25.170  0.00  0.00    +0.008 C 
ATOM     11  C   UNL     1      34.739 -19.414 -23.434  0.00  0.00    +0.002 C 
ATOM     12  C   UNL     1      34.393 -16.830 -25.137  0.00  0.00    +0.000 C 
ATOM     13  C   UNL     1      35.244 -20.292 -22.274  0.00  0.00    +0.027 C 
ATOM     14  C   UNL     1      33.691 -15.663 -25.821  0.00  0.00    +0.000 C 
ATOM     15  C   UNL     1      33.161 -18.338 -21.079  0.00  0.00    +0.002 C 
ATOM     16  C   UNL     1      34.286 -12.942 -23.090  0.00  0.00    +0.032 C 
ATOM     17  C   UNL     1      32.217 -14.363 -23.365  0.00  0.00    +0.000 C 
ATOM     18  C   UNL     1      33.430 -13.162 -25.945  0.00  0.00    +0.069 C 
ATOM     19  C   UNL     1      37.001 -19.115 -20.877  0.00  0.00    +0.029 C 
ATOM     20  C   UNL     1      33.787 -11.741 -23.842  0.00  0.00    +0.049 C 
ATOM     21  C   UNL     1      33.746 -11.815 -25.329  0.00  0.00    +0.172 C 
ATOM     22  C   UNL     1      33.353 -10.618 -23.256  0.00  0.00    +0.166 C 
ENDROOT
BRANCH   7  23
ATOM     23  O   UNL     1      35.026 -19.976 -19.879  0.00  0.00    -0.387 OA
ATOM     24  H   UNL     1      35.524 -20.794 -19.727  0.00  0.00    +0.210 HD
ENDBRANCH   7  23
BRANCH  22  25
ATOM     25  O   UNL     1      32.871  -9.528 -23.921  0.00  0.00    -0.503 OA
ATOM     26  H   UNL     1      32.876  -8.687 -23.508  0.00  0.00    +0.292 HD
ENDBRANCH  22  25
TORSDOF 2
ENDMDL
MODEL 2
REMARK VINA RESULT:      -7.9     10.790     13.373
REMARK  Name = 5281034
REMARK  2 active torsions:
REMARK  status: ('A' for Active; 'I' for Inactive)
REMARK    1  A    between atoms: C_7  and  O_23
REMARK    2  A    between atoms: C_22  and  O_25
REMARK                            x       y       z     vdW  Elec       q    Type
REMARK                         _______ _______ _______ _____ _____    ______ ____
ROOT
ATOM      1  O   UNL     1      39.192 -25.267 -14.957  0.00  0.00    -0.292 OA
ATOM      2  C   UNL     1      31.591 -23.560 -16.091  0.00  0.00    +0.002 C 
ATOM      3  C   UNL     1      30.669 -23.872 -14.893  0.00  0.00    +0.023 C 
ATOM      4  C   UNL     1      33.038 -23.257 -15.676  0.00  0.00    +0.000 C 
ATOM      5  C   UNL     1      33.614 -24.491 -14.913  0.00  0.00    +0.000 C 
ATOM      6  C   UNL     1      35.116 -24.274 -14.487  0.00  0.00    +0.005 C 
ATOM      7  C   UNL     1      29.293 -24.007 -15.617  0.00  0.00    +0.088 C 
ATOM      8  C   UNL     1      31.216 -25.131 -14.199  0.00  0.00    +0.002 C 
ATOM      9  C   UNL     1      32.682 -24.953 -13.761  0.00  0.00    +0.000 C 
ATOM     10  C   UNL     1      35.933 -23.926 -15.774  0.00  0.00    +0.008 C 
ATOM     11  C   UNL     1      30.819 -22.496 -16.867  0.00  0.00    +0.002 C 
ATOM     12  C   UNL     1      33.905 -22.911 -16.893  0.00  0.00    +0.000 C 
ATOM     13  C   UNL     1      29.339 -22.873 -16.676  0.00  0.00    +0.027 C 
ATOM     14  C   UNL     1      35.369 -22.709 -16.519  0.00  0.00    +0.000 C 
ATOM     15  C   UNL     1      30.595 -22.718 -13.851  0.00  0.00    +0.002 C 
ATOM     16  C   UNL     1      35.709 -25.592 -13.914  0.00  0.00    +0.032 C 
ATOM     17  C   UNL     1      35.234 -23.165 -13.410  0.00  0.00    +0.000 C 
ATOM     18  C   UNL     1      37.431 -23.743 -15.509  0.00  0.00    +0.069 C 
ATOM     19  C   UNL     1      29.026 -25.359 -16.291  0.00  0.00    +0.029 C 
ATOM     20  C   UNL     1      37.195 -25.539 -13.697  0.00  0.00    +0.049 C 
ATOM     21  C   UNL     1      38.034 -24.909 -14.754  0.00  0.00    +0.172 C 
ATOM     22  C   UNL     1      37.808 -26.001 -12.600  0.00  0.00    +0.166 C 
ENDROOT
BRANCH   7  23
ATOM     23  O   UNL     1      28.202 -23.770 -14.730  0.00  0.00    -0.387 OA
ATOM     24  H   UNL     1      28.307 -22.901 -14.313  0.00  0.00    +0.210 HD
ENDBRANCH   7  23
BRANCH  22  25
ATOM     25  O   UNL     1      39.152 -25.937 -12.373  0.00  0.00    -0.503 OA
ATOM     26  H   UNL     1      39.729 -26.533 -12.807  0.00  0.00    +0.292 HD
ENDBRANCH  22  25
TORSDOF 2
ENDMDL
MODEL 3
REMARK VINA RESULT:      -7.4      7.838     12.650
REMARK  Name = 5281034
REMARK  2 active torsions:
REMARK  status: ('A' for Active; 'I' for Inactive)
REMARK    1  A    between atoms: C_7  and  O_23
REMARK    2  A    between atoms: C_22  and  O_25
REMARK                            x       y       z     vdW  Elec       q    Type
REMARK                         _______ _______ _______ _____ _____    ______ ____
ROOT
ATOM      1  O   UNL     1      31.559  -7.160 -19.902  0.00  0.00    -0.292 OA
ATOM      2  C   UNL     1      33.168  -3.218 -26.523  0.00  0.00    +0.002 C 
ATOM      3  C   UNL     1      33.780  -4.071 -27.656  0.00  0.00    +0.023 C 
ATOM      4  C   UNL     1      32.282  -4.030 -25.569  0.00  0.00    +0.000 C 
ATOM      5  C   UNL     1      33.138  -5.167 -24.927  0.00  0.00    +0.000 C 
ATOM      6  C   UNL     1      32.306  -6.024 -23.898  0.00  0.00    +0.005 C 
ATOM      7  C   UNL     1      34.498  -2.967 -28.492  0.00  0.00    +0.088 C 
ATOM      8  C   UNL     1      34.673  -5.140 -27.003  0.00  0.00    +0.002 C 
ATOM      9  C   UNL     1      33.892  -6.003 -25.995  0.00  0.00    +0.000 C 
ATOM     10  C   UNL     1      31.708  -5.046 -22.834  0.00  0.00    +0.008 C 
ATOM     11  C   UNL     1      32.548  -2.036 -27.264  0.00  0.00    +0.002 C 
ATOM     12  C   UNL     1      31.662  -3.134 -24.488  0.00  0.00    +0.000 C 
ATOM     13  C   UNL     1      33.491  -1.786 -28.455  0.00  0.00    +0.027 C 
ATOM     14  C   UNL     1      30.862  -3.933 -23.466  0.00  0.00    +0.000 C 
ATOM     15  C   UNL     1      32.715  -4.782 -28.541  0.00  0.00    +0.002 C 
ATOM     16  C   UNL     1      33.240  -7.008 -23.139  0.00  0.00    +0.032 C 
ATOM     17  C   UNL     1      31.201  -6.840 -24.619  0.00  0.00    +0.000 C 
ATOM     18  C   UNL     1      30.916  -5.761 -21.734  0.00  0.00    +0.069 C 
ATOM     19  C   UNL     1      35.868  -2.519 -27.967  0.00  0.00    +0.029 C 
ATOM     20  C   UNL     1      32.572  -7.699 -21.983  0.00  0.00    +0.049 C 
ATOM     21  C   UNL     1      31.699  -6.886 -21.092  0.00  0.00    +0.172 C 
ATOM     22  C   UNL     1      32.695  -9.006 -21.721  0.00  0.00    +0.166 C 
ENDROOT
BRANCH   7  23
ATOM     23  O   UNL     1      34.692  -3.369 -29.846  0.00  0.00    -0.387 OA
ATOM     24  H   UNL     1      35.641  -3.452 -30.026  0.00  0.00    +0.210 HD
ENDBRANCH   7  23
BRANCH  22  25
ATOM     25  O   UNL     1      32.076  -9.656 -20.693  0.00  0.00    -0.503 OA
ATOM     26  H   UNL     1      31.333 -10.202 -20.863  0.00  0.00    +0.292 HD
ENDBRANCH  22  25
TORSDOF 2
ENDMDL
MODEL 4
REMARK VINA RESULT:      -7.4      2.344      8.060
REMARK  Name = 5281034
REMARK  2 active torsions:
REMARK  status: ('A' for Active; 'I' for Inactive)
REMARK    1  A    between atoms: C_7  and  O_23
REMARK    2  A    between atoms: C_22  and  O_25
REMARK                            x       y       z     vdW  Elec       q    Type
REMARK                         _______ _______ _______ _____ _____    ______ ____
ROOT
ATOM      1  O   UNL     1      34.108 -17.390 -21.341  0.00  0.00    -0.292 OA
ATOM      2  C   UNL     1      32.783  -9.680 -22.221  0.00  0.00    +0.002 C 
ATOM      3  C   UNL     1      33.052  -9.132 -23.640  0.00  0.00    +0.023 C 
ATOM      4  C   UNL     1      32.397 -11.165 -22.212  0.00  0.00    +0.000 C 
ATOM      5  C   UNL     1      33.553 -11.994 -22.855  0.00  0.00    +0.000 C 
ATOM      6  C   UNL     1      33.248 -13.540 -22.845  0.00  0.00    +0.005 C 
ATOM      7  C   UNL     1      33.289  -7.623 -23.325  0.00  0.00    +0.088 C 
ATOM      8  C   UNL     1      34.238  -9.916 -24.226  0.00  0.00    +0.002 C 
ATOM      9  C   UNL     1      33.974 -11.433 -24.239  0.00  0.00    +0.000 C 
ATOM     10  C   UNL     1      32.954 -13.961 -21.368  0.00  0.00    +0.008 C 
ATOM     11  C   UNL     1      31.805  -8.670 -21.629  0.00  0.00    +0.002 C 
ATOM     12  C   UNL     1      32.098 -11.654 -20.788  0.00  0.00    +0.000 C 
ATOM     13  C   UNL     1      32.227  -7.318 -22.234  0.00  0.00    +0.027 C 
ATOM     14  C   UNL     1      31.813 -13.151 -20.740  0.00  0.00    +0.000 C 
ATOM     15  C   UNL     1      31.835  -9.276 -24.600  0.00  0.00    +0.002 C 
ATOM     16  C   UNL     1      34.501 -14.339 -23.305  0.00  0.00    +0.032 C 
ATOM     17  C   UNL     1      32.066 -13.880 -23.789  0.00  0.00    +0.000 C 
ATOM     18  C   UNL     1      32.695 -15.463 -21.207  0.00  0.00    +0.069 C 
ATOM     19  C   UNL     1      34.692  -7.260 -22.822  0.00  0.00    +0.029 C 
ATOM     20  C   UNL     1      34.374 -15.823 -23.108  0.00  0.00    +0.049 C 
ATOM     21  C   UNL     1      33.783 -16.310 -21.831  0.00  0.00    +0.172 C 
ATOM     22  C   UNL     1      34.737 -16.732 -24.021  0.00  0.00    +0.166 C 
ENDROOT
BRANCH   7  23
ATOM     23  O   UNL     1      33.037  -6.798 -24.460  0.00  0.00    -0.387 OA
ATOM     24  H   UNL     1      33.767  -6.170 -24.571  0.00  0.00    +0.210 HD
ENDBRANCH   7  23
BRANCH  22  25
ATOM     25  O   UNL     1      34.605 -18.082 -23.871  0.00  0.00    -0.503 OA
ATOM     26  H   UNL     1      35.277 -18.575 -23.441  0.00  0.00    +0.292 HD
ENDBRANCH  22  25
TORSDOF 2
ENDMDL
MODEL 5
REMARK VINA RESULT:      -7.2     10.386     12.425
REMARK  Name = 5281034
REMARK  2 active torsions:
REMARK  status: ('A' for Active; 'I' for Inactive)
REMARK    1  A    between atoms: C_7  and  O_23
REMARK    2  A    between atoms: C_22  and  O_25
REMARK                            x       y       z     vdW  Elec       q    Type
REMARK                         _______ _______ _______ _____ _____    ______ ____
ROOT
ATOM      1  O   UNL     1      29.099 -21.987 -16.993  0.00  0.00    -0.292 OA
ATOM      2  C   UNL     1      36.325 -23.591 -14.312  0.00  0.00    +0.002 C 
ATOM      3  C   UNL     1      36.365 -24.402 -12.998  0.00  0.00    +0.023 C 
ATOM      4  C   UNL     1      35.059 -23.851 -15.141  0.00  0.00    +0.000 C 
ATOM      5  C   UNL     1      33.808 -23.476 -14.287  0.00  0.00    +0.000 C 
ATOM      6  C   UNL     1      32.465 -23.677 -15.087  0.00  0.00    +0.005 C 
ATOM      7  C   UNL     1      37.783 -24.020 -12.469  0.00  0.00    +0.088 C 
ATOM      8  C   UNL     1      35.163 -23.965 -12.144  0.00  0.00    +0.002 C 
ATOM      9  C   UNL     1      33.829 -24.154 -12.891  0.00  0.00    +0.000 C 
ATOM     10  C   UNL     1      32.565 -22.845 -16.406  0.00  0.00    +0.008 C 
ATOM     11  C   UNL     1      37.682 -23.876 -14.947  0.00  0.00    +0.002 C 
ATOM     12  C   UNL     1      35.083 -23.059 -16.456  0.00  0.00    +0.000 C 
ATOM     13  C   UNL     1      38.650 -24.009 -13.756  0.00  0.00    +0.027 C 
ATOM     14  C   UNL     1      33.791 -23.219 -17.248  0.00  0.00    +0.000 C 
ATOM     15  C   UNL     1      36.292 -25.941 -13.216  0.00  0.00    +0.002 C 
ATOM     16  C   UNL     1      31.266 -23.106 -14.277  0.00  0.00    +0.032 C 
ATOM     17  C   UNL     1      32.204 -25.180 -15.368  0.00  0.00    +0.000 C 
ATOM     18  C   UNL     1      31.292 -22.907 -17.259  0.00  0.00    +0.069 C 
ATOM     19  C   UNL     1      37.882 -22.671 -11.745  0.00  0.00    +0.029 C 
ATOM     20  C   UNL     1      29.985 -23.049 -15.060  0.00  0.00    +0.049 C 
ATOM     21  C   UNL     1      30.047 -22.568 -16.468  0.00  0.00    +0.172 C 
ATOM     22  C   UNL     1      28.795 -23.428 -14.576  0.00  0.00    +0.166 C 
ENDROOT
BRANCH   7  23
ATOM     23  O   UNL     1      38.296 -25.003 -11.572  0.00  0.00    -0.387 OA
ATOM     24  H   UNL     1      39.203 -24.770 -11.323  0.00  0.00    +0.210 HD
ENDBRANCH   7  23
BRANCH  22  25
ATOM     25  O   UNL     1      27.626 -23.408 -15.280  0.00  0.00    -0.503 OA
ATOM     26  H   UNL     1      27.441 -24.087 -15.900  0.00  0.00    +0.292 HD
ENDBRANCH  22  25
TORSDOF 2
ENDMDL
MODEL 6
REMARK VINA RESULT:      -6.4      6.222      9.752
REMARK  Name = 5281034
REMARK  2 active torsions:
REMARK  status: ('A' for Active; 'I' for Inactive)
REMARK    1  A    between atoms: C_7  and  O_23
REMARK    2  A    between atoms: C_22  and  O_25
REMARK                            x       y       z     vdW  Elec       q    Type
REMARK                         _______ _______ _______ _____ _____    ______ ____
ROOT
ATOM      1  O   UNL     1      36.476 -19.398 -20.901  0.00  0.00    -0.292 OA
ATOM      2  C   UNL     1      32.917 -23.548 -15.237  0.00  0.00    +0.002 C 
ATOM      3  C   UNL     1      31.456 -23.944 -15.542  0.00  0.00    +0.023 C 
ATOM      4  C   UNL     1      33.767 -23.365 -16.501  0.00  0.00    +0.000 C 
ATOM      5  C   UNL     1      33.126 -22.252 -17.388  0.00  0.00    +0.000 C 
ATOM      6  C   UNL     1      33.968 -21.976 -18.691  0.00  0.00    +0.005 C 
ATOM      7  C   UNL     1      30.911 -24.166 -14.097  0.00  0.00    +0.088 C 
ATOM      8  C   UNL     1      30.823 -22.803 -16.356  0.00  0.00    +0.002 C 
ATOM      9  C   UNL     1      31.616 -22.508 -17.643  0.00  0.00    +0.000 C 
ATOM     10  C   UNL     1      35.428 -21.629 -18.253  0.00  0.00    +0.008 C 
ATOM     11  C   UNL     1      33.358 -24.582 -14.206  0.00  0.00    +0.002 C 
ATOM     12  C   UNL     1      35.220 -23.015 -16.148  0.00  0.00    +0.000 C 
ATOM     13  C   UNL     1      32.092 -24.871 -13.378  0.00  0.00    +0.027 C 
ATOM     14  C   UNL     1      36.060 -22.726 -17.387  0.00  0.00    +0.000 C 
ATOM     15  C   UNL     1      31.328 -25.267 -16.352  0.00  0.00    +0.002 C 
ATOM     16  C   UNL     1      33.409 -20.732 -19.439  0.00  0.00    +0.032 C 
ATOM     17  C   UNL     1      33.926 -23.194 -19.650  0.00  0.00    +0.000 C 
ATOM     18  C   UNL     1      36.347 -21.281 -19.429  0.00  0.00    +0.069 C 
ATOM     19  C   UNL     1      30.503 -22.897 -13.337  0.00  0.00    +0.029 C 
ATOM     20  C   UNL     1      34.288 -20.262 -20.564  0.00  0.00    +0.049 C 
ATOM     21  C   UNL     1      35.758 -20.216 -20.330  0.00  0.00    +0.172 C 
ATOM     22  C   UNL     1      33.831 -19.906 -21.771  0.00  0.00    +0.166 C 
ENDROOT
BRANCH   7  23
ATOM     23  O   UNL     1      29.777 -25.031 -14.085  0.00  0.00    -0.387 OA
ATOM     24  H   UNL     1      28.981 -24.518 -13.878  0.00  0.00    +0.210 HD
ENDBRANCH   7  23
BRANCH  22  25
ATOM     25  O   UNL     1      34.615 -19.503 -22.813  0.00  0.00    -0.503 OA
ATOM     26  H   UNL     1      34.421 -19.788 -23.684  0.00  0.00    +0.292 HD
ENDBRANCH  22  25
TORSDOF 2
ENDMDL
MODEL 7
REMARK VINA RESULT:      -6.1      1.806      3.323
REMARK  Name = 5281034
REMARK  2 active torsions:
REMARK  status: ('A' for Active; 'I' for Inactive)
REMARK    1  A    between atoms: C_7  and  O_23
REMARK    2  A    between atoms: C_22  and  O_25
REMARK                            x       y       z     vdW  Elec       q    Type
REMARK                         _______ _______ _______ _____ _____    ______ ____
ROOT
ATOM      1  O   UNL     1      30.928 -10.291 -21.789  0.00  0.00    -0.292 OA
ATOM      2  C   UNL     1      33.785 -17.614 -22.224  0.00  0.00    +0.002 C 
ATOM      3  C   UNL     1      35.005 -17.781 -23.156  0.00  0.00    +0.023 C 
ATOM      4  C   UNL     1      33.664 -16.201 -21.638  0.00  0.00    +0.000 C 
ATOM      5  C   UNL     1      33.541 -15.175 -22.808  0.00  0.00    +0.000 C 
ATOM      6  C   UNL     1      33.371 -13.698 -22.283  0.00  0.00    +0.005 C 
ATOM      7  C   UNL     1      34.915 -19.306 -23.475  0.00  0.00    +0.088 C 
ATOM      8  C   UNL     1      34.827 -16.811 -24.336  0.00  0.00    +0.002 C 
ATOM      9  C   UNL     1      34.665 -15.354 -23.862  0.00  0.00    +0.000 C 
ATOM     10  C   UNL     1      32.136 -13.670 -21.325  0.00  0.00    +0.008 C 
ATOM     11  C   UNL     1      33.906 -18.793 -21.264  0.00  0.00    +0.002 C 
ATOM     12  C   UNL     1      32.464 -16.094 -20.686  0.00  0.00    +0.000 C 
ATOM     13  C   UNL     1      34.503 -19.929 -22.114  0.00  0.00    +0.027 C 
ATOM     14  C   UNL     1      32.261 -14.673 -20.172  0.00  0.00    +0.000 C 
ATOM     15  C   UNL     1      36.363 -17.477 -22.459  0.00  0.00    +0.002 C 
ATOM     16  C   UNL     1      33.051 -12.741 -23.467  0.00  0.00    +0.032 C 
ATOM     17  C   UNL     1      34.662 -13.206 -21.579  0.00  0.00    +0.000 C 
ATOM     18  C   UNL     1      31.822 -12.270 -20.784  0.00  0.00    +0.069 C 
ATOM     19  C   UNL     1      33.913 -19.699 -24.569  0.00  0.00    +0.029 C 
ATOM     20  C   UNL     1      32.650 -11.360 -23.031  0.00  0.00    +0.049 C 
ATOM     21  C   UNL     1      31.711 -11.235 -21.882  0.00  0.00    +0.172 C 
ATOM     22  C   UNL     1      33.105 -10.235 -23.597  0.00  0.00    +0.166 C 
ENDROOT
BRANCH   7  23
ATOM     23  O   UNL     1      36.178 -19.840 -23.868  0.00  0.00    -0.387 OA
ATOM     24  H   UNL     1      36.883 -19.401 -23.369  0.00  0.00    +0.210 HD
ENDBRANCH   7  23
BRANCH  22  25
ATOM     25  O   UNL     1      32.773  -8.973 -23.198  0.00  0.00    -0.503 OA
ATOM     26  H   UNL     1      31.892  -8.667 -23.293  0.00  0.00    +0.292 HD
ENDBRANCH  22  25
TORSDOF 2
ENDMDL
MODEL 8
REMARK VINA RESULT:      -5.7      6.163     11.503
REMARK  Name = 5281034
REMARK  2 active torsions:
REMARK  status: ('A' for Active; 'I' for Inactive)
REMARK    1  A    between atoms: C_7  and  O_23
REMARK    2  A    between atoms: C_22  and  O_25
REMARK                            x       y       z     vdW  Elec       q    Type
REMARK                         _______ _______ _______ _____ _____    ______ ____
ROOT
ATOM      1  O   UNL     1      34.551 -24.382 -11.836  0.00  0.00    -0.292 OA
ATOM      2  C   UNL     1      34.010 -21.280 -19.051  0.00  0.00    +0.002 C 
ATOM      3  C   UNL     1      35.333 -21.251 -19.847  0.00  0.00    +0.023 C 
ATOM      4  C   UNL     1      33.955 -22.412 -18.016  0.00  0.00    +0.000 C 
ATOM      5  C   UNL     1      35.136 -22.239 -17.010  0.00  0.00    +0.000 C 
ATOM      6  C   UNL     1      35.123 -23.344 -15.887  0.00  0.00    +0.005 C 
ATOM      7  C   UNL     1      35.032 -20.106 -20.863  0.00  0.00    +0.088 C 
ATOM      8  C   UNL     1      36.475 -21.010 -18.845  0.00  0.00    +0.002 C 
ATOM      9  C   UNL     1      36.499 -22.076 -17.734  0.00  0.00    +0.000 C 
ATOM     10  C   UNL     1      33.725 -23.300 -15.188  0.00  0.00    +0.008 C 
ATOM     11  C   UNL     1      32.940 -21.234 -20.137  0.00  0.00    +0.002 C 
ATOM     12  C   UNL     1      32.607 -22.429 -17.281  0.00  0.00    +0.000 C 
ATOM     13  C   UNL     1      33.548 -20.354 -21.245  0.00  0.00    +0.027 C 
ATOM     14  C   UNL     1      32.566 -23.478 -16.176  0.00  0.00    +0.000 C 
ATOM     15  C   UNL     1      35.619 -22.570 -20.622  0.00  0.00    +0.002 C 
ATOM     16  C   UNL     1      36.187 -23.019 -14.800  0.00  0.00    +0.032 C 
ATOM     17  C   UNL     1      35.429 -24.744 -16.481  0.00  0.00    +0.000 C 
ATOM     18  C   UNL     1      33.597 -24.295 -14.029  0.00  0.00    +0.069 C 
ATOM     19  C   UNL     1      35.216 -18.679 -20.331  0.00  0.00    +0.029 C 
ATOM     20  C   UNL     1      36.088 -23.893 -13.582  0.00  0.00    +0.049 C 
ATOM     21  C   UNL     1      34.732 -24.177 -13.034  0.00  0.00    +0.172 C 
ATOM     22  C   UNL     1      37.142 -24.451 -12.973  0.00  0.00    +0.166 C 
ENDROOT
BRANCH   7  23
ATOM     23  O   UNL     1      35.838 -20.212 -22.035  0.00  0.00    -0.387 OA
ATOM     24  H   UNL     1      36.536 -20.868 -21.888  0.00  0.00    +0.210 HD
ENDBRANCH   7  23
BRANCH  22  25
ATOM     25  O   UNL     1      37.069 -25.268 -11.883  0.00  0.00    -0.503 OA
ATOM     26  H   UNL     1      37.066 -26.198 -11.993  0.00  0.00    +0.292 HD
ENDBRANCH  22  25
TORSDOF 2
ENDMDL
MODEL 9
REMARK VINA RESULT:      -5.3     10.959     13.055
REMARK  Name = 5281034
REMARK  2 active torsions:
REMARK  status: ('A' for Active; 'I' for Inactive)
REMARK    1  A    between atoms: C_7  and  O_23
REMARK    2  A    between atoms: C_22  and  O_25
REMARK                            x       y       z     vdW  Elec       q    Type
REMARK                         _______ _______ _______ _____ _____    ______ ____
ROOT
ATOM      1  O   UNL     1      38.283 -23.041 -13.289  0.00  0.00    -0.292 OA
ATOM      2  C   UNL     1      30.576 -23.837 -14.681  0.00  0.00    +0.002 C 
ATOM      3  C   UNL     1      30.190 -23.915 -16.174  0.00  0.00    +0.023 C 
ATOM      4  C   UNL     1      31.998 -24.342 -14.400  0.00  0.00    +0.000 C 
ATOM      5  C   UNL     1      33.012 -23.485 -15.221  0.00  0.00    +0.000 C 
ATOM      6  C   UNL     1      34.504 -23.918 -14.952  0.00  0.00    +0.005 C 
ATOM      7  C   UNL     1      28.698 -23.463 -16.109  0.00  0.00    +0.088 C 
ATOM      8  C   UNL     1      31.159 -23.010 -16.954  0.00  0.00    +0.002 C 
ATOM      9  C   UNL     1      32.628 -23.407 -16.722  0.00  0.00    +0.000 C 
ATOM     10  C   UNL     1      34.756 -23.837 -13.411  0.00  0.00    +0.008 C 
ATOM     11  C   UNL     1      29.408 -24.520 -13.976  0.00  0.00    +0.002 C 
ATOM     12  C   UNL     1      32.321 -24.287 -12.900  0.00  0.00    +0.000 C 
ATOM     13  C   UNL     1      28.175 -24.155 -14.822  0.00  0.00    +0.027 C 
ATOM     14  C   UNL     1      33.763 -24.684 -12.606  0.00  0.00    +0.000 C 
ATOM     15  C   UNL     1      30.270 -25.355 -16.761  0.00  0.00    +0.002 C 
ATOM     16  C   UNL     1      35.484 -22.916 -15.628  0.00  0.00    +0.032 C 
ATOM     17  C   UNL     1      34.781 -25.338 -15.510  0.00  0.00    +0.000 C 
ATOM     18  C   UNL     1      36.196 -24.180 -13.015  0.00  0.00    +0.069 C 
ATOM     19  C   UNL     1      28.465 -21.948 -16.035  0.00  0.00    +0.029 C 
ATOM     20  C   UNL     1      36.919 -23.122 -15.233  0.00  0.00    +0.049 C 
ATOM     21  C   UNL     1      37.219 -23.386 -13.799  0.00  0.00    +0.172 C 
ATOM     22  C   UNL     1      37.942 -23.106 -16.098  0.00  0.00    +0.166 C 
ENDROOT
BRANCH   7  23
ATOM     23  O   UNL     1      27.951 -23.937 -17.228  0.00  0.00    -0.387 OA
ATOM     24  H   UNL     1      28.321 -23.566 -18.044  0.00  0.00    +0.210 HD
ENDBRANCH   7  23
BRANCH  22  25
ATOM     25  O   UNL     1      39.248 -23.317 -15.763  0.00  0.00    -0.503 OA
ATOM     26  H   UNL     1      39.905 -23.346 -16.431  0.00  0.00    +0.292 HD
ENDBRANCH  22  25
TORSDOF 2
ENDMDL
