MODEL 1
REMARK VINA RESULT:      -8.1      0.000      0.000
REMARK  Name = 1792
REMARK  2 active torsions:
REMARK  status: ('A' for Active; 'I' for Inactive)
REMARK    1  A    between atoms: C_3  and  N_15
REMARK    2  A    between atoms: C_4  and  S_11
REMARK                            x       y       z     vdW  Elec       q    Type
REMARK                         _______ _______ _______ _____ _____    ______ ____
ROOT
ATOM      1  C   UNL     1      34.002 -14.864 -22.789  0.00  0.00    +0.015 C 
ATOM      2  C   UNL     1      34.392 -16.203 -23.026  0.00  0.00    +0.019 C 
ATOM      3  C   UNL     1      33.554 -14.078 -23.862  0.00  0.00    +0.048 C 
ATOM      4  C   UNL     1      34.840 -16.990 -21.953  0.00  0.00    +0.112 C 
ATOM      5  C   UNL     1      34.073 -14.349 -21.484  0.00  0.00    +0.001 C 
ATOM      6  C   UNL     1      34.320 -16.718 -24.332  0.00  0.00    +0.001 C 
ATOM      7  C   UNL     1      33.490 -14.605 -25.153  0.00  0.00    +0.015 C 
ATOM      8  C   UNL     1      34.903 -16.463 -20.662  0.00  0.00    +0.019 C 
ATOM      9  C   UNL     1      33.872 -15.922 -25.387  0.00  0.00    +0.001 C 
ATOM     10  C   UNL     1      34.521 -15.145 -20.428  0.00  0.00    +0.001 C 
ENDROOT
BRANCH   4  11
ATOM     11  S   UNL     1      35.346 -18.662 -22.143  0.00  0.00    +0.042 S 
ATOM     12  O   UNL     1      35.853 -19.115 -20.658  0.00  0.00    -0.065 OA
ATOM     13  O   UNL     1      34.163 -19.445 -22.452  0.00  0.00    -0.065 OA
ATOM     14  O   UNL     1      36.490 -18.648 -23.034  0.00  0.00    -0.065 OA
ENDBRANCH   4  11
BRANCH   3  15
ATOM     15  N   UNL     1      33.153 -12.731 -23.679  0.00  0.00    -0.304 N 
ATOM     16  C   UNL     1      33.805 -11.671 -24.416  0.00  0.00    +0.112 C 
ATOM     17  C   UNL     1      32.080 -12.409 -22.765  0.00  0.00    +0.112 C 
ENDBRANCH   3  15
TORSDOF 2
ENDMDL
MODEL 2
REMARK VINA RESULT:      -8.1      9.984     11.939
REMARK  Name = 1792
REMARK  2 active torsions:
REMARK  status: ('A' for Active; 'I' for Inactive)
REMARK    1  A    between atoms: C_3  and  N_15
REMARK    2  A    between atoms: C_4  and  S_11
REMARK                            x       y       z     vdW  Elec       q    Type
REMARK                         _______ _______ _______ _____ _____    ______ ____
ROOT
ATOM      1  C   UNL     1      32.617 -23.982 -15.168  0.00  0.00    +0.015 C 
ATOM      2  C   UNL     1      31.529 -23.557 -15.966  0.00  0.00    +0.019 C 
ATOM      3  C   UNL     1      33.927 -23.779 -15.627  0.00  0.00    +0.048 C 
ATOM      4  C   UNL     1      30.217 -23.760 -15.507  0.00  0.00    +0.112 C 
ATOM      5  C   UNL     1      32.361 -24.598 -13.931  0.00  0.00    +0.001 C 
ATOM      6  C   UNL     1      31.784 -22.939 -17.202  0.00  0.00    +0.001 C 
ATOM      7  C   UNL     1      34.163 -23.164 -16.858  0.00  0.00    +0.015 C 
ATOM      8  C   UNL     1      29.982 -24.374 -14.276  0.00  0.00    +0.019 C 
ATOM      9  C   UNL     1      33.094 -22.745 -17.643  0.00  0.00    +0.001 C 
ATOM     10  C   UNL     1      31.052 -24.793 -13.490  0.00  0.00    +0.001 C 
ENDROOT
BRANCH   4  11
ATOM     11  S   UNL     1      28.800 -23.269 -16.421  0.00  0.00    +0.042 S 
ATOM     12  O   UNL     1      27.623 -23.091 -15.304  0.00  0.00    -0.065 OA
ATOM     13  O   UNL     1      29.070 -21.955 -16.977  0.00  0.00    -0.065 OA
ATOM     14  O   UNL     1      28.453 -24.388 -17.277  0.00  0.00    -0.065 OA
ENDBRANCH   4  11
BRANCH   3  15
ATOM     15  N   UNL     1      35.052 -24.186 -14.867  0.00  0.00    -0.304 N 
ATOM     16  C   UNL     1      35.647 -25.485 -15.089  0.00  0.00    +0.112 C 
ATOM     17  C   UNL     1      35.620 -23.299 -13.876  0.00  0.00    +0.112 C 
ENDBRANCH   3  15
TORSDOF 2
ENDMDL
MODEL 3
REMARK VINA RESULT:      -8.1      3.774      5.132
REMARK  Name = 1792
REMARK  2 active torsions:
REMARK  status: ('A' for Active; 'I' for Inactive)
REMARK    1  A    between atoms: C_3  and  N_15
REMARK    2  A    between atoms: C_4  and  S_11
REMARK                            x       y       z     vdW  Elec       q    Type
REMARK                         _______ _______ _______ _____ _____    ______ ____
ROOT
ATOM      1  C   UNL     1      34.742 -16.854 -22.144  0.00  0.00    +0.015 C 
ATOM      2  C   UNL     1      34.261 -15.960 -23.130  0.00  0.00    +0.019 C 
ATOM      3  C   UNL     1      35.215 -18.117 -22.534  0.00  0.00    +0.048 C 
ATOM      4  C   UNL     1      33.788 -14.697 -22.741  0.00  0.00    +0.112 C 
ATOM      5  C   UNL     1      34.737 -16.458 -20.797  0.00  0.00    +0.001 C 
ATOM      6  C   UNL     1      34.267 -16.357 -24.478  0.00  0.00    +0.001 C 
ATOM      7  C   UNL     1      35.214 -18.495 -23.878  0.00  0.00    +0.015 C 
ATOM      8  C   UNL     1      33.790 -14.319 -21.398  0.00  0.00    +0.019 C 
ATOM      9  C   UNL     1      34.741 -17.617 -24.847  0.00  0.00    +0.001 C 
ATOM     10  C   UNL     1      34.263 -15.198 -20.428  0.00  0.00    +0.001 C 
ENDROOT
BRANCH   4  11
ATOM     11  S   UNL     1      33.170 -13.516 -23.886  0.00  0.00    +0.042 S 
ATOM     12  O   UNL     1      32.083 -12.642 -23.038  0.00  0.00    -0.065 OA
ATOM     13  O   UNL     1      34.264 -12.626 -24.232  0.00  0.00    -0.065 OA
ATOM     14  O   UNL     1      32.460 -14.264 -24.907  0.00  0.00    -0.065 OA
ENDBRANCH   4  11
BRANCH   3  15
ATOM     15  N   UNL     1      35.707 -19.050 -21.587  0.00  0.00    -0.304 N 
ATOM     16  C   UNL     1      37.114 -19.077 -21.256  0.00  0.00    +0.112 C 
ATOM     17  C   UNL     1      34.802 -19.971 -20.937  0.00  0.00    +0.112 C 
ENDBRANCH   3  15
TORSDOF 2
ENDMDL
MODEL 4
REMARK VINA RESULT:      -8.0      4.042      5.562
REMARK  Name = 1792
REMARK  2 active torsions:
REMARK  status: ('A' for Active; 'I' for Inactive)
REMARK    1  A    between atoms: C_3  and  N_15
REMARK    2  A    between atoms: C_4  and  S_11
REMARK                            x       y       z     vdW  Elec       q    Type
REMARK                         _______ _______ _______ _____ _____    ______ ____
ROOT
ATOM      1  C   UNL     1      34.571 -19.304 -20.950  0.00  0.00    +0.015 C 
ATOM      2  C   UNL     1      34.935 -20.458 -20.215  0.00  0.00    +0.019 C 
ATOM      3  C   UNL     1      35.576 -18.513 -21.528  0.00  0.00    +0.048 C 
ATOM      4  C   UNL     1      33.931 -21.250 -19.636  0.00  0.00    +0.112 C 
ATOM      5  C   UNL     1      33.212 -18.977 -21.085  0.00  0.00    +0.001 C 
ATOM      6  C   UNL     1      36.295 -20.785 -20.080  0.00  0.00    +0.001 C 
ATOM      7  C   UNL     1      36.922 -18.853 -21.384  0.00  0.00    +0.015 C 
ATOM      8  C   UNL     1      32.585 -20.910 -19.780  0.00  0.00    +0.019 C 
ATOM      9  C   UNL     1      37.280 -19.987 -20.662  0.00  0.00    +0.001 C 
ATOM     10  C   UNL     1      32.226 -19.776 -20.503  0.00  0.00    +0.001 C 
ENDROOT
BRANCH   4  11
ATOM     11  S   UNL     1      34.278 -22.699 -18.705  0.00  0.00    +0.042 S 
ATOM     12  O   UNL     1      33.047 -22.814 -17.638  0.00  0.00    -0.065 OA
ATOM     13  O   UNL     1      34.175 -23.833 -19.606  0.00  0.00    -0.065 OA
ATOM     14  O   UNL     1      35.499 -22.434 -17.969  0.00  0.00    -0.065 OA
ENDBRANCH   4  11
BRANCH   3  15
ATOM     15  N   UNL     1      35.266 -17.348 -22.273  0.00  0.00    -0.304 N 
ATOM     16  C   UNL     1      35.236 -17.395 -23.718  0.00  0.00    +0.112 C 
ATOM     17  C   UNL     1      34.965 -16.108 -21.592  0.00  0.00    +0.112 C 
ENDBRANCH   3  15
TORSDOF 2
ENDMDL
MODEL 5
REMARK VINA RESULT:      -8.0      3.846      5.612
REMARK  Name = 1792
REMARK  2 active torsions:
REMARK  status: ('A' for Active; 'I' for Inactive)
REMARK    1  A    between atoms: C_3  and  N_15
REMARK    2  A    between atoms: C_4  and  S_11
REMARK                            x       y       z     vdW  Elec       q    Type
REMARK                         _______ _______ _______ _____ _____    ______ ____
ROOT
ATOM      1  C   UNL     1      34.688 -17.062 -22.811  0.00  0.00    +0.015 C 
ATOM      2  C   UNL     1      34.196 -15.759 -23.058  0.00  0.00    +0.019 C 
ATOM      3  C   UNL     1      35.031 -17.431 -21.501  0.00  0.00    +0.048 C 
ATOM      4  C   UNL     1      33.852 -15.389 -24.368  0.00  0.00    +0.112 C 
ATOM      5  C   UNL     1      34.823 -17.959 -23.883  0.00  0.00    +0.001 C 
ATOM      6  C   UNL     1      34.060 -14.862 -21.985  0.00  0.00    +0.001 C 
ATOM      7  C   UNL     1      34.891 -16.527 -20.447  0.00  0.00    +0.015 C 
ATOM      8  C   UNL     1      33.992 -16.294 -25.422  0.00  0.00    +0.019 C 
ATOM      9  C   UNL     1      34.406 -15.245 -20.688  0.00  0.00    +0.001 C 
ATOM     10  C   UNL     1      34.477 -17.576 -25.180  0.00  0.00    +0.001 C 
ENDROOT
BRANCH   4  11
ATOM     11  S   UNL     1      33.233 -13.797 -24.779  0.00  0.00    +0.042 S 
ATOM     12  O   UNL     1      31.996 -13.551 -23.742  0.00  0.00    -0.065 OA
ATOM     13  O   UNL     1      34.266 -12.829 -24.456  0.00  0.00    -0.065 OA
ATOM     14  O   UNL     1      32.693 -13.898 -26.121  0.00  0.00    -0.065 OA
ENDBRANCH   4  11
BRANCH   3  15
ATOM     15  N   UNL     1      35.530 -18.723 -21.200  0.00  0.00    -0.304 N 
ATOM     16  C   UNL     1      36.953 -18.976 -21.218  0.00  0.00    +0.112 C 
ATOM     17  C   UNL     1      34.618 -19.792 -20.858  0.00  0.00    +0.112 C 
ENDBRANCH   3  15
TORSDOF 2
ENDMDL
MODEL 6
REMARK VINA RESULT:      -7.9      9.623     11.612
REMARK  Name = 1792
REMARK  2 active torsions:
REMARK  status: ('A' for Active; 'I' for Inactive)
REMARK    1  A    between atoms: C_3  and  N_15
REMARK    2  A    between atoms: C_4  and  S_11
REMARK                            x       y       z     vdW  Elec       q    Type
REMARK                         _______ _______ _______ _____ _____    ______ ____
ROOT
ATOM      1  C   UNL     1      31.596 -23.569 -15.860  0.00  0.00    +0.015 C 
ATOM      2  C   UNL     1      32.807 -23.957 -15.238  0.00  0.00    +0.019 C 
ATOM      3  C   UNL     1      30.377 -23.854 -15.226  0.00  0.00    +0.048 C 
ATOM      4  C   UNL     1      34.027 -23.673 -15.872  0.00  0.00    +0.112 C 
ATOM      5  C   UNL     1      31.641 -22.907 -17.098  0.00  0.00    +0.001 C 
ATOM      6  C   UNL     1      32.762 -24.619 -14.000  0.00  0.00    +0.001 C 
ATOM      7  C   UNL     1      30.350 -24.512 -13.996  0.00  0.00    +0.015 C 
ATOM      8  C   UNL     1      34.054 -23.014 -17.102  0.00  0.00    +0.019 C 
ATOM      9  C   UNL     1      31.540 -24.893 -13.384  0.00  0.00    +0.001 C 
ATOM     10  C   UNL     1      32.863 -22.632 -17.714  0.00  0.00    +0.001 C 
ENDROOT
BRANCH   4  11
ATOM     11  S   UNL     1      35.583 -24.112 -15.185  0.00  0.00    +0.042 S 
ATOM     12  O   UNL     1      36.683 -23.348 -16.119  0.00  0.00    -0.065 OA
ATOM     13  O   UNL     1      35.659 -23.522 -13.860  0.00  0.00    -0.065 OA
ATOM     14  O   UNL     1      35.732 -25.542 -15.379  0.00  0.00    -0.065 OA
ENDBRANCH   4  11
BRANCH   3  15
ATOM     15  N   UNL     1      29.136 -23.488 -15.806  0.00  0.00    -0.304 N 
ATOM     16  C   UNL     1      28.480 -24.374 -16.741  0.00  0.00    +0.112 C 
ATOM     17  C   UNL     1      28.512 -22.232 -15.454  0.00  0.00    +0.112 C 
ENDBRANCH   3  15
TORSDOF 2
ENDMDL
MODEL 7
REMARK VINA RESULT:      -7.9      1.241      2.913
REMARK  Name = 1792
REMARK  2 active torsions:
REMARK  status: ('A' for Active; 'I' for Inactive)
REMARK    1  A    between atoms: C_3  and  N_15
REMARK    2  A    between atoms: C_4  and  S_11
REMARK                            x       y       z     vdW  Elec       q    Type
REMARK                         _______ _______ _______ _____ _____    ______ ____
ROOT
ATOM      1  C   UNL     1      33.975 -15.641 -23.832  0.00  0.00    +0.015 C 
ATOM      2  C   UNL     1      34.099 -16.384 -22.634  0.00  0.00    +0.019 C 
ATOM      3  C   UNL     1      33.512 -14.317 -23.774  0.00  0.00    +0.048 C 
ATOM      4  C   UNL     1      34.562 -17.709 -22.691  0.00  0.00    +0.112 C 
ATOM      5  C   UNL     1      34.319 -16.244 -25.052  0.00  0.00    +0.001 C 
ATOM      6  C   UNL     1      33.756 -15.780 -21.413  0.00  0.00    +0.001 C 
ATOM      7  C   UNL     1      33.175 -13.733 -22.552  0.00  0.00    +0.015 C 
ATOM      8  C   UNL     1      34.900 -18.292 -23.912  0.00  0.00    +0.019 C 
ATOM      9  C   UNL     1      33.297 -14.463 -21.374  0.00  0.00    +0.001 C 
ATOM     10  C   UNL     1      34.778 -17.562 -25.091  0.00  0.00    +0.001 C 
ENDROOT
BRANCH   4  11
ATOM     11  S   UNL     1      34.751 -18.715 -21.263  0.00  0.00    +0.042 S 
ATOM     12  O   UNL     1      35.367 -20.120 -21.821  0.00  0.00    -0.065 OA
ATOM     13  O   UNL     1      35.766 -18.101 -20.425  0.00  0.00    -0.065 OA
ATOM     14  O   UNL     1      33.415 -18.969 -20.758  0.00  0.00    -0.065 OA
ENDBRANCH   4  11
BRANCH   3  15
ATOM     15  N   UNL     1      33.369 -13.529 -24.944  0.00  0.00    -0.304 N 
ATOM     16  C   UNL     1      32.702 -14.069 -26.107  0.00  0.00    +0.112 C 
ATOM     17  C   UNL     1      33.878 -12.176 -24.975  0.00  0.00    +0.112 C 
ENDBRANCH   3  15
TORSDOF 2
ENDMDL
MODEL 8
REMARK VINA RESULT:      -7.8      0.858      2.868
REMARK  Name = 1792
REMARK  2 active torsions:
REMARK  status: ('A' for Active; 'I' for Inactive)
REMARK    1  A    between atoms: C_3  and  N_15
REMARK    2  A    between atoms: C_4  and  S_11
REMARK                            x       y       z     vdW  Elec       q    Type
REMARK                         _______ _______ _______ _____ _____    ______ ____
ROOT
ATOM      1  C   UNL     1      33.747 -15.005 -23.331  0.00  0.00    +0.015 C 
ATOM      2  C   UNL     1      34.283 -16.228 -22.861  0.00  0.00    +0.019 C 
ATOM      3  C   UNL     1      33.507 -13.965 -22.419  0.00  0.00    +0.048 C 
ATOM      4  C   UNL     1      34.524 -17.269 -23.773  0.00  0.00    +0.112 C 
ATOM      5  C   UNL     1      33.468 -14.858 -24.700  0.00  0.00    +0.001 C 
ATOM      6  C   UNL     1      34.563 -16.375 -21.493  0.00  0.00    +0.001 C 
ATOM      7  C   UNL     1      33.791 -14.128 -21.062  0.00  0.00    +0.015 C 
ATOM      8  C   UNL     1      34.241 -17.106 -25.130  0.00  0.00    +0.019 C 
ATOM      9  C   UNL     1      34.318 -15.330 -20.600  0.00  0.00    +0.001 C 
ATOM     10  C   UNL     1      33.714 -15.903 -25.592  0.00  0.00    +0.001 C 
ENDROOT
BRANCH   4  11
ATOM     11  S   UNL     1      35.185 -18.824 -23.292  0.00  0.00    +0.042 S 
ATOM     12  O   UNL     1      34.159 -19.378 -22.149  0.00  0.00    -0.065 OA
ATOM     13  O   UNL     1      35.082 -19.716 -24.433  0.00  0.00    -0.065 OA
ATOM     14  O   UNL     1      36.465 -18.552 -22.665  0.00  0.00    -0.065 OA
ENDBRANCH   4  11
BRANCH   3  15
ATOM     15  N   UNL     1      32.971 -12.721 -22.836  0.00  0.00    -0.304 N 
ATOM     16  C   UNL     1      31.746 -12.224 -22.252  0.00  0.00    +0.112 C 
ATOM     17  C   UNL     1      33.655 -11.935 -23.839  0.00  0.00    +0.112 C 
ENDBRANCH   3  15
TORSDOF 2
ENDMDL
MODEL 9
REMARK VINA RESULT:      -7.8      8.945     11.287
REMARK  Name = 1792
REMARK  2 active torsions:
REMARK  status: ('A' for Active; 'I' for Inactive)
REMARK    1  A    between atoms: C_3  and  N_15
REMARK    2  A    between atoms: C_4  and  S_11
REMARK                            x       y       z     vdW  Elec       q    Type
REMARK                         _______ _______ _______ _____ _____    ______ ____
ROOT
ATOM      1  C   UNL     1      36.034 -23.133 -15.288  0.00  0.00    +0.015 C 
ATOM      2  C   UNL     1      34.928 -23.156 -16.171  0.00  0.00    +0.019 C 
ATOM      3  C   UNL     1      35.920 -23.740 -14.028  0.00  0.00    +0.048 C 
ATOM      4  C   UNL     1      35.041 -22.549 -17.432  0.00  0.00    +0.112 C 
ATOM      5  C   UNL     1      37.222 -22.502 -15.693  0.00  0.00    +0.001 C 
ATOM      6  C   UNL     1      33.740 -23.788 -15.766  0.00  0.00    +0.001 C 
ATOM      7  C   UNL     1      34.732 -24.362 -13.642  0.00  0.00    +0.015 C 
ATOM      8  C   UNL     1      36.229 -21.927 -17.818  0.00  0.00    +0.019 C 
ATOM      9  C   UNL     1      33.645 -24.386 -14.509  0.00  0.00    +0.001 C 
ATOM     10  C   UNL     1      37.317 -21.903 -16.950  0.00  0.00    +0.001 C 
ENDROOT
BRANCH   4  11
ATOM     11  S   UNL     1      33.728 -22.524 -18.599  0.00  0.00    +0.042 S 
ATOM     12  O   UNL     1      34.000 -21.192 -19.503  0.00  0.00    -0.065 OA
ATOM     13  O   UNL     1      33.891 -23.676 -19.467  0.00  0.00    -0.065 OA
ATOM     14  O   UNL     1      32.507 -22.322 -17.842  0.00  0.00    -0.065 OA
ENDBRANCH   4  11
BRANCH   3  15
ATOM     15  N   UNL     1      36.997 -23.744 -13.106  0.00  0.00    -0.304 N 
ATOM     16  C   UNL     1      36.984 -22.851 -11.968  0.00  0.00    +0.112 C 
ATOM     17  C   UNL     1      38.108 -24.650 -13.290  0.00  0.00    +0.112 C 
ENDBRANCH   3  15
TORSDOF 2
ENDMDL
