MODEL 1
REMARK VINA RESULT:      -9.1      0.000      0.000
REMARK  Name = 23722944
REMARK  1 active torsions:
REMARK  status: ('A' for Active; 'I' for Inactive)
REMARK    1  A    between atoms: C_3  and  C_10
REMARK                            x       y       z     vdW  Elec       q    Type
REMARK                         _______ _______ _______ _____ _____    ______ ____
ROOT
ATOM      1  O   UNL     1      33.562 -18.632 -21.001  0.00  0.00    -0.425 OA
ATOM      2  N   UNL     1      35.753 -18.074 -21.172  0.00  0.00    -0.368 NA
ATOM      3  C   UNL     1      34.503 -17.712 -21.358  0.00  0.00    +0.282 C 
ATOM      4  C   UNL     1      34.302 -19.684 -20.540  0.00  0.00    +0.174 C 
ATOM      5  C   UNL     1      35.641 -19.338 -20.646  0.00  0.00    +0.151 C 
ATOM      6  C   UNL     1      33.833 -20.895 -20.047  0.00  0.00    +0.040 C 
ATOM      7  C   UNL     1      36.613 -20.260 -20.232  0.00  0.00    +0.088 C 
ATOM      8  C   UNL     1      34.816 -21.803 -19.640  0.00  0.00    -0.001 C 
ATOM      9  C   UNL     1      36.179 -21.495 -19.729  0.00  0.00    -0.018 C 
ENDROOT
BRANCH   3  10
ATOM     10  C   UNL     1      33.980 -16.482 -21.887  0.00  0.00    +0.066 C 
ATOM     11  C   UNL     1      33.515 -15.046 -23.773  0.00  0.00    -0.022 C 
ATOM     12  C   UNL     1      32.924 -14.338 -21.541  0.00  0.00    -0.022 C 
ATOM     13  C   UNL     1      33.431 -15.532 -21.027  0.00  0.00    +0.002 C 
ATOM     14  C   UNL     1      34.023 -16.240 -23.261  0.00  0.00    +0.002 C 
ATOM     15  C   UNL     1      32.966 -14.095 -22.914  0.00  0.00    -0.009 C 
ATOM     16  C   UNL     1      33.558 -14.787 -25.241  0.00  0.00    +0.031 C 
ATOM     17  C   UNL     1      32.336 -13.321 -20.622  0.00  0.00    +0.031 C 
ENDBRANCH   3  10
TORSDOF 1
ENDMDL
MODEL 2
REMARK VINA RESULT:      -9.1      3.063      4.767
REMARK  Name = 23722944
REMARK  1 active torsions:
REMARK  status: ('A' for Active; 'I' for Inactive)
REMARK    1  A    between atoms: C_3  and  C_10
REMARK                            x       y       z     vdW  Elec       q    Type
REMARK                         _______ _______ _______ _____ _____    ______ ____
ROOT
ATOM      1  O   UNL     1      34.385 -15.030 -22.609  0.00  0.00    -0.425 OA
ATOM      2  N   UNL     1      33.578 -15.136 -24.724  0.00  0.00    -0.368 NA
ATOM      3  C   UNL     1      33.737 -14.413 -23.638  0.00  0.00    +0.282 C 
ATOM      4  C   UNL     1      34.662 -16.272 -23.104  0.00  0.00    +0.174 C 
ATOM      5  C   UNL     1      34.167 -16.333 -24.398  0.00  0.00    +0.151 C 
ATOM      6  C   UNL     1      35.319 -17.312 -22.457  0.00  0.00    +0.040 C 
ATOM      7  C   UNL     1      34.328 -17.518 -25.129  0.00  0.00    +0.088 C 
ATOM      8  C   UNL     1      35.469 -18.487 -23.201  0.00  0.00    -0.001 C 
ATOM      9  C   UNL     1      34.985 -18.591 -24.510  0.00  0.00    -0.018 C 
ENDROOT
BRANCH   3  10
ATOM     10  C   UNL     1      33.326 -13.061 -23.375  0.00  0.00    +0.066 C 
ATOM     11  C   UNL     1      31.867 -11.500 -22.247  0.00  0.00    -0.022 C 
ATOM     12  C   UNL     1      33.587 -10.688 -23.737  0.00  0.00    -0.022 C 
ATOM     13  C   UNL     1      33.986 -12.000 -23.992  0.00  0.00    +0.002 C 
ATOM     14  C   UNL     1      32.266 -12.813 -22.502  0.00  0.00    +0.002 C 
ATOM     15  C   UNL     1      32.527 -10.438 -22.865  0.00  0.00    -0.009 C 
ATOM     16  C   UNL     1      30.737 -11.232 -21.313  0.00  0.00    +0.031 C 
ATOM     17  C   UNL     1      34.293  -9.552 -24.396  0.00  0.00    +0.031 C 
ENDBRANCH   3  10
TORSDOF 1
ENDMDL
MODEL 3
REMARK VINA RESULT:      -9.1      0.206      2.086
REMARK  Name = 23722944
REMARK  1 active torsions:
REMARK  status: ('A' for Active; 'I' for Inactive)
REMARK    1  A    between atoms: C_3  and  C_10
REMARK                            x       y       z     vdW  Elec       q    Type
REMARK                         _______ _______ _______ _____ _____    ______ ____
ROOT
ATOM      1  O   UNL     1      33.499 -18.768 -20.956  0.00  0.00    -0.425 OA
ATOM      2  N   UNL     1      35.707 -18.277 -21.102  0.00  0.00    -0.368 NA
ATOM      3  C   UNL     1      34.471 -17.882 -21.314  0.00  0.00    +0.282 C 
ATOM      4  C   UNL     1      34.201 -19.832 -20.466  0.00  0.00    +0.174 C 
ATOM      5  C   UNL     1      35.551 -19.527 -20.557  0.00  0.00    +0.151 C 
ATOM      6  C   UNL     1      33.689 -21.021 -19.959  0.00  0.00    +0.040 C 
ATOM      7  C   UNL     1      36.489 -20.470 -20.113  0.00  0.00    +0.088 C 
ATOM      8  C   UNL     1      34.639 -21.950 -19.522  0.00  0.00    -0.001 C 
ATOM      9  C   UNL     1      36.011 -21.683 -19.595  0.00  0.00    -0.018 C 
ENDROOT
BRANCH   3  10
ATOM     10  C   UNL     1      33.992 -16.647 -21.872  0.00  0.00    +0.066 C 
ATOM     11  C   UNL     1      32.989 -14.468 -21.580  0.00  0.00    -0.022 C 
ATOM     12  C   UNL     1      33.600 -15.231 -23.789  0.00  0.00    -0.022 C 
ATOM     13  C   UNL     1      34.065 -16.429 -23.247  0.00  0.00    +0.002 C 
ATOM     14  C   UNL     1      33.454 -15.667 -21.037  0.00  0.00    +0.002 C 
ATOM     15  C   UNL     1      33.062 -14.251 -22.955  0.00  0.00    -0.009 C 
ATOM     16  C   UNL     1      32.417 -13.419 -20.688  0.00  0.00    +0.031 C 
ATOM     17  C   UNL     1      33.678 -14.997 -25.260  0.00  0.00    +0.031 C 
ENDBRANCH   3  10
TORSDOF 1
ENDMDL
MODEL 4
REMARK VINA RESULT:      -9.1      3.069      4.468
REMARK  Name = 23722944
REMARK  1 active torsions:
REMARK  status: ('A' for Active; 'I' for Inactive)
REMARK    1  A    between atoms: C_3  and  C_10
REMARK                            x       y       z     vdW  Elec       q    Type
REMARK                         _______ _______ _______ _____ _____    ______ ____
ROOT
ATOM      1  O   UNL     1      34.391 -15.030 -22.618  0.00  0.00    -0.425 OA
ATOM      2  N   UNL     1      33.561 -15.143 -24.725  0.00  0.00    -0.368 NA
ATOM      3  C   UNL     1      33.731 -14.417 -23.642  0.00  0.00    +0.282 C 
ATOM      4  C   UNL     1      34.664 -16.274 -23.113  0.00  0.00    +0.174 C 
ATOM      5  C   UNL     1      34.155 -16.338 -24.401  0.00  0.00    +0.151 C 
ATOM      6  C   UNL     1      35.329 -17.310 -22.470  0.00  0.00    +0.040 C 
ATOM      7  C   UNL     1      34.309 -17.526 -25.131  0.00  0.00    +0.088 C 
ATOM      8  C   UNL     1      35.473 -18.488 -23.212  0.00  0.00    -0.001 C 
ATOM      9  C   UNL     1      34.975 -18.596 -24.516  0.00  0.00    -0.018 C 
ENDROOT
BRANCH   3  10
ATOM     10  C   UNL     1      33.321 -13.065 -23.378  0.00  0.00    +0.066 C 
ATOM     11  C   UNL     1      33.585 -10.690 -23.737  0.00  0.00    -0.022 C 
ATOM     12  C   UNL     1      31.864 -11.504 -22.250  0.00  0.00    -0.022 C 
ATOM     13  C   UNL     1      32.262 -12.816 -22.506  0.00  0.00    +0.002 C 
ATOM     14  C   UNL     1      33.984 -12.003 -23.994  0.00  0.00    +0.002 C 
ATOM     15  C   UNL     1      32.526 -10.441 -22.865  0.00  0.00    -0.009 C 
ATOM     16  C   UNL     1      34.290  -9.554 -24.398  0.00  0.00    +0.031 C 
ATOM     17  C   UNL     1      30.731 -11.237 -21.317  0.00  0.00    +0.031 C 
ENDBRANCH   3  10
TORSDOF 1
ENDMDL
MODEL 5
REMARK VINA RESULT:      -9.0      4.790      8.594
REMARK  Name = 23722944
REMARK  1 active torsions:
REMARK  status: ('A' for Active; 'I' for Inactive)
REMARK    1  A    between atoms: C_3  and  C_10
REMARK                            x       y       z     vdW  Elec       q    Type
REMARK                         _______ _______ _______ _____ _____    ______ ____
ROOT
ATOM      1  O   UNL     1      32.332 -21.711 -18.475  0.00  0.00    -0.425 OA
ATOM      2  N   UNL     1      34.108 -22.837 -17.630  0.00  0.00    -0.368 NA
ATOM      3  C   UNL     1      32.820 -22.585 -17.550  0.00  0.00    +0.282 C 
ATOM      4  C   UNL     1      33.431 -21.380 -19.215  0.00  0.00    +0.174 C 
ATOM      5  C   UNL     1      34.515 -22.072 -18.694  0.00  0.00    +0.151 C 
ATOM      6  C   UNL     1      33.491 -20.513 -20.299  0.00  0.00    +0.040 C 
ATOM      7  C   UNL     1      35.775 -21.900 -19.287  0.00  0.00    +0.088 C 
ATOM      8  C   UNL     1      34.755 -20.353 -20.877  0.00  0.00    -0.001 C 
ATOM      9  C   UNL     1      35.876 -21.032 -20.383  0.00  0.00    -0.018 C 
ENDROOT
BRANCH   3  10
ATOM     10  C   UNL     1      31.847 -23.098 -16.625  0.00  0.00    +0.066 C 
ATOM     11  C   UNL     1      31.313 -24.364 -14.638  0.00  0.00    -0.022 C 
ATOM     12  C   UNL     1      29.548 -23.327 -15.921  0.00  0.00    -0.022 C 
ATOM     13  C   UNL     1      30.493 -22.829 -16.818  0.00  0.00    +0.002 C 
ATOM     14  C   UNL     1      32.258 -23.866 -15.535  0.00  0.00    +0.002 C 
ATOM     15  C   UNL     1      29.958 -24.095 -14.831  0.00  0.00    -0.009 C 
ATOM     16  C   UNL     1      31.751 -25.182 -13.471  0.00  0.00    +0.031 C 
ATOM     17  C   UNL     1      28.100 -23.038 -16.126  0.00  0.00    +0.031 C 
ENDBRANCH   3  10
TORSDOF 1
ENDMDL
MODEL 6
REMARK VINA RESULT:      -9.0      4.756      8.520
REMARK  Name = 23722944
REMARK  1 active torsions:
REMARK  status: ('A' for Active; 'I' for Inactive)
REMARK    1  A    between atoms: C_3  and  C_10
REMARK                            x       y       z     vdW  Elec       q    Type
REMARK                         _______ _______ _______ _____ _____    ______ ____
ROOT
ATOM      1  O   UNL     1      32.348 -21.672 -18.496  0.00  0.00    -0.425 OA
ATOM      2  N   UNL     1      34.120 -22.835 -17.692  0.00  0.00    -0.368 NA
ATOM      3  C   UNL     1      32.837 -22.568 -17.591  0.00  0.00    +0.282 C 
ATOM      4  C   UNL     1      33.442 -21.344 -19.244  0.00  0.00    +0.174 C 
ATOM      5  C   UNL     1      34.524 -22.057 -18.749  0.00  0.00    +0.151 C 
ATOM      6  C   UNL     1      33.498 -20.460 -20.315  0.00  0.00    +0.040 C 
ATOM      7  C   UNL     1      35.777 -21.892 -19.355  0.00  0.00    +0.088 C 
ATOM      8  C   UNL     1      34.757 -20.307 -20.907  0.00  0.00    -0.001 C 
ATOM      9  C   UNL     1      35.875 -21.008 -20.439  0.00  0.00    -0.018 C 
ENDROOT
BRANCH   3  10
ATOM     10  C   UNL     1      31.869 -23.083 -16.662  0.00  0.00    +0.066 C 
ATOM     11  C   UNL     1      29.574 -23.319 -15.946  0.00  0.00    -0.022 C 
ATOM     12  C   UNL     1      31.349 -24.348 -14.671  0.00  0.00    -0.022 C 
ATOM     13  C   UNL     1      32.288 -23.848 -15.573  0.00  0.00    +0.002 C 
ATOM     14  C   UNL     1      30.513 -22.818 -16.849  0.00  0.00    +0.002 C 
ATOM     15  C   UNL     1      29.992 -24.083 -14.857  0.00  0.00    -0.009 C 
ATOM     16  C   UNL     1      28.123 -23.038 -16.146  0.00  0.00    +0.031 C 
ATOM     17  C   UNL     1      31.796 -25.167 -13.507  0.00  0.00    +0.031 C 
ENDBRANCH   3  10
TORSDOF 1
ENDMDL
MODEL 7
REMARK VINA RESULT:      -8.9      1.584      2.297
REMARK  Name = 23722944
REMARK  1 active torsions:
REMARK  status: ('A' for Active; 'I' for Inactive)
REMARK    1  A    between atoms: C_3  and  C_10
REMARK                            x       y       z     vdW  Elec       q    Type
REMARK                         _______ _______ _______ _____ _____    ______ ____
ROOT
ATOM      1  O   UNL     1      35.553 -19.483 -20.538  0.00  0.00    -0.425 OA
ATOM      2  N   UNL     1      33.313 -19.774 -20.730  0.00  0.00    -0.368 NA
ATOM      3  C   UNL     1      34.367 -19.061 -21.062  0.00  0.00    +0.282 C 
ATOM      4  C   UNL     1      35.205 -20.578 -19.800  0.00  0.00    +0.174 C 
ATOM      5  C   UNL     1      33.835 -20.753 -19.920  0.00  0.00    +0.151 C 
ATOM      6  C   UNL     1      36.046 -21.393 -19.052  0.00  0.00    +0.040 C 
ATOM      7  C   UNL     1      33.227 -21.822 -19.247  0.00  0.00    +0.088 C 
ATOM      8  C   UNL     1      35.423 -22.455 -18.386  0.00  0.00    -0.001 C 
ATOM      9  C   UNL     1      34.042 -22.667 -18.481  0.00  0.00    -0.018 C 
ENDROOT
BRANCH   3  10
ATOM     10  C   UNL     1      34.451 -17.896 -21.899  0.00  0.00    +0.066 C 
ATOM     11  C   UNL     1      34.700 -16.907 -24.089  0.00  0.00    -0.022 C 
ATOM     12  C   UNL     1      34.449 -15.494 -22.147  0.00  0.00    -0.022 C 
ATOM     13  C   UNL     1      34.367 -16.624 -21.334  0.00  0.00    +0.002 C 
ATOM     14  C   UNL     1      34.618 -18.039 -23.277  0.00  0.00    +0.002 C 
ATOM     15  C   UNL     1      34.616 -15.635 -23.524  0.00  0.00    -0.009 C 
ATOM     16  C   UNL     1      34.876 -17.058 -25.562  0.00  0.00    +0.031 C 
ATOM     17  C   UNL     1      34.358 -14.133 -21.542  0.00  0.00    +0.031 C 
ENDBRANCH   3  10
TORSDOF 1
ENDMDL
MODEL 8
REMARK VINA RESULT:      -8.9      1.588      3.062
REMARK  Name = 23722944
REMARK  1 active torsions:
REMARK  status: ('A' for Active; 'I' for Inactive)
REMARK    1  A    between atoms: C_3  and  C_10
REMARK                            x       y       z     vdW  Elec       q    Type
REMARK                         _______ _______ _______ _____ _____    ______ ____
ROOT
ATOM      1  O   UNL     1      35.533 -19.499 -20.519  0.00  0.00    -0.425 OA
ATOM      2  N   UNL     1      33.293 -19.781 -20.716  0.00  0.00    -0.368 NA
ATOM      3  C   UNL     1      34.350 -19.072 -21.044  0.00  0.00    +0.282 C 
ATOM      4  C   UNL     1      35.180 -20.595 -19.784  0.00  0.00    +0.174 C 
ATOM      5  C   UNL     1      33.809 -20.764 -19.908  0.00  0.00    +0.151 C 
ATOM      6  C   UNL     1      36.016 -21.416 -19.037  0.00  0.00    +0.040 C 
ATOM      7  C   UNL     1      33.197 -21.833 -19.239  0.00  0.00    +0.088 C 
ATOM      8  C   UNL     1      35.388 -22.477 -18.375  0.00  0.00    -0.001 C 
ATOM      9  C   UNL     1      34.007 -22.684 -18.473  0.00  0.00    -0.018 C 
ENDROOT
BRANCH   3  10
ATOM     10  C   UNL     1      34.440 -17.905 -21.878  0.00  0.00    +0.066 C 
ATOM     11  C   UNL     1      34.442 -15.501 -22.121  0.00  0.00    -0.022 C 
ATOM     12  C   UNL     1      34.702 -16.912 -24.064  0.00  0.00    -0.022 C 
ATOM     13  C   UNL     1      34.614 -18.045 -23.254  0.00  0.00    +0.002 C 
ATOM     14  C   UNL     1      34.354 -16.634 -21.310  0.00  0.00    +0.002 C 
ATOM     15  C   UNL     1      34.616 -15.641 -23.497  0.00  0.00    -0.009 C 
ATOM     16  C   UNL     1      34.353 -14.142 -21.514  0.00  0.00    +0.031 C 
ATOM     17  C   UNL     1      34.888 -17.061 -25.536  0.00  0.00    +0.031 C 
ENDBRANCH   3  10
TORSDOF 1
ENDMDL
MODEL 9
REMARK VINA RESULT:      -8.7      5.557     10.052
REMARK  Name = 23722944
REMARK  1 active torsions:
REMARK  status: ('A' for Active; 'I' for Inactive)
REMARK    1  A    between atoms: C_3  and  C_10
REMARK                            x       y       z     vdW  Elec       q    Type
REMARK                         _______ _______ _______ _____ _____    ______ ____
ROOT
ATOM      1  O   UNL     1      35.290 -23.250 -16.441  0.00  0.00    -0.425 OA
ATOM      2  N   UNL     1      37.172 -22.144 -17.050  0.00  0.00    -0.368 NA
ATOM      3  C   UNL     1      36.593 -22.943 -16.181  0.00  0.00    +0.282 C 
ATOM      4  C   UNL     1      35.025 -22.572 -17.596  0.00  0.00    +0.174 C 
ATOM      5  C   UNL     1      36.179 -21.898 -17.966  0.00  0.00    +0.151 C 
ATOM      6  C   UNL     1      33.828 -22.541 -18.302  0.00  0.00    +0.040 C 
ATOM      7  C   UNL     1      36.164 -21.120 -19.132  0.00  0.00    +0.088 C 
ATOM      8  C   UNL     1      33.831 -21.760 -19.462  0.00  0.00    -0.001 C 
ATOM      9  C   UNL     1      34.974 -21.063 -19.872  0.00  0.00    -0.018 C 
ENDROOT
BRANCH   3  10
ATOM     10  C   UNL     1      37.134 -23.542 -14.992  0.00  0.00    +0.066 C 
ATOM     11  C   UNL     1      38.819 -24.894 -13.911  0.00  0.00    -0.022 C 
ATOM     12  C   UNL     1      37.023 -23.933 -12.612  0.00  0.00    -0.022 C 
ATOM     13  C   UNL     1      36.498 -23.352 -13.766  0.00  0.00    +0.002 C 
ATOM     14  C   UNL     1      38.294 -24.313 -15.066  0.00  0.00    +0.002 C 
ATOM     15  C   UNL     1      38.183 -24.704 -12.684  0.00  0.00    -0.009 C 
ATOM     16  C   UNL     1      40.060 -25.716 -13.987  0.00  0.00    +0.031 C 
ATOM     17  C   UNL     1      36.344 -23.730 -11.299  0.00  0.00    +0.031 C 
ENDBRANCH   3  10
TORSDOF 1
ENDMDL
