MODEL 1
REMARK VINA RESULT:      -7.9      0.000      0.000
REMARK  Name = 16960
REMARK  5 active torsions:
REMARK  status: ('A' for Active; 'I' for Inactive)
REMARK    1  A    between atoms: C_1  and  C_3
REMARK    2  A    between atoms: C_1  and  C_10
REMARK    3  A    between atoms: C_1  and  C_15
REMARK    4  A    between atoms: C_15  and  C_16
REMARK    5  A    between atoms: C_16  and  N_17
REMARK                            x       y       z     vdW  Elec       q    Type
REMARK                         _______ _______ _______ _____ _____    ______ ____
ROOT
ATOM      1  C   UNL     1      34.076 -24.048 -15.434  0.00  0.00    +0.060 C 
ENDROOT
BRANCH   1   3
ATOM      2 BR   UNL     1      36.183 -20.726 -20.188  0.00  0.00    -0.049 Br
ATOM      3  C   UNL     1      34.599 -23.226 -16.609  0.00  0.00    -0.017 C 
ATOM      4  C   UNL     1      35.852 -22.661 -16.518  0.00  0.00    -0.003 C 
ATOM      5  C   UNL     1      33.797 -23.079 -17.720  0.00  0.00    -0.003 C 
ATOM      6  C   UNL     1      36.328 -21.910 -17.594  0.00  0.00    +0.006 C 
ATOM      7  C   UNL     1      34.274 -22.328 -18.795  0.00  0.00    +0.006 C 
ATOM      8  C   UNL     1      35.538 -21.744 -18.731  0.00  0.00    +0.035 C 
ENDBRANCH   1   3
BRANCH   1  10
ATOM      9  N   UNL     1      35.831 -25.715 -15.473  0.00  0.00    -0.248 NA
ATOM     10  C   UNL     1      35.207 -24.791 -14.734  0.00  0.00    +0.063 C 
ATOM     11  C   UNL     1      35.490 -24.464 -13.433  0.00  0.00    +0.015 C 
ATOM     12  C   UNL     1      36.527 -25.161 -12.823  0.00  0.00    +0.003 C 
ATOM     13  C   UNL     1      36.834 -26.371 -14.848  0.00  0.00    +0.098 C 
ATOM     14  C   UNL     1      37.217 -26.134 -13.537  0.00  0.00    +0.021 C 
ENDBRANCH   1  10
BRANCH   1  15
ATOM     15  C   UNL     1      33.179 -23.229 -14.469  0.00  0.00    -0.012 C 
BRANCH  15  16
ATOM     16  C   UNL     1      31.878 -23.959 -14.114  0.00  0.00    -0.077 C 
BRANCH  16  17
ATOM     17  N   UNL     1      31.118 -24.251 -15.325  0.00  0.00    +0.384 N 
ATOM     18  C   UNL     1      30.498 -23.033 -15.850  0.00  0.00    -0.101 C 
ATOM     19  C   UNL     1      30.100 -25.268 -15.062  0.00  0.00    -0.101 C 
ATOM     20  H   UNL     1      31.764 -24.614 -16.027  0.00  0.00    -0.080 HD
ENDBRANCH  16  17
ENDBRANCH  15  16
ENDBRANCH   1  15
TORSDOF 5
ENDMDL
MODEL 2
REMARK VINA RESULT:      -7.9      6.658      9.950
REMARK  Name = 16960
REMARK  5 active torsions:
REMARK  status: ('A' for Active; 'I' for Inactive)
REMARK    1  A    between atoms: C_1  and  C_3
REMARK    2  A    between atoms: C_1  and  C_10
REMARK    3  A    between atoms: C_1  and  C_15
REMARK    4  A    between atoms: C_15  and  C_16
REMARK    5  A    between atoms: C_16  and  N_17
REMARK                            x       y       z     vdW  Elec       q    Type
REMARK                         _______ _______ _______ _____ _____    ______ ____
ROOT
ATOM      1  C   UNL     1      35.350 -17.663 -21.555  0.00  0.00    +0.060 C 
ENDROOT
BRANCH   1   3
ATOM      2 BR   UNL     1      33.830 -22.995 -18.846  0.00  0.00    -0.049 Br
ATOM      3  C   UNL     1      34.973 -18.981 -20.886  0.00  0.00    -0.017 C 
ATOM      4  C   UNL     1      33.639 -19.296 -20.745  0.00  0.00    -0.003 C 
ATOM      5  C   UNL     1      35.981 -19.812 -20.446  0.00  0.00    -0.003 C 
ATOM      6  C   UNL     1      33.296 -20.502 -20.132  0.00  0.00    +0.006 C 
ATOM      7  C   UNL     1      35.637 -21.017 -19.834  0.00  0.00    +0.006 C 
ATOM      8  C   UNL     1      34.295 -21.361 -19.676  0.00  0.00    +0.035 C 
ENDBRANCH   1   3
BRANCH   1  10
ATOM      9  N   UNL     1      35.092 -16.498 -23.662  0.00  0.00    -0.248 NA
ATOM     10  C   UNL     1      35.006 -17.679 -23.039  0.00  0.00    +0.063 C 
ATOM     11  C   UNL     1      34.643 -18.873 -23.607  0.00  0.00    +0.015 C 
ATOM     12  C   UNL     1      34.334 -18.854 -24.963  0.00  0.00    +0.003 C 
ATOM     13  C   UNL     1      34.786 -16.519 -24.979  0.00  0.00    +0.098 C 
ATOM     14  C   UNL     1      34.405 -17.659 -25.669  0.00  0.00    +0.021 C 
ENDBRANCH   1  10
BRANCH   1  15
ATOM     15  C   UNL     1      34.806 -16.420 -20.803  0.00  0.00    -0.012 C 
BRANCH  15  16
ATOM     16  C   UNL     1      33.411 -16.006 -21.286  0.00  0.00    -0.077 C 
BRANCH  16  17
ATOM     17  N   UNL     1      33.364 -14.566 -21.514  0.00  0.00    +0.384 N 
ATOM     18  C   UNL     1      32.659 -13.893 -20.422  0.00  0.00    -0.101 C 
ATOM     19  C   UNL     1      32.721 -14.268 -22.794  0.00  0.00    -0.101 C 
ATOM     20  H   UNL     1      34.323 -14.216 -21.544  0.00  0.00    -0.080 HD
ENDBRANCH  16  17
ENDBRANCH  15  16
ENDBRANCH   1  15
TORSDOF 5
ENDMDL
MODEL 3
REMARK VINA RESULT:      -7.7     10.152     13.295
REMARK  Name = 16960
REMARK  5 active torsions:
REMARK  status: ('A' for Active; 'I' for Inactive)
REMARK    1  A    between atoms: C_1  and  C_3
REMARK    2  A    between atoms: C_1  and  C_10
REMARK    3  A    between atoms: C_1  and  C_15
REMARK    4  A    between atoms: C_15  and  C_16
REMARK    5  A    between atoms: C_16  and  N_17
REMARK                            x       y       z     vdW  Elec       q    Type
REMARK                         _______ _______ _______ _____ _____    ______ ____
ROOT
ATOM      1  C   UNL     1      33.555 -13.380 -22.870  0.00  0.00    +0.060 C 
ENDROOT
BRANCH   1   3
ATOM      2 BR   UNL     1      36.012 -18.774 -21.153  0.00  0.00    -0.049 Br
ATOM      3  C   UNL     1      34.164 -14.714 -22.447  0.00  0.00    -0.017 C 
ATOM      4  C   UNL     1      34.744 -15.513 -23.407  0.00  0.00    -0.003 C 
ATOM      5  C   UNL     1      34.111 -15.072 -21.117  0.00  0.00    -0.003 C 
ATOM      6  C   UNL     1      35.300 -16.733 -23.018  0.00  0.00    +0.006 C 
ATOM      7  C   UNL     1      34.667 -16.292 -20.729  0.00  0.00    +0.006 C 
ATOM      8  C   UNL     1      35.260 -17.122 -21.680  0.00  0.00    +0.035 C 
ENDBRANCH   1   3
BRANCH   1  10
ATOM      9  N   UNL     1      32.821 -14.305 -24.983  0.00  0.00    -0.248 NA
ATOM     10  C   UNL     1      33.442 -13.282 -24.386  0.00  0.00    +0.063 C 
ATOM     11  C   UNL     1      33.972 -12.180 -25.005  0.00  0.00    +0.015 C 
ATOM     12  C   UNL     1      33.852 -12.121 -26.389  0.00  0.00    +0.003 C 
ATOM     13  C   UNL     1      32.722 -14.213 -26.328  0.00  0.00    +0.098 C 
ATOM     14  C   UNL     1      33.216 -13.152 -27.071  0.00  0.00    +0.021 C 
ENDBRANCH   1  10
BRANCH   1  15
ATOM     15  C   UNL     1      32.237 -13.047 -22.123  0.00  0.00    -0.012 C 
BRANCH  15  16
ATOM     16  C   UNL     1      31.799 -11.592 -22.326  0.00  0.00    -0.077 C 
BRANCH  16  17
ATOM     17  N   UNL     1      31.309 -11.034 -21.069  0.00  0.00    +0.384 N 
ATOM     18  C   UNL     1      31.781  -9.660 -20.897  0.00  0.00    -0.101 C 
ATOM     19  C   UNL     1      31.731 -11.862 -19.939  0.00  0.00    -0.101 C 
ATOM     20  H   UNL     1      30.289 -11.025 -21.101  0.00  0.00    -0.080 HD
ENDBRANCH  16  17
ENDBRANCH  15  16
ENDBRANCH   1  15
TORSDOF 5
ENDMDL
MODEL 4
REMARK VINA RESULT:      -7.6      1.080      4.510
REMARK  Name = 16960
REMARK  5 active torsions:
REMARK  status: ('A' for Active; 'I' for Inactive)
REMARK    1  A    between atoms: C_1  and  C_3
REMARK    2  A    between atoms: C_1  and  C_10
REMARK    3  A    between atoms: C_1  and  C_15
REMARK    4  A    between atoms: C_15  and  C_16
REMARK    5  A    between atoms: C_16  and  N_17
REMARK                            x       y       z     vdW  Elec       q    Type
REMARK                         _______ _______ _______ _____ _____    ______ ____
ROOT
ATOM      1  C   UNL     1      34.453 -23.715 -14.807  0.00  0.00    +0.060 C 
ENDROOT
BRANCH   1   3
ATOM      2 BR   UNL     1      35.876 -21.138 -20.231  0.00  0.00    -0.049 Br
ATOM      3  C   UNL     1      34.804 -23.078 -16.149  0.00  0.00    -0.017 C 
ATOM      4  C   UNL     1      33.876 -23.120 -17.166  0.00  0.00    -0.003 C 
ATOM      5  C   UNL     1      36.038 -22.481 -16.295  0.00  0.00    -0.003 C 
ATOM      6  C   UNL     1      34.198 -22.537 -18.393  0.00  0.00    +0.006 C 
ATOM      7  C   UNL     1      36.359 -21.899 -17.521  0.00  0.00    +0.006 C 
ATOM      8  C   UNL     1      35.439 -21.927 -18.570  0.00  0.00    +0.035 C 
ENDBRANCH   1   3
BRANCH   1  10
ATOM      9  N   UNL     1      32.494 -25.020 -14.243  0.00  0.00    -0.248 NA
ATOM     10  C   UNL     1      32.944 -23.819 -14.623  0.00  0.00    +0.063 C 
ATOM     11  C   UNL     1      32.185 -22.702 -14.858  0.00  0.00    +0.015 C 
ATOM     12  C   UNL     1      30.811 -22.831 -14.681  0.00  0.00    +0.003 C 
ATOM     13  C   UNL     1      31.154 -25.106 -14.080  0.00  0.00    +0.098 C 
ATOM     14  C   UNL     1      30.279 -24.052 -14.285  0.00  0.00    +0.021 C 
ENDBRANCH   1  10
BRANCH   1  15
ATOM     15  C   UNL     1      35.206 -25.047 -14.550  0.00  0.00    -0.012 C 
BRANCH  15  16
ATOM     16  C   UNL     1      36.034 -25.014 -13.261  0.00  0.00    -0.077 C 
BRANCH  16  17
ATOM     17  N   UNL     1      36.942 -26.156 -13.216  0.00  0.00    +0.384 N 
ATOM     18  C   UNL     1      38.247 -25.757 -12.689  0.00  0.00    -0.101 C 
ATOM     19  C   UNL     1      37.089 -26.748 -14.546  0.00  0.00    -0.101 C 
ATOM     20  H   UNL     1      36.541 -26.857 -12.592  0.00  0.00    -0.080 HD
ENDBRANCH  16  17
ENDBRANCH  15  16
ENDBRANCH   1  15
TORSDOF 5
ENDMDL
MODEL 5
REMARK VINA RESULT:      -7.5      2.668      5.314
REMARK  Name = 16960
REMARK  5 active torsions:
REMARK  status: ('A' for Active; 'I' for Inactive)
REMARK    1  A    between atoms: C_1  and  C_3
REMARK    2  A    between atoms: C_1  and  C_10
REMARK    3  A    between atoms: C_1  and  C_15
REMARK    4  A    between atoms: C_15  and  C_16
REMARK    5  A    between atoms: C_16  and  N_17
REMARK                            x       y       z     vdW  Elec       q    Type
REMARK                         _______ _______ _______ _____ _____    ______ ____
ROOT
ATOM      1  C   UNL     1      34.614 -23.769 -15.824  0.00  0.00    +0.060 C 
ENDROOT
BRANCH   1   3
ATOM      2 BR   UNL     1      28.623 -22.389 -15.295  0.00  0.00    -0.049 Br
ATOM      3  C   UNL     1      33.133 -23.428 -15.695  0.00  0.00    -0.017 C 
ATOM      4  C   UNL     1      32.388 -23.260 -16.841  0.00  0.00    -0.003 C 
ATOM      5  C   UNL     1      32.591 -23.300 -14.434  0.00  0.00    -0.003 C 
ATOM      6  C   UNL     1      31.033 -22.948 -16.721  0.00  0.00    +0.006 C 
ATOM      7  C   UNL     1      31.237 -22.988 -14.314  0.00  0.00    +0.006 C 
ATOM      8  C   UNL     1      30.458 -22.812 -15.458  0.00  0.00    +0.035 C 
ENDBRANCH   1   3
BRANCH   1  10
ATOM      9  N   UNL     1      34.734 -22.819 -18.047  0.00  0.00    -0.248 NA
ATOM     10  C   UNL     1      35.303 -22.863 -16.837  0.00  0.00    +0.063 C 
ATOM     11  C   UNL     1      36.424 -22.182 -16.440  0.00  0.00    +0.015 C 
ATOM     12  C   UNL     1      37.029 -21.365 -17.388  0.00  0.00    +0.003 C 
ATOM     13  C   UNL     1      35.349 -22.013 -18.942  0.00  0.00    +0.098 C 
ATOM     14  C   UNL     1      36.487 -21.272 -18.665  0.00  0.00    +0.021 C 
ENDBRANCH   1  10
BRANCH   1  15
ATOM     15  C   UNL     1      35.344 -23.843 -14.457  0.00  0.00    -0.012 C 
BRANCH  15  16
ATOM     16  C   UNL     1      36.205 -25.104 -14.317  0.00  0.00    -0.077 C 
BRANCH  16  17
ATOM     17  N   UNL     1      36.196 -25.569 -12.934  0.00  0.00    +0.384 N 
ATOM     18  C   UNL     1      35.605 -24.559 -12.055  0.00  0.00    -0.101 C 
ATOM     19  C   UNL     1      37.552 -25.896 -12.493  0.00  0.00    -0.101 C 
ATOM     20  H   UNL     1      35.627 -26.414 -12.885  0.00  0.00    -0.080 HD
ENDBRANCH  16  17
ENDBRANCH  15  16
ENDBRANCH   1  15
TORSDOF 5
ENDMDL
MODEL 6
REMARK VINA RESULT:      -7.4      2.603      5.340
REMARK  Name = 16960
REMARK  5 active torsions:
REMARK  status: ('A' for Active; 'I' for Inactive)
REMARK    1  A    between atoms: C_1  and  C_3
REMARK    2  A    between atoms: C_1  and  C_10
REMARK    3  A    between atoms: C_1  and  C_15
REMARK    4  A    between atoms: C_15  and  C_16
REMARK    5  A    between atoms: C_16  and  N_17
REMARK                            x       y       z     vdW  Elec       q    Type
REMARK                         _______ _______ _______ _____ _____    ______ ____
ROOT
ATOM      1  C   UNL     1      34.642 -23.666 -15.727  0.00  0.00    +0.060 C 
ENDROOT
BRANCH   1   3
ATOM      2 BR   UNL     1      28.595 -22.484 -15.397  0.00  0.00    -0.049 Br
ATOM      3  C   UNL     1      33.147 -23.373 -15.644  0.00  0.00    -0.017 C 
ATOM      4  C   UNL     1      32.563 -23.249 -14.403  0.00  0.00    -0.003 C 
ATOM      5  C   UNL     1      32.433 -23.243 -16.816  0.00  0.00    -0.003 C 
ATOM      6  C   UNL     1      31.195 -22.982 -14.328  0.00  0.00    +0.006 C 
ATOM      7  C   UNL     1      31.066 -22.975 -16.741  0.00  0.00    +0.006 C 
ATOM      8  C   UNL     1      30.447 -22.845 -15.497  0.00  0.00    +0.035 C 
ENDBRANCH   1   3
BRANCH   1  10
ATOM      9  N   UNL     1      34.710 -22.822 -17.995  0.00  0.00    -0.248 NA
ATOM     10  C   UNL     1      35.312 -22.817 -16.801  0.00  0.00    +0.063 C 
ATOM     11  C   UNL     1      36.452 -22.133 -16.468  0.00  0.00    +0.015 C 
ATOM     12  C   UNL     1      37.039 -21.368 -17.470  0.00  0.00    +0.003 C 
ATOM     13  C   UNL     1      35.308 -22.067 -18.944  0.00  0.00    +0.098 C 
ATOM     14  C   UNL     1      36.462 -21.329 -18.734  0.00  0.00    +0.021 C 
ENDBRANCH   1  10
BRANCH   1  15
ATOM     15  C   UNL     1      35.353 -23.602 -14.350  0.00  0.00    -0.012 C 
BRANCH  15  16
ATOM     16  C   UNL     1      36.001 -24.936 -13.961  0.00  0.00    -0.077 C 
BRANCH  16  17
ATOM     17  N   UNL     1      36.959 -25.347 -14.983  0.00  0.00    +0.384 N 
ATOM     18  C   UNL     1      36.870 -26.788 -15.223  0.00  0.00    -0.101 C 
ATOM     19  C   UNL     1      38.320 -24.980 -14.591  0.00  0.00    -0.101 C 
ATOM     20  H   UNL     1      36.729 -24.860 -15.850  0.00  0.00    -0.080 HD
ENDBRANCH  16  17
ENDBRANCH  15  16
ENDBRANCH   1  15
TORSDOF 5
ENDMDL
MODEL 7
REMARK VINA RESULT:      -7.4      6.227      9.609
REMARK  Name = 16960
REMARK  5 active torsions:
REMARK  status: ('A' for Active; 'I' for Inactive)
REMARK    1  A    between atoms: C_1  and  C_3
REMARK    2  A    between atoms: C_1  and  C_10
REMARK    3  A    between atoms: C_1  and  C_15
REMARK    4  A    between atoms: C_15  and  C_16
REMARK    5  A    between atoms: C_16  and  N_17
REMARK                            x       y       z     vdW  Elec       q    Type
REMARK                         _______ _______ _______ _____ _____    ______ ____
ROOT
ATOM      1  C   UNL     1      34.163 -18.557 -22.029  0.00  0.00    +0.060 C 
ENDROOT
BRANCH   1   3
ATOM      2 BR   UNL     1      33.969 -23.044 -17.797  0.00  0.00    -0.049 Br
ATOM      3  C   UNL     1      34.117 -19.666 -20.982  0.00  0.00    -0.017 C 
ATOM      4  C   UNL     1      35.300 -20.240 -20.570  0.00  0.00    -0.003 C 
ATOM      5  C   UNL     1      32.891 -20.056 -20.486  0.00  0.00    -0.003 C 
ATOM      6  C   UNL     1      35.255 -21.255 -19.613  0.00  0.00    +0.006 C 
ATOM      7  C   UNL     1      32.848 -21.070 -19.529  0.00  0.00    +0.006 C 
ATOM      8  C   UNL     1      34.029 -21.669 -19.093  0.00  0.00    +0.035 C 
ENDBRANCH   1   3
BRANCH   1  10
ATOM      9  N   UNL     1      32.639 -16.766 -21.454  0.00  0.00    -0.248 NA
ATOM     10  C   UNL     1      33.906 -17.194 -21.400  0.00  0.00    +0.063 C 
ATOM     11  C   UNL     1      34.966 -16.527 -20.843  0.00  0.00    +0.015 C 
ATOM     12  C   UNL     1      34.697 -15.285 -20.278  0.00  0.00    +0.003 C 
ATOM     13  C   UNL     1      32.416 -15.556 -20.894  0.00  0.00    +0.098 C 
ATOM     14  C   UNL     1      33.401 -14.783 -20.300  0.00  0.00    +0.021 C 
ENDBRANCH   1  10
BRANCH   1  15
ATOM     15  C   UNL     1      35.438 -18.605 -22.912  0.00  0.00    -0.012 C 
BRANCH  15  16
ATOM     16  C   UNL     1      35.694 -17.285 -23.648  0.00  0.00    -0.077 C 
BRANCH  16  17
ATOM     17  N   UNL     1      35.029 -17.296 -24.947  0.00  0.00    +0.384 N 
ATOM     18  C   UNL     1      34.093 -16.176 -25.056  0.00  0.00    -0.101 C 
ATOM     19  C   UNL     1      34.331 -18.565 -25.157  0.00  0.00    -0.101 C 
ATOM     20  H   UNL     1      35.741 -17.195 -25.670  0.00  0.00    -0.080 HD
ENDBRANCH  16  17
ENDBRANCH  15  16
ENDBRANCH   1  15
TORSDOF 5
ENDMDL
MODEL 8
REMARK VINA RESULT:      -7.4     15.031     17.584
REMARK  Name = 16960
REMARK  5 active torsions:
REMARK  status: ('A' for Active; 'I' for Inactive)
REMARK    1  A    between atoms: C_1  and  C_3
REMARK    2  A    between atoms: C_1  and  C_10
REMARK    3  A    between atoms: C_1  and  C_15
REMARK    4  A    between atoms: C_15  and  C_16
REMARK    5  A    between atoms: C_16  and  N_17
REMARK                            x       y       z     vdW  Elec       q    Type
REMARK                         _______ _______ _______ _____ _____    ______ ____
ROOT
ATOM      1  C   UNL     1      33.136  -8.544 -22.562  0.00  0.00    +0.060 C 
ENDROOT
BRANCH   1   3
ATOM      2 BR   UNL     1      30.784  -2.890 -23.324  0.00  0.00    -0.049 Br
ATOM      3  C   UNL     1      32.554  -7.146 -22.752  0.00  0.00    -0.017 C 
ATOM      4  C   UNL     1      32.500  -6.617 -24.023  0.00  0.00    -0.003 C 
ATOM      5  C   UNL     1      32.102  -6.463 -21.644  0.00  0.00    -0.003 C 
ATOM      6  C   UNL     1      31.968  -5.338 -24.194  0.00  0.00    +0.006 C 
ATOM      7  C   UNL     1      31.570  -5.185 -21.817  0.00  0.00    +0.006 C 
ATOM      8  C   UNL     1      31.504  -4.622 -23.091  0.00  0.00    +0.035 C 
ENDBRANCH   1   3
BRANCH   1  10
ATOM      9  N   UNL     1      32.470  -9.025 -20.285  0.00  0.00    -0.248 NA
ATOM     10  C   UNL     1      32.311  -9.356 -21.571  0.00  0.00    +0.063 C 
ATOM     11  C   UNL     1      31.491 -10.338 -22.063  0.00  0.00    +0.015 C 
ATOM     12  C   UNL     1      30.752 -11.061 -21.132  0.00  0.00    +0.003 C 
ATOM     13  C   UNL     1      31.735  -9.748 -19.410  0.00  0.00    +0.098 C 
ATOM     14  C   UNL     1      30.870 -10.766 -19.779  0.00  0.00    +0.021 C 
ENDBRANCH   1  10
BRANCH   1  15
ATOM     15  C   UNL     1      33.402  -9.281 -23.902  0.00  0.00    -0.012 C 
BRANCH  15  16
ATOM     16  C   UNL     1      34.896  -9.386 -24.228  0.00  0.00    -0.077 C 
BRANCH  16  17
ATOM     17  N   UNL     1      35.179 -10.658 -24.884  0.00  0.00    +0.384 N 
ATOM     18  C   UNL     1      35.630 -10.439 -26.259  0.00  0.00    -0.101 C 
ATOM     19  C   UNL     1      33.997 -11.521 -24.868  0.00  0.00    -0.101 C 
ATOM     20  H   UNL     1      35.927 -11.124 -24.368  0.00  0.00    -0.080 HD
ENDBRANCH  16  17
ENDBRANCH  15  16
ENDBRANCH   1  15
TORSDOF 5
ENDMDL
MODEL 9
REMARK VINA RESULT:      -7.3     10.355     13.584
REMARK  Name = 16960
REMARK  5 active torsions:
REMARK  status: ('A' for Active; 'I' for Inactive)
REMARK    1  A    between atoms: C_1  and  C_3
REMARK    2  A    between atoms: C_1  and  C_10
REMARK    3  A    between atoms: C_1  and  C_15
REMARK    4  A    between atoms: C_15  and  C_16
REMARK    5  A    between atoms: C_16  and  N_17
REMARK                            x       y       z     vdW  Elec       q    Type
REMARK                         _______ _______ _______ _____ _____    ______ ____
ROOT
ATOM      1  C   UNL     1      33.203 -14.445 -23.278  0.00  0.00    +0.060 C 
ENDROOT
BRANCH   1   3
ATOM      2 BR   UNL     1      30.908 -10.522 -19.104  0.00  0.00    -0.049 Br
ATOM      3  C   UNL     1      32.634 -13.474 -22.247  0.00  0.00    -0.017 C 
ATOM      4  C   UNL     1      32.017 -12.324 -22.688  0.00  0.00    -0.003 C 
ATOM      5  C   UNL     1      32.759 -13.783 -20.910  0.00  0.00    -0.003 C 
ATOM      6  C   UNL     1      31.498 -11.437 -21.743  0.00  0.00    +0.006 C 
ATOM      7  C   UNL     1      32.240 -12.896 -19.967  0.00  0.00    +0.006 C 
ATOM      8  C   UNL     1      31.610 -11.723 -20.383  0.00  0.00    +0.035 C 
ENDBRANCH   1   3
BRANCH   1  10
ATOM      9  N   UNL     1      32.784 -14.529 -25.661  0.00  0.00    -0.248 NA
ATOM     10  C   UNL     1      33.284 -13.801 -24.657  0.00  0.00    +0.063 C 
ATOM     11  C   UNL     1      33.849 -12.556 -24.758  0.00  0.00    +0.015 C 
ATOM     12  C   UNL     1      33.908 -11.996 -26.029  0.00  0.00    +0.003 C 
ATOM     13  C   UNL     1      32.858 -13.953 -26.882  0.00  0.00    +0.098 C 
ATOM     14  C   UNL     1      33.405 -12.701 -27.117  0.00  0.00    +0.021 C 
ENDBRANCH   1  10
BRANCH   1  15
ATOM     15  C   UNL     1      34.528 -15.110 -22.823  0.00  0.00    -0.012 C 
BRANCH  15  16
ATOM     16  C   UNL     1      34.420 -16.638 -22.742  0.00  0.00    -0.077 C 
BRANCH  16  17
ATOM     17  N   UNL     1      35.357 -17.259 -23.672  0.00  0.00    +0.384 N 
ATOM     18  C   UNL     1      34.716 -17.499 -24.966  0.00  0.00    -0.101 C 
ATOM     19  C   UNL     1      35.876 -18.511 -23.122  0.00  0.00    -0.101 C 
ATOM     20  H   UNL     1      36.139 -16.618 -23.812  0.00  0.00    -0.080 HD
ENDBRANCH  16  17
ENDBRANCH  15  16
ENDBRANCH   1  15
TORSDOF 5
ENDMDL
