MODEL 1
REMARK VINA RESULT:      -5.9      0.000      0.000
REMARK  Name = 26721
REMARK  6 active torsions:
REMARK  status: ('A' for Active; 'I' for Inactive)
REMARK    1  A    between atoms: C_6  and  O_23
REMARK    2  A    between atoms: C_9  and  C_27
REMARK    3  A    between atoms: C_20  and  O_25
REMARK    4  A    between atoms: C_27  and  O_29
REMARK    5  A    between atoms: C_27  and  C_31
REMARK    6  A    between atoms: C_31  and  C_32
REMARK                            x       y       z     vdW  Elec       q    Type
REMARK                         _______ _______ _______ _____ _____    ______ ____
ROOT
ATOM      1  O   UNL     1      37.868 -23.442 -15.771  0.00  0.00    -0.474 OA
ATOM      2  N   UNL     1      35.823 -24.055 -10.904  0.00  0.00    +0.387 N 
ATOM      3  C   UNL     1      36.701 -23.655 -13.627  0.00  0.00    +0.057 C 
ATOM      4  C   UNL     1      35.519 -24.608 -13.285  0.00  0.00    -0.010 C 
ATOM      5  C   UNL     1      36.629 -23.110 -15.068  0.00  0.00    +0.194 C 
ATOM      6  C   UNL     1      35.348 -23.696 -15.737  0.00  0.00    +0.132 C 
ATOM      7  C   UNL     1      35.849 -25.180 -11.869  0.00  0.00    -0.053 C 
ATOM      8  C   UNL     1      34.195 -23.804 -13.437  0.00  0.00    +0.003 C 
ATOM      9  C   UNL     1      34.125 -23.192 -14.884  0.00  0.00    +0.053 C 
ATOM     10  C   UNL     1      36.881 -22.542 -12.577  0.00  0.00    -0.015 C 
ATOM     11  C   UNL     1      37.916 -24.499 -13.736  0.00  0.00    +0.013 C 
ATOM     12  C   UNL     1      35.399 -25.683 -14.382  0.00  0.00    +0.001 C 
ATOM     13  C   UNL     1      37.215 -25.983 -11.858  0.00  0.00    +0.005 C 
ATOM     14  C   UNL     1      35.352 -25.209 -15.639  0.00  0.00    +0.031 C 
ATOM     15  C   UNL     1      36.885 -23.070 -11.135  0.00  0.00    -0.077 C 
ATOM     16  C   UNL     1      38.232 -25.552 -12.894  0.00  0.00    -0.025 C 
ATOM     17  C   UNL     1      38.562 -24.278 -14.932  0.00  0.00    +0.168 C 
ATOM     18  C   UNL     1      35.792 -24.490  -9.511  0.00  0.00    -0.101 C 
ATOM     19  C   UNL     1      39.396 -26.264 -13.183  0.00  0.00    -0.001 C 
ATOM     20  C   UNL     1      39.708 -24.975 -15.244  0.00  0.00    +0.167 C 
ATOM     21  C   UNL     1      40.143 -25.955 -14.339  0.00  0.00    +0.039 C 
ATOM     22  H   UNL     1      34.939 -23.582 -11.084  0.00  0.00    -0.080 HD
ENDROOT
BRANCH   6  23
ATOM     23  O   UNL     1      35.247 -23.259 -17.080  0.00  0.00    -0.352 OA
ATOM     24  C   UNL     1      35.998 -22.071 -17.306  0.00  0.00    +0.174 C 
ENDBRANCH   6  23
BRANCH  20  25
ATOM     25  O   UNL     1      40.371 -24.765 -16.407  0.00  0.00    -0.503 OA
ATOM     26  H   UNL     1      40.499 -25.471 -17.009  0.00  0.00    +0.292 HD
ENDBRANCH  20  25
BRANCH   9  27
ATOM     27  C   UNL     1      32.765 -23.478 -15.531  0.00  0.00    +0.091 C 
ATOM     28  C   UNL     1      31.775 -22.364 -15.177  0.00  0.00    +0.029 C 
BRANCH  27  29
ATOM     29  O   UNL     1      32.934 -23.484 -16.950  0.00  0.00    -0.387 OA
ATOM     30  H   UNL     1      33.548 -24.191 -17.200  0.00  0.00    +0.210 HD
ENDBRANCH  27  29
BRANCH  27  31
ATOM     31  C   UNL     1      32.187 -24.842 -15.105  0.00  0.00    +0.027 C 
BRANCH  31  32
ATOM     32  C   UNL     1      30.901 -24.759 -14.275  0.00  0.00    +0.002 C 
ATOM     33  C   UNL     1      29.732 -25.409 -14.999  0.00  0.00    +0.000 C 
ENDBRANCH  31  32
ENDBRANCH  27  31
ENDBRANCH   9  27
TORSDOF 6
ENDMDL
MODEL 2
REMARK VINA RESULT:      -5.4     16.896     19.759
REMARK  Name = 26721
REMARK  6 active torsions:
REMARK  status: ('A' for Active; 'I' for Inactive)
REMARK    1  A    between atoms: C_6  and  O_23
REMARK    2  A    between atoms: C_9  and  C_27
REMARK    3  A    between atoms: C_20  and  O_25
REMARK    4  A    between atoms: C_27  and  O_29
REMARK    5  A    between atoms: C_27  and  C_31
REMARK    6  A    between atoms: C_31  and  C_32
REMARK                            x       y       z     vdW  Elec       q    Type
REMARK                         _______ _______ _______ _____ _____    ______ ____
ROOT
ATOM      1  O   UNL     1      34.766  -7.739 -24.406  0.00  0.00    -0.474 OA
ATOM      2  N   UNL     1      31.544  -8.962 -20.360  0.00  0.00    +0.387 N 
ATOM      3  C   UNL     1      33.198  -8.062 -22.549  0.00  0.00    +0.057 C 
ATOM      4  C   UNL     1      31.650  -7.908 -22.583  0.00  0.00    -0.010 C 
ATOM      5  C   UNL     1      33.919  -7.033 -23.444  0.00  0.00    +0.194 C 
ATOM      6  C   UNL     1      32.832  -6.131 -24.106  0.00  0.00    +0.132 C 
ATOM      7  C   UNL     1      31.099  -9.120 -21.764  0.00  0.00    -0.053 C 
ATOM      8  C   UNL     1      31.298  -6.482 -22.067  0.00  0.00    +0.003 C 
ATOM      9  C   UNL     1      32.065  -5.416 -22.932  0.00  0.00    +0.053 C 
ATOM     10  C   UNL     1      33.755  -8.095 -21.113  0.00  0.00    -0.015 C 
ATOM     11  C   UNL     1      33.523  -9.308 -23.286  0.00  0.00    +0.013 C 
ATOM     12  C   UNL     1      31.174  -7.874 -24.047  0.00  0.00    +0.001 C 
ATOM     13  C   UNL     1      31.521 -10.507 -22.403  0.00  0.00    +0.005 C 
ATOM     14  C   UNL     1      31.812  -6.988 -24.832  0.00  0.00    +0.031 C 
ATOM     15  C   UNL     1      32.998  -9.067 -20.197  0.00  0.00    -0.077 C 
ATOM     16  C   UNL     1      32.810 -10.492 -23.198  0.00  0.00    -0.025 C 
ATOM     17  C   UNL     1      34.460  -9.070 -24.265  0.00  0.00    +0.168 C 
ATOM     18  C   UNL     1      30.839  -9.837 -19.429  0.00  0.00    -0.101 C 
ATOM     19  C   UNL     1      33.237 -11.547 -24.004  0.00  0.00    -0.001 C 
ATOM     20  C   UNL     1      34.891 -10.093 -25.081  0.00  0.00    +0.167 C 
ATOM     21  C   UNL     1      34.292 -11.352 -24.920  0.00  0.00    +0.039 C 
ATOM     22  H   UNL     1      31.290  -8.006 -20.114  0.00  0.00    -0.080 HD
ENDROOT
BRANCH   6  23
ATOM     23  O   UNL     1      33.432  -5.186 -24.973  0.00  0.00    -0.352 OA
ATOM     24  C   UNL     1      33.253  -5.537 -26.341  0.00  0.00    +0.174 C 
ENDBRANCH   6  23
BRANCH  20  25
ATOM     25  O   UNL     1      35.825  -9.889 -26.042  0.00  0.00    -0.503 OA
ATOM     26  H   UNL     1      35.720 -10.276 -26.888  0.00  0.00    +0.292 HD
ENDBRANCH  20  25
BRANCH   9  27
ATOM     27  C   UNL     1      31.114  -4.310 -23.404  0.00  0.00    +0.091 C 
ATOM     28  C   UNL     1      30.481  -4.704 -24.742  0.00  0.00    +0.029 C 
BRANCH  27  29
ATOM     29  O   UNL     1      30.067  -4.176 -22.442  0.00  0.00    -0.387 OA
ATOM     30  H   UNL     1      30.227  -3.391 -21.896  0.00  0.00    +0.210 HD
ENDBRANCH  27  29
BRANCH  27  31
ATOM     31  C   UNL     1      31.822  -2.948 -23.545  0.00  0.00    +0.027 C 
BRANCH  31  32
ATOM     32  C   UNL     1      31.441  -2.158 -24.803  0.00  0.00    +0.002 C 
ATOM     33  C   UNL     1      32.672  -1.786 -25.616  0.00  0.00    +0.000 C 
ENDBRANCH  31  32
ENDBRANCH  27  31
ENDBRANCH   9  27
TORSDOF 6
ENDMDL
MODEL 3
REMARK VINA RESULT:      -4.1     15.342     18.708
REMARK  Name = 26721
REMARK  6 active torsions:
REMARK  status: ('A' for Active; 'I' for Inactive)
REMARK    1  A    between atoms: C_6  and  O_23
REMARK    2  A    between atoms: C_9  and  C_27
REMARK    3  A    between atoms: C_20  and  O_25
REMARK    4  A    between atoms: C_27  and  O_29
REMARK    5  A    between atoms: C_27  and  C_31
REMARK    6  A    between atoms: C_31  and  C_32
REMARK                            x       y       z     vdW  Elec       q    Type
REMARK                         _______ _______ _______ _____ _____    ______ ____
ROOT
ATOM      1  O   UNL     1      31.597  -7.291 -20.476  0.00  0.00    -0.474 OA
ATOM      2  N   UNL     1      34.714  -8.227 -24.678  0.00  0.00    +0.387 N 
ATOM      3  C   UNL     1      33.024  -7.969 -22.350  0.00  0.00    +0.057 C 
ATOM      4  C   UNL     1      32.654  -8.924 -23.522  0.00  0.00    -0.010 C 
ATOM      5  C   UNL     1      32.392  -8.398 -21.010  0.00  0.00    +0.194 C 
ATOM      6  C   UNL     1      31.569  -9.699 -21.264  0.00  0.00    +0.132 C 
ATOM      7  C   UNL     1      33.238  -8.246 -24.804  0.00  0.00    -0.053 C 
ATOM      8  C   UNL     1      33.180 -10.346 -23.167  0.00  0.00    +0.003 C 
ATOM      9  C   UNL     1      32.589 -10.782 -21.777  0.00  0.00    +0.053 C 
ATOM     10  C   UNL     1      34.542  -7.731 -22.243  0.00  0.00    -0.015 C 
ATOM     11  C   UNL     1      32.292  -6.701 -22.581  0.00  0.00    +0.013 C 
ATOM     12  C   UNL     1      31.127  -9.118 -23.557  0.00  0.00    +0.001 C 
ATOM     13  C   UNL     1      32.611  -6.812 -25.053  0.00  0.00    +0.005 C 
ATOM     14  C   UNL     1      30.572  -9.476 -22.386  0.00  0.00    +0.031 C 
ATOM     15  C   UNL     1      35.192  -7.371 -23.587  0.00  0.00    -0.077 C 
ATOM     16  C   UNL     1      32.131  -6.088 -23.813  0.00  0.00    -0.025 C 
ATOM     17  C   UNL     1      31.568  -6.341 -21.466  0.00  0.00    +0.168 C 
ATOM     18  C   UNL     1      35.396  -7.922 -25.932  0.00  0.00    -0.101 C 
ATOM     19  C   UNL     1      31.366  -4.922 -23.842  0.00  0.00    -0.001 C 
ATOM     20  C   UNL     1      30.799  -5.198 -21.474  0.00  0.00    +0.167 C 
ATOM     21  C   UNL     1      30.728  -4.467 -22.669  0.00  0.00    +0.039 C 
ATOM     22  H   UNL     1      34.965  -9.184 -24.433  0.00  0.00    -0.080 HD
ENDROOT
BRANCH   6  23
ATOM     23  O   UNL     1      30.931 -10.122 -20.073  0.00  0.00    -0.352 OA
ATOM     24  C   UNL     1      31.819 -10.095 -18.961  0.00  0.00    +0.174 C 
ENDBRANCH   6  23
BRANCH  20  25
ATOM     25  O   UNL     1      30.090  -4.813 -20.384  0.00  0.00    -0.503 OA
ATOM     26  H   UNL     1      30.377  -5.061 -19.528  0.00  0.00    +0.292 HD
ENDBRANCH  20  25
BRANCH   9  27
ATOM     27  C   UNL     1      31.997 -12.194 -21.855  0.00  0.00    +0.091 C 
ATOM     28  C   UNL     1      32.378 -12.988 -20.601  0.00  0.00    +0.029 C 
BRANCH  27  29
ATOM     29  O   UNL     1      30.574 -12.085 -21.893  0.00  0.00    -0.387 OA
ATOM     30  H   UNL     1      30.273 -12.097 -22.814  0.00  0.00    +0.210 HD
ENDBRANCH  27  29
BRANCH  27  31
ATOM     31  C   UNL     1      32.460 -12.956 -23.112  0.00  0.00    +0.027 C 
BRANCH  31  32
ATOM     32  C   UNL     1      32.951 -14.385 -22.848  0.00  0.00    +0.002 C 
ATOM     33  C   UNL     1      34.249 -14.670 -23.588  0.00  0.00    +0.000 C 
ENDBRANCH  31  32
ENDBRANCH  27  31
ENDBRANCH   9  27
TORSDOF 6
ENDMDL
MODEL 4
REMARK VINA RESULT:      -3.8      2.384      6.550
REMARK  Name = 26721
REMARK  6 active torsions:
REMARK  status: ('A' for Active; 'I' for Inactive)
REMARK    1  A    between atoms: C_6  and  O_23
REMARK    2  A    between atoms: C_9  and  C_27
REMARK    3  A    between atoms: C_20  and  O_25
REMARK    4  A    between atoms: C_27  and  O_29
REMARK    5  A    between atoms: C_27  and  C_31
REMARK    6  A    between atoms: C_31  and  C_32
REMARK                            x       y       z     vdW  Elec       q    Type
REMARK                         _______ _______ _______ _____ _____    ______ ____
ROOT
ATOM      1  O   UNL     1      33.630 -23.509 -12.824  0.00  0.00    -0.474 OA
ATOM      2  N   UNL     1      36.248 -22.314 -17.292  0.00  0.00    +0.387 N 
ATOM      3  C   UNL     1      35.038 -23.079 -14.784  0.00  0.00    +0.057 C 
ATOM      4  C   UNL     1      35.694 -24.131 -15.724  0.00  0.00    -0.010 C 
ATOM      5  C   UNL     1      35.010 -23.533 -13.310  0.00  0.00    +0.194 C 
ATOM      6  C   UNL     1      35.681 -24.939 -13.230  0.00  0.00    +0.132 C 
ATOM      7  C   UNL     1      35.483 -23.577 -17.170  0.00  0.00    -0.053 C 
ATOM      8  C   UNL     1      37.162 -24.347 -15.252  0.00  0.00    +0.003 C 
ATOM      9  C   UNL     1      37.161 -24.759 -13.735  0.00  0.00    +0.053 C 
ATOM     10  C   UNL     1      35.641 -21.673 -14.962  0.00  0.00    -0.015 C 
ATOM     11  C   UNL     1      33.584 -23.087 -15.077  0.00  0.00    +0.013 C 
ATOM     12  C   UNL     1      35.046 -25.506 -15.480  0.00  0.00    +0.001 C 
ATOM     13  C   UNL     1      33.946 -23.416 -17.524  0.00  0.00    +0.005 C 
ATOM     14  C   UNL     1      35.007 -25.897 -14.194  0.00  0.00    +0.031 C 
ATOM     15  C   UNL     1      35.736 -21.241 -16.433  0.00  0.00    -0.077 C 
ATOM     16  C   UNL     1      33.029 -23.174 -16.344  0.00  0.00    -0.025 C 
ATOM     17  C   UNL     1      32.850 -23.261 -13.926  0.00  0.00    +0.168 C 
ATOM     18  C   UNL     1      36.404 -21.864 -18.672  0.00  0.00    -0.101 C 
ATOM     19  C   UNL     1      31.637 -23.217 -16.421  0.00  0.00    -0.001 C 
ATOM     20  C   UNL     1      31.475 -23.316 -13.977  0.00  0.00    +0.167 C 
ATOM     21  C   UNL     1      30.866 -23.259 -15.240  0.00  0.00    +0.039 C 
ATOM     22  H   UNL     1      37.181 -22.543 -16.951  0.00  0.00    -0.080 HD
ENDROOT
BRANCH   6  23
ATOM     23  O   UNL     1      35.652 -25.427 -11.901  0.00  0.00    -0.352 OA
ATOM     24  C   UNL     1      35.850 -24.385 -10.952  0.00  0.00    +0.174 C 
ENDBRANCH   6  23
BRANCH  20  25
ATOM     25  O   UNL     1      30.729 -23.470 -12.856  0.00  0.00    -0.503 OA
ATOM     26  H   UNL     1      30.149 -22.788 -12.582  0.00  0.00    +0.292 HD
ENDBRANCH  20  25
BRANCH   9  27
ATOM     27  C   UNL     1      38.043 -25.992 -13.504  0.00  0.00    +0.091 C 
ATOM     28  C   UNL     1      38.909 -25.787 -12.258  0.00  0.00    +0.029 C 
BRANCH  27  29
ATOM     29  O   UNL     1      37.193 -27.116 -13.271  0.00  0.00    -0.387 OA
ATOM     30  H   UNL     1      37.346 -27.457 -12.376  0.00  0.00    +0.210 HD
ENDBRANCH  27  29
BRANCH  27  31
ATOM     31  C   UNL     1      38.942 -26.305 -14.716  0.00  0.00    +0.027 C 
BRANCH  31  32
ATOM     32  C   UNL     1      40.432 -26.016 -14.496  0.00  0.00    +0.002 C 
ATOM     33  C   UNL     1      40.797 -24.613 -14.957  0.00  0.00    +0.000 C 
ENDBRANCH  31  32
ENDBRANCH  27  31
ENDBRANCH   9  27
TORSDOF 6
ENDMDL
MODEL 5
REMARK VINA RESULT:      -3.5      2.337      4.650
REMARK  Name = 26721
REMARK  6 active torsions:
REMARK  status: ('A' for Active; 'I' for Inactive)
REMARK    1  A    between atoms: C_6  and  O_23
REMARK    2  A    between atoms: C_9  and  C_27
REMARK    3  A    between atoms: C_20  and  O_25
REMARK    4  A    between atoms: C_27  and  O_29
REMARK    5  A    between atoms: C_27  and  C_31
REMARK    6  A    between atoms: C_31  and  C_32
REMARK                            x       y       z     vdW  Elec       q    Type
REMARK                         _______ _______ _______ _____ _____    ______ ____
ROOT
ATOM      1  O   UNL     1      34.198 -24.553 -12.495  0.00  0.00    -0.474 OA
ATOM      2  N   UNL     1      38.503 -25.616 -15.424  0.00  0.00    +0.387 N 
ATOM      3  C   UNL     1      36.039 -24.997 -14.051  0.00  0.00    +0.057 C 
ATOM      4  C   UNL     1      36.668 -24.010 -15.076  0.00  0.00    -0.010 C 
ATOM      5  C   UNL     1      34.515 -24.809 -13.900  0.00  0.00    +0.194 C 
ATOM      6  C   UNL     1      34.078 -23.663 -14.864  0.00  0.00    +0.132 C 
ATOM      7  C   UNL     1      38.210 -24.236 -14.970  0.00  0.00    -0.053 C 
ATOM      8  C   UNL     1      36.005 -24.270 -16.461  0.00  0.00    +0.003 C 
ATOM      9  C   UNL     1      34.445 -24.136 -16.319  0.00  0.00    +0.053 C 
ATOM     10  C   UNL     1      36.433 -26.461 -14.325  0.00  0.00    -0.015 C 
ATOM     11  C   UNL     1      36.481 -24.559 -12.705  0.00  0.00    +0.013 C 
ATOM     12  C   UNL     1      36.220 -22.575 -14.741  0.00  0.00    +0.001 C 
ATOM     13  C   UNL     1      38.755 -23.927 -13.514  0.00  0.00    +0.005 C 
ATOM     14  C   UNL     1      34.894 -22.413 -14.594  0.00  0.00    +0.031 C 
ATOM     15  C   UNL     1      37.942 -26.646 -14.544  0.00  0.00    -0.077 C 
ATOM     16  C   UNL     1      37.756 -24.117 -12.392  0.00  0.00    -0.025 C 
ATOM     17  C   UNL     1      35.406 -24.397 -11.861  0.00  0.00    +0.168 C 
ATOM     18  C   UNL     1      39.920 -25.850 -15.683  0.00  0.00    -0.101 C 
ATOM     19  C   UNL     1      37.974 -23.698 -11.079  0.00  0.00    -0.001 C 
ATOM     20  C   UNL     1      35.594 -23.976 -10.563  0.00  0.00    +0.167 C 
ATOM     21  C   UNL     1      36.901 -23.657 -10.164  0.00  0.00    +0.039 C 
ATOM     22  H   UNL     1      38.023 -25.700 -16.319  0.00  0.00    -0.080 HD
ENDROOT
BRANCH   6  23
ATOM     23  O   UNL     1      32.689 -23.417 -14.742  0.00  0.00    -0.352 OA
ATOM     24  C   UNL     1      31.970 -24.601 -14.414  0.00  0.00    +0.174 C 
ENDBRANCH   6  23
BRANCH  20  25
ATOM     25  O   UNL     1      34.554 -23.825  -9.709  0.00  0.00    -0.503 OA
ATOM     26  H   UNL     1      34.522 -24.322  -8.916  0.00  0.00    +0.292 HD
ENDBRANCH  20  25
BRANCH   9  27
ATOM     27  C   UNL     1      33.873 -23.234 -17.420  0.00  0.00    +0.091 C 
ATOM     28  C   UNL     1      33.571 -24.067 -18.669  0.00  0.00    +0.029 C 
BRANCH  27  29
ATOM     29  O   UNL     1      32.643 -22.677 -16.953  0.00  0.00    -0.387 OA
ATOM     30  H   UNL     1      32.830 -21.933 -16.359  0.00  0.00    +0.210 HD
ENDBRANCH  27  29
BRANCH  27  31
ATOM     31  C   UNL     1      34.824 -22.077 -17.784  0.00  0.00    +0.027 C 
BRANCH  31  32
ATOM     32  C   UNL     1      35.076 -21.907 -19.287  0.00  0.00    +0.002 C 
ATOM     33  C   UNL     1      36.443 -21.295 -19.553  0.00  0.00    +0.000 C 
ENDBRANCH  31  32
ENDBRANCH  27  31
ENDBRANCH   9  27
TORSDOF 6
ENDMDL
MODEL 6
REMARK VINA RESULT:      -3.1      2.665      4.456
REMARK  Name = 26721
REMARK  6 active torsions:
REMARK  status: ('A' for Active; 'I' for Inactive)
REMARK    1  A    between atoms: C_6  and  O_23
REMARK    2  A    between atoms: C_9  and  C_27
REMARK    3  A    between atoms: C_20  and  O_25
REMARK    4  A    between atoms: C_27  and  O_29
REMARK    5  A    between atoms: C_27  and  C_31
REMARK    6  A    between atoms: C_31  and  C_32
REMARK                            x       y       z     vdW  Elec       q    Type
REMARK                         _______ _______ _______ _____ _____    ______ ____
ROOT
ATOM      1  O   UNL     1      34.007 -25.361 -12.203  0.00  0.00    -0.474 OA
ATOM      2  N   UNL     1      36.795 -23.309 -16.236  0.00  0.00    +0.387 N 
ATOM      3  C   UNL     1      35.077 -24.422 -14.199  0.00  0.00    +0.057 C 
ATOM      4  C   UNL     1      34.723 -23.091 -14.923  0.00  0.00    -0.010 C 
ATOM      5  C   UNL     1      33.835 -25.146 -13.640  0.00  0.00    +0.194 C 
ATOM      6  C   UNL     1      32.581 -24.292 -14.003  0.00  0.00    +0.132 C 
ATOM      7  C   UNL     1      36.098 -22.432 -15.266  0.00  0.00    -0.053 C 
ATOM      8  C   UNL     1      33.779 -23.430 -16.114  0.00  0.00    +0.003 C 
ATOM      9  C   UNL     1      32.529 -24.216 -15.575  0.00  0.00    +0.053 C 
ATOM     10  C   UNL     1      35.964 -25.342 -15.059  0.00  0.00    -0.015 C 
ATOM     11  C   UNL     1      35.748 -24.056 -12.928  0.00  0.00    +0.013 C 
ATOM     12  C   UNL     1      33.830 -22.236 -14.005  0.00  0.00    +0.001 C 
ATOM     13  C   UNL     1      36.952 -22.132 -13.966  0.00  0.00    +0.005 C 
ATOM     14  C   UNL     1      32.755 -22.869 -13.506  0.00  0.00    +0.031 C 
ATOM     15  C   UNL     1      37.167 -24.612 -15.676  0.00  0.00    -0.077 C 
ATOM     16  C   UNL     1      36.679 -23.040 -12.785  0.00  0.00    -0.025 C 
ATOM     17  C   UNL     1      35.142 -24.672 -11.857  0.00  0.00    +0.168 C 
ATOM     18  C   UNL     1      37.932 -22.663 -16.884  0.00  0.00    -0.101 C 
ATOM     19  C   UNL     1      37.167 -22.809 -11.499  0.00  0.00    -0.001 C 
ATOM     20  C   UNL     1      35.600 -24.452 -10.576  0.00  0.00    +0.167 C 
ATOM     21  C   UNL     1      36.647 -23.534 -10.406  0.00  0.00    +0.039 C 
ATOM     22  H   UNL     1      36.105 -23.489 -16.964  0.00  0.00    -0.080 HD
ENDROOT
BRANCH   6  23
ATOM     23  O   UNL     1      31.407 -24.888 -13.482  0.00  0.00    -0.352 OA
ATOM     24  C   UNL     1      30.731 -24.020 -12.579  0.00  0.00    +0.174 C 
ENDBRANCH   6  23
BRANCH  20  25
ATOM     25  O   UNL     1      35.032 -25.059  -9.506  0.00  0.00    -0.503 OA
ATOM     26  H   UNL     1      35.472 -25.060  -8.679  0.00  0.00    +0.292 HD
ENDBRANCH  20  25
BRANCH   9  27
ATOM     27  C   UNL     1      31.228 -23.611 -16.117  0.00  0.00    +0.091 C 
ATOM     28  C   UNL     1      30.792 -22.439 -15.233  0.00  0.00    +0.029 C 
BRANCH  27  29
ATOM     29  O   UNL     1      31.480 -23.105 -17.429  0.00  0.00    -0.387 OA
ATOM     30  H   UNL     1      31.208 -23.763 -18.087  0.00  0.00    +0.210 HD
ENDBRANCH  27  29
BRANCH  27  31
ATOM     31  C   UNL     1      30.091 -24.648 -16.205  0.00  0.00    +0.027 C 
BRANCH  31  32
ATOM     32  C   UNL     1      28.700 -24.099 -15.863  0.00  0.00    +0.002 C 
ATOM     33  C   UNL     1      27.995 -23.568 -17.102  0.00  0.00    +0.000 C 
ENDBRANCH  31  32
ENDBRANCH  27  31
ENDBRANCH   9  27
TORSDOF 6
ENDMDL
