MODEL 1
REMARK VINA RESULT:      -9.3      0.000      0.000
REMARK  Name = 11522441
REMARK  3 active torsions:
REMARK  status: ('A' for Active; 'I' for Inactive)
REMARK    1  A    between atoms: N_1  and  C_10
REMARK    2  A    between atoms: C_6  and  C_17
REMARK    3  A    between atoms: C_17  and  C_18
REMARK                            x       y       z     vdW  Elec       q    Type
REMARK                         _______ _______ _______ _____ _____    ______ ____
ROOT
ATOM      1  N   UNL     1      33.259 -14.081 -22.624  0.00  0.00    -0.202 N 
ATOM      2  N   UNL     1      32.981 -12.818 -22.904  0.00  0.00    -0.185 NA
ATOM      3  N   UNL     1      33.854 -16.186 -23.645  0.00  0.00    -0.232 NA
ATOM      4  N   UNL     1      34.016 -15.950 -26.069  0.00  0.00    -0.234 NA
ATOM      5  C   UNL     1      33.543 -14.880 -23.658  0.00  0.00    +0.136 C 
ATOM      6  C   UNL     1      33.096 -12.802 -24.237  0.00  0.00    +0.072 C 
ATOM      7  C   UNL     1      33.445 -14.057 -24.767  0.00  0.00    +0.146 C 
ATOM      8  C   UNL     1      33.695 -14.636 -26.007  0.00  0.00    +0.111 C 
ATOM      9  C   UNL     1      34.075 -16.634 -24.900  0.00  0.00    +0.252 C 
ATOM     10  N   UNL     1      33.618 -13.878 -27.190  0.00  0.00    -0.346 N 
ATOM     11  H   UNL     1      33.799 -14.304 -28.059  0.00  0.00    +0.143 HD
ATOM     12  H   UNL     1      33.385 -12.923 -27.148  0.00  0.00    +0.143 HD
ENDROOT
BRANCH   1  13
ATOM     13  C   UNL     1      33.230 -14.500 -21.195  0.00  0.00    +0.081 C 
ATOM     14  C   UNL     1      32.558 -13.402 -20.343  0.00  0.00    +0.022 C 
ATOM     15  C   UNL     1      34.671 -14.740 -20.693  0.00  0.00    +0.022 C 
ATOM     16  C   UNL     1      32.444 -15.810 -20.941  0.00  0.00    +0.022 C 
ENDBRANCH   1  13
BRANCH   6  17
ATOM     17  C   UNL     1      32.860 -11.542 -24.965  0.00  0.00    +0.070 C 
BRANCH  17  18
ATOM     18  C   UNL     1      33.328 -10.302 -24.211  0.00  0.00    -0.021 C 
ATOM     19  C   UNL     1      34.546  -9.732 -24.517  0.00  0.00    -0.025 C 
ATOM     20  C   UNL     1      32.500  -9.789 -23.234  0.00  0.00    -0.008 C 
ATOM     21  C   UNL     1      32.908  -8.655 -22.532  0.00  0.00    -0.022 C 
ATOM     22  C   UNL     1      34.954  -8.598 -23.816  0.00  0.00    -0.005 C 
ATOM     23  C   UNL     1      35.440 -10.290 -25.576  0.00  0.00    +0.031 C 
ATOM     24  C   UNL     1      34.135  -8.059 -22.823  0.00  0.00    -0.005 C 
ATOM     25  C   UNL     1      32.032  -8.079 -21.471  0.00  0.00    +0.031 C 
ENDBRANCH  17  18
ENDBRANCH   6  17
TORSDOF 3
ENDMDL
MODEL 2
REMARK VINA RESULT:      -9.0      1.139      2.414
REMARK  Name = 11522441
REMARK  3 active torsions:
REMARK  status: ('A' for Active; 'I' for Inactive)
REMARK    1  A    between atoms: N_1  and  C_10
REMARK    2  A    between atoms: C_6  and  C_17
REMARK    3  A    between atoms: C_17  and  C_18
REMARK                            x       y       z     vdW  Elec       q    Type
REMARK                         _______ _______ _______ _____ _____    ______ ____
ROOT
ATOM      1  N   UNL     1      33.648 -15.158 -22.493  0.00  0.00    -0.202 N 
ATOM      2  N   UNL     1      33.083 -13.985 -22.249  0.00  0.00    -0.185 NA
ATOM      3  N   UNL     1      34.220 -16.675 -24.282  0.00  0.00    -0.232 NA
ATOM      4  N   UNL     1      33.530 -15.762 -26.437  0.00  0.00    -0.234 NA
ATOM      5  C   UNL     1      33.706 -15.544 -23.772  0.00  0.00    +0.136 C 
ATOM      6  C   UNL     1      32.748 -13.582 -23.479  0.00  0.00    +0.072 C 
ATOM      7  C   UNL     1      33.109 -14.509 -24.473  0.00  0.00    +0.146 C 
ATOM      8  C   UNL     1      33.030 -14.646 -25.855  0.00  0.00    +0.111 C 
ATOM      9  C   UNL     1      34.087 -16.694 -25.626  0.00  0.00    +0.252 C 
ATOM     10  N   UNL     1      32.440 -13.646 -26.650  0.00  0.00    -0.346 N 
ATOM     11  H   UNL     1      32.393 -13.759 -27.626  0.00  0.00    +0.143 HD
ATOM     12  H   UNL     1      32.076 -12.835 -26.229  0.00  0.00    +0.143 HD
ENDROOT
BRANCH   1  13
ATOM     13  C   UNL     1      34.164 -15.938 -21.334  0.00  0.00    +0.081 C 
ATOM     14  C   UNL     1      33.019 -16.767 -20.713  0.00  0.00    +0.022 C 
ATOM     15  C   UNL     1      34.744 -14.975 -20.274  0.00  0.00    +0.022 C 
ATOM     16  C   UNL     1      35.292 -16.933 -21.700  0.00  0.00    +0.022 C 
ENDBRANCH   1  13
BRANCH   6  17
ATOM     17  C   UNL     1      32.075 -12.282 -23.652  0.00  0.00    +0.070 C 
BRANCH  17  18
ATOM     18  C   UNL     1      33.037 -11.115 -23.847  0.00  0.00    -0.021 C 
ATOM     19  C   UNL     1      32.928  -9.995 -23.050  0.00  0.00    -0.025 C 
ATOM     20  C   UNL     1      33.996 -11.227 -24.832  0.00  0.00    -0.008 C 
ATOM     21  C   UNL     1      34.887 -10.172 -25.028  0.00  0.00    -0.022 C 
ATOM     22  C   UNL     1      33.819  -8.940 -23.245  0.00  0.00    -0.005 C 
ATOM     23  C   UNL     1      31.889  -9.878 -21.984  0.00  0.00    +0.031 C 
ATOM     24  C   UNL     1      34.799  -9.029 -24.235  0.00  0.00    -0.005 C 
ATOM     25  C   UNL     1      35.935 -10.267 -26.086  0.00  0.00    +0.031 C 
ENDBRANCH  17  18
ENDBRANCH   6  17
TORSDOF 3
ENDMDL
MODEL 3
REMARK VINA RESULT:      -8.6     10.647     14.905
REMARK  Name = 11522441
REMARK  3 active torsions:
REMARK  status: ('A' for Active; 'I' for Inactive)
REMARK    1  A    between atoms: N_1  and  C_10
REMARK    2  A    between atoms: C_6  and  C_17
REMARK    3  A    between atoms: C_17  and  C_18
REMARK                            x       y       z     vdW  Elec       q    Type
REMARK                         _______ _______ _______ _____ _____    ______ ____
ROOT
ATOM      1  N   UNL     1      34.600 -22.551 -17.646  0.00  0.00    -0.202 N 
ATOM      2  N   UNL     1      35.775 -22.370 -17.064  0.00  0.00    -0.185 NA
ATOM      3  N   UNL     1      32.321 -23.210 -17.200  0.00  0.00    -0.232 NA
ATOM      4  N   UNL     1      32.027 -23.742 -14.837  0.00  0.00    -0.234 NA
ATOM      5  C   UNL     1      33.595 -22.955 -16.862  0.00  0.00    +0.136 C 
ATOM      6  C   UNL     1      35.503 -22.685 -15.793  0.00  0.00    +0.072 C 
ATOM      7  C   UNL     1      34.160 -23.059 -15.602  0.00  0.00    +0.146 C 
ATOM      8  C   UNL     1      33.326 -23.469 -14.567  0.00  0.00    +0.111 C 
ATOM      9  C   UNL     1      31.611 -23.598 -16.118  0.00  0.00    +0.252 C 
ATOM     10  N   UNL     1      33.811 -23.604 -13.254  0.00  0.00    -0.346 N 
ATOM     11  H   UNL     1      33.207 -23.895 -12.534  0.00  0.00    +0.143 HD
ATOM     12  H   UNL     1      34.754 -23.406 -13.056  0.00  0.00    +0.143 HD
ENDROOT
BRANCH   1  13
ATOM     13  C   UNL     1      34.500 -22.293 -19.109  0.00  0.00    +0.081 C 
ATOM     14  C   UNL     1      34.194 -23.612 -19.851  0.00  0.00    +0.022 C 
ATOM     15  C   UNL     1      35.830 -21.701 -19.626  0.00  0.00    +0.022 C 
ATOM     16  C   UNL     1      33.384 -21.291 -19.494  0.00  0.00    +0.022 C 
ENDBRANCH   1  13
BRANCH   6  17
ATOM     17  C   UNL     1      36.577 -22.611 -14.786  0.00  0.00    +0.070 C 
BRANCH  17  18
ATOM     18  C   UNL     1      36.938 -23.961 -14.177  0.00  0.00    -0.021 C 
ATOM     19  C   UNL     1      37.317 -24.037 -12.853  0.00  0.00    -0.025 C 
ATOM     20  C   UNL     1      36.871 -25.075 -14.988  0.00  0.00    -0.008 C 
ATOM     21  C   UNL     1      37.197 -26.320 -14.451  0.00  0.00    -0.022 C 
ATOM     22  C   UNL     1      37.643 -25.282 -12.315  0.00  0.00    -0.005 C 
ATOM     23  C   UNL     1      37.388 -22.829 -11.977  0.00  0.00    +0.031 C 
ATOM     24  C   UNL     1      37.583 -26.424 -13.115  0.00  0.00    -0.005 C 
ATOM     25  C   UNL     1      37.133 -27.541 -15.305  0.00  0.00    +0.031 C 
ENDBRANCH  17  18
ENDBRANCH   6  17
TORSDOF 3
ENDMDL
MODEL 4
REMARK VINA RESULT:      -8.6      2.686      4.047
REMARK  Name = 11522441
REMARK  3 active torsions:
REMARK  status: ('A' for Active; 'I' for Inactive)
REMARK    1  A    between atoms: N_1  and  C_10
REMARK    2  A    between atoms: C_6  and  C_17
REMARK    3  A    between atoms: C_17  and  C_18
REMARK                            x       y       z     vdW  Elec       q    Type
REMARK                         _______ _______ _______ _____ _____    ______ ____
ROOT
ATOM      1  N   UNL     1      32.510 -10.435 -22.122  0.00  0.00    -0.202 N 
ATOM      2  N   UNL     1      32.852  -9.156 -22.089  0.00  0.00    -0.185 NA
ATOM      3  N   UNL     1      32.823 -12.470 -23.382  0.00  0.00    -0.232 NA
ATOM      4  N   UNL     1      34.291 -12.083 -25.291  0.00  0.00    -0.234 NA
ATOM      5  C   UNL     1      33.012 -11.166 -23.122  0.00  0.00    +0.136 C 
ATOM      6  C   UNL     1      33.643  -9.056 -23.162  0.00  0.00    +0.072 C 
ATOM      7  C   UNL     1      33.783 -10.275 -23.849  0.00  0.00    +0.146 C 
ATOM      8  C   UNL     1      34.437 -10.775 -24.971  0.00  0.00    +0.111 C 
ATOM      9  C   UNL     1      33.504 -12.839 -24.488  0.00  0.00    +0.252 C 
ATOM     10  N   UNL     1      35.242  -9.944 -25.771  0.00  0.00    -0.346 N 
ATOM     11  H   UNL     1      35.698 -10.315 -26.561  0.00  0.00    +0.143 HD
ATOM     12  H   UNL     1      35.350  -8.994 -25.541  0.00  0.00    +0.143 HD
ENDROOT
BRANCH   1  13
ATOM     13  C   UNL     1      31.605 -10.942 -21.054  0.00  0.00    +0.081 C 
ATOM     14  C   UNL     1      30.204 -11.215 -21.644  0.00  0.00    +0.022 C 
ATOM     15  C   UNL     1      31.499  -9.897 -19.921  0.00  0.00    +0.022 C 
ATOM     16  C   UNL     1      32.083 -12.263 -20.402  0.00  0.00    +0.022 C 
ENDBRANCH   1  13
BRANCH   6  17
ATOM     17  C   UNL     1      34.250  -7.753 -23.492  0.00  0.00    +0.070 C 
BRANCH  17  18
ATOM     18  C   UNL     1      33.229  -6.645 -23.727  0.00  0.00    -0.021 C 
ATOM     19  C   UNL     1      33.282  -5.898 -24.885  0.00  0.00    -0.025 C 
ATOM     20  C   UNL     1      32.275  -6.428 -22.755  0.00  0.00    -0.008 C 
ATOM     21  C   UNL     1      31.331  -5.420 -22.949  0.00  0.00    -0.022 C 
ATOM     22  C   UNL     1      32.339  -4.890 -25.081  0.00  0.00    -0.005 C 
ATOM     23  C   UNL     1      34.316  -6.136 -25.937  0.00  0.00    +0.031 C 
ATOM     24  C   UNL     1      31.363  -4.651 -24.113  0.00  0.00    -0.005 C 
ATOM     25  C   UNL     1      30.288  -5.164 -21.915  0.00  0.00    +0.031 C 
ENDBRANCH  17  18
ENDBRANCH   6  17
TORSDOF 3
ENDMDL
MODEL 5
REMARK VINA RESULT:      -8.5      2.552      6.913
REMARK  Name = 11522441
REMARK  3 active torsions:
REMARK  status: ('A' for Active; 'I' for Inactive)
REMARK    1  A    between atoms: N_1  and  C_10
REMARK    2  A    between atoms: C_6  and  C_17
REMARK    3  A    between atoms: C_17  and  C_18
REMARK                            x       y       z     vdW  Elec       q    Type
REMARK                         _______ _______ _______ _____ _____    ______ ____
ROOT
ATOM      1  N   UNL     1      33.091  -9.255 -22.839  0.00  0.00    -0.202 N 
ATOM      2  N   UNL     1      32.727 -10.495 -23.129  0.00  0.00    -0.185 NA
ATOM      3  N   UNL     1      32.984  -7.583 -21.102  0.00  0.00    -0.232 NA
ATOM      4  N   UNL     1      31.785  -8.439 -19.157  0.00  0.00    -0.234 NA
ATOM      5  C   UNL     1      32.742  -8.791 -21.635  0.00  0.00    +0.136 C 
ATOM      6  C   UNL     1      32.088 -10.861 -22.013  0.00  0.00    +0.072 C 
ATOM      7  C   UNL     1      32.063  -9.842 -21.043  0.00  0.00    +0.146 C 
ATOM      8  C   UNL     1      31.576  -9.635 -19.756  0.00  0.00    +0.111 C 
ATOM      9  C   UNL     1      32.467  -7.500 -19.857  0.00  0.00    +0.252 C 
ATOM     10  N   UNL     1      30.873 -10.646 -19.075  0.00  0.00    -0.346 N 
ATOM     11  H   UNL     1      30.536 -10.482 -18.165  0.00  0.00    +0.143 HD
ATOM     12  H   UNL     1      30.720 -11.515 -19.508  0.00  0.00    +0.143 HD
ENDROOT
BRANCH   1  13
ATOM     13  C   UNL     1      33.848  -8.492 -23.869  0.00  0.00    +0.081 C 
ATOM     14  C   UNL     1      32.886  -7.563 -24.641  0.00  0.00    +0.022 C 
ATOM     15  C   UNL     1      34.525  -9.473 -24.853  0.00  0.00    +0.022 C 
ATOM     16  C   UNL     1      34.969  -7.596 -23.289  0.00  0.00    +0.022 C 
ENDBRANCH   1  13
BRANCH   6  17
ATOM     17  C   UNL     1      31.512 -12.215 -21.923  0.00  0.00    +0.070 C 
BRANCH  17  18
ATOM     18  C   UNL     1      32.341 -13.280 -22.633  0.00  0.00    -0.021 C 
ATOM     19  C   UNL     1      33.005 -14.237 -21.894  0.00  0.00    -0.025 C 
ATOM     20  C   UNL     1      32.395 -13.245 -24.010  0.00  0.00    -0.008 C 
ATOM     21  C   UNL     1      33.147 -14.211 -24.680  0.00  0.00    -0.022 C 
ATOM     22  C   UNL     1      33.757 -15.203 -22.562  0.00  0.00    -0.005 C 
ATOM     23  C   UNL     1      32.944 -14.272 -20.402  0.00  0.00    +0.031 C 
ATOM     24  C   UNL     1      33.828 -15.190 -23.956  0.00  0.00    -0.005 C 
ATOM     25  C   UNL     1      33.223 -14.197 -26.169  0.00  0.00    +0.031 C 
ENDBRANCH  17  18
ENDBRANCH   6  17
TORSDOF 3
ENDMDL
MODEL 6
REMARK VINA RESULT:      -8.4      9.448     12.438
REMARK  Name = 11522441
REMARK  3 active torsions:
REMARK  status: ('A' for Active; 'I' for Inactive)
REMARK    1  A    between atoms: N_1  and  C_10
REMARK    2  A    between atoms: C_6  and  C_17
REMARK    3  A    between atoms: C_17  and  C_18
REMARK                            x       y       z     vdW  Elec       q    Type
REMARK                         _______ _______ _______ _____ _____    ______ ____
ROOT
ATOM      1  N   UNL     1      34.644 -23.415 -15.874  0.00  0.00    -0.202 N 
ATOM      2  N   UNL     1      34.690 -23.035 -17.142  0.00  0.00    -0.185 NA
ATOM      3  N   UNL     1      33.118 -23.836 -14.052  0.00  0.00    -0.232 NA
ATOM      4  N   UNL     1      30.815 -23.427 -14.748  0.00  0.00    -0.234 NA
ATOM      5  C   UNL     1      33.435 -23.483 -15.308  0.00  0.00    +0.136 C 
ATOM      6  C   UNL     1      33.395 -22.840 -17.415  0.00  0.00    +0.072 C 
ATOM      7  C   UNL     1      32.561 -23.103 -16.313  0.00  0.00    +0.146 C 
ATOM      8  C   UNL     1      31.207 -23.081 -15.998  0.00  0.00    +0.111 C 
ATOM      9  C   UNL     1      31.781 -23.778 -13.865  0.00  0.00    +0.252 C 
ATOM     10  N   UNL     1      30.245 -22.707 -16.954  0.00  0.00    -0.346 N 
ATOM     11  H   UNL     1      29.291 -22.698 -16.714  0.00  0.00    +0.143 HD
ATOM     12  H   UNL     1      30.527 -22.456 -17.863  0.00  0.00    +0.143 HD
ENDROOT
BRANCH   1  13
ATOM     13  C   UNL     1      35.931 -23.732 -15.195  0.00  0.00    +0.081 C 
ATOM     14  C   UNL     1      37.094 -23.028 -15.929  0.00  0.00    +0.022 C 
ATOM     15  C   UNL     1      36.161 -25.259 -15.199  0.00  0.00    +0.022 C 
ATOM     16  C   UNL     1      35.990 -23.274 -13.717  0.00  0.00    +0.022 C 
ENDBRANCH   1  13
BRANCH   6  17
ATOM     17  C   UNL     1      33.003 -22.397 -18.766  0.00  0.00    +0.070 C 
BRANCH  17  18
ATOM     18  C   UNL     1      34.058 -21.542 -19.459  0.00  0.00    -0.021 C 
ATOM     19  C   UNL     1      33.676 -20.424 -20.171  0.00  0.00    -0.025 C 
ATOM     20  C   UNL     1      35.378 -21.927 -19.347  0.00  0.00    -0.008 C 
ATOM     21  C   UNL     1      36.360 -21.159 -19.973  0.00  0.00    -0.022 C 
ATOM     22  C   UNL     1      34.657 -19.656 -20.797  0.00  0.00    -0.005 C 
ATOM     23  C   UNL     1      32.246 -20.010 -20.291  0.00  0.00    +0.031 C 
ATOM     24  C   UNL     1      35.999 -20.024 -20.699  0.00  0.00    -0.005 C 
ATOM     25  C   UNL     1      37.794 -21.552 -19.868  0.00  0.00    +0.031 C 
ENDBRANCH  17  18
ENDBRANCH   6  17
TORSDOF 3
ENDMDL
MODEL 7
REMARK VINA RESULT:      -8.4     12.148     15.361
REMARK  Name = 11522441
REMARK  3 active torsions:
REMARK  status: ('A' for Active; 'I' for Inactive)
REMARK    1  A    between atoms: N_1  and  C_10
REMARK    2  A    between atoms: C_6  and  C_17
REMARK    3  A    between atoms: C_17  and  C_18
REMARK                            x       y       z     vdW  Elec       q    Type
REMARK                         _______ _______ _______ _____ _____    ______ ____
ROOT
ATOM      1  N   UNL     1      32.340 -23.764 -14.783  0.00  0.00    -0.202 N 
ATOM      2  N   UNL     1      33.096 -23.860 -13.700  0.00  0.00    -0.185 NA
ATOM      3  N   UNL     1      32.418 -23.213 -17.132  0.00  0.00    -0.232 NA
ATOM      4  N   UNL     1      34.686 -22.608 -17.799  0.00  0.00    -0.234 NA
ATOM      5  C   UNL     1      32.950 -23.386 -15.912  0.00  0.00    +0.136 C 
ATOM      6  C   UNL     1      34.297 -23.512 -14.173  0.00  0.00    +0.072 C 
ATOM      7  C   UNL     1      34.273 -23.204 -15.546  0.00  0.00    +0.146 C 
ATOM      8  C   UNL     1      35.155 -22.800 -16.543  0.00  0.00    +0.111 C 
ATOM      9  C   UNL     1      33.365 -22.824 -18.013  0.00  0.00    +0.252 C 
ATOM     10  N   UNL     1      36.517 -22.590 -16.265  0.00  0.00    -0.346 N 
ATOM     11  H   UNL     1      37.127 -22.305 -16.983  0.00  0.00    +0.143 HD
ATOM     12  H   UNL     1      36.860 -22.729 -15.353  0.00  0.00    +0.143 HD
ENDROOT
BRANCH   1  13
ATOM     13  C   UNL     1      30.892 -24.083 -14.653  0.00  0.00    +0.081 C 
ATOM     14  C   UNL     1      30.054 -22.808 -14.894  0.00  0.00    +0.022 C 
ATOM     15  C   UNL     1      30.605 -24.635 -13.239  0.00  0.00    +0.022 C 
ATOM     16  C   UNL     1      30.390 -25.147 -15.660  0.00  0.00    +0.022 C 
ENDBRANCH   1  13
BRANCH   6  17
ATOM     17  C   UNL     1      35.453 -23.489 -13.258  0.00  0.00    +0.070 C 
BRANCH  17  18
ATOM     18  C   UNL     1      36.522 -24.522 -13.597  0.00  0.00    -0.021 C 
ATOM     19  C   UNL     1      37.740 -24.487 -12.951  0.00  0.00    -0.025 C 
ATOM     20  C   UNL     1      36.224 -25.469 -14.554  0.00  0.00    -0.008 C 
ATOM     21  C   UNL     1      37.188 -26.425 -14.880  0.00  0.00    -0.022 C 
ATOM     22  C   UNL     1      38.703 -25.442 -13.275  0.00  0.00    -0.005 C 
ATOM     23  C   UNL     1      38.058 -23.460 -11.914  0.00  0.00    +0.031 C 
ATOM     24  C   UNL     1      38.427 -26.411 -14.240  0.00  0.00    -0.005 C 
ATOM     25  C   UNL     1      36.893 -27.461 -15.911  0.00  0.00    +0.031 C 
ENDBRANCH  17  18
ENDBRANCH   6  17
TORSDOF 3
ENDMDL
MODEL 8
REMARK VINA RESULT:      -8.3      1.857      5.890
REMARK  Name = 11522441
REMARK  3 active torsions:
REMARK  status: ('A' for Active; 'I' for Inactive)
REMARK    1  A    between atoms: N_1  and  C_10
REMARK    2  A    between atoms: C_6  and  C_17
REMARK    3  A    between atoms: C_17  and  C_18
REMARK                            x       y       z     vdW  Elec       q    Type
REMARK                         _______ _______ _______ _____ _____    ______ ____
ROOT
ATOM      1  N   UNL     1      32.766  -9.646 -22.534  0.00  0.00    -0.202 N 
ATOM      2  N   UNL     1      32.058 -10.701 -22.162  0.00  0.00    -0.185 NA
ATOM      3  N   UNL     1      34.407  -8.909 -24.143  0.00  0.00    -0.232 NA
ATOM      4  N   UNL     1      35.009 -10.728 -25.653  0.00  0.00    -0.234 NA
ATOM      5  C   UNL     1      33.589  -9.809 -23.575  0.00  0.00    +0.136 C 
ATOM      6  C   UNL     1      32.460 -11.624 -23.042  0.00  0.00    +0.072 C 
ATOM      7  C   UNL     1      33.414 -11.130 -23.950  0.00  0.00    +0.146 C 
ATOM      8  C   UNL     1      34.163 -11.584 -25.031  0.00  0.00    +0.111 C 
ATOM      9  C   UNL     1      35.078  -9.461 -25.177  0.00  0.00    +0.252 C 
ATOM     10  N   UNL     1      34.053 -12.911 -25.484  0.00  0.00    -0.346 N 
ATOM     11  H   UNL     1      34.589 -13.215 -26.251  0.00  0.00    +0.143 HD
ATOM     12  H   UNL     1      33.439 -13.535 -25.034  0.00  0.00    +0.143 HD
ENDROOT
BRANCH   1  13
ATOM     13  C   UNL     1      32.588  -8.382 -21.767  0.00  0.00    +0.081 C 
ATOM     14  C   UNL     1      33.910  -7.584 -21.763  0.00  0.00    +0.022 C 
ATOM     15  C   UNL     1      32.171  -8.707 -20.315  0.00  0.00    +0.022 C 
ATOM     16  C   UNL     1      31.500  -7.445 -22.346  0.00  0.00    +0.022 C 
ENDBRANCH   1  13
BRANCH   6  17
ATOM     17  C   UNL     1      31.893 -12.983 -22.971  0.00  0.00    +0.070 C 
BRANCH  17  18
ATOM     18  C   UNL     1      32.833 -14.007 -22.344  0.00  0.00    -0.021 C 
ATOM     19  C   UNL     1      32.960 -14.072 -20.972  0.00  0.00    -0.025 C 
ATOM     20  C   UNL     1      33.534 -14.842 -23.188  0.00  0.00    -0.008 C 
ATOM     21  C   UNL     1      34.400 -15.786 -22.635  0.00  0.00    -0.022 C 
ATOM     22  C   UNL     1      33.824 -15.016 -20.419  0.00  0.00    -0.005 C 
ATOM     23  C   UNL     1      32.198 -13.165 -20.061  0.00  0.00    +0.031 C 
ATOM     24  C   UNL     1      34.545 -15.873 -21.251  0.00  0.00    -0.005 C 
ATOM     25  C   UNL     1      35.170 -16.703 -23.524  0.00  0.00    +0.031 C 
ENDBRANCH  17  18
ENDBRANCH   6  17
TORSDOF 3
ENDMDL
MODEL 9
REMARK VINA RESULT:      -8.2     10.997     14.311
REMARK  Name = 11522441
REMARK  3 active torsions:
REMARK  status: ('A' for Active; 'I' for Inactive)
REMARK    1  A    between atoms: N_1  and  C_10
REMARK    2  A    between atoms: C_6  and  C_17
REMARK    3  A    between atoms: C_17  and  C_18
REMARK                            x       y       z     vdW  Elec       q    Type
REMARK                         _______ _______ _______ _____ _____    ______ ____
ROOT
ATOM      1  N   UNL     1      34.053 -22.706 -17.186  0.00  0.00    -0.202 N 
ATOM      2  N   UNL     1      32.845 -22.531 -16.672  0.00  0.00    -0.185 NA
ATOM      3  N   UNL     1      36.321 -23.283 -16.597  0.00  0.00    -0.232 NA
ATOM      4  N   UNL     1      36.507 -23.709 -14.202  0.00  0.00    -0.234 NA
ATOM      5  C   UNL     1      35.025 -23.050 -16.335  0.00  0.00    +0.136 C 
ATOM      6  C   UNL     1      33.060 -22.785 -15.377  0.00  0.00    +0.072 C 
ATOM      7  C   UNL     1      34.399 -23.115 -15.102  0.00  0.00    +0.146 C 
ATOM      8  C   UNL     1      35.189 -23.459 -14.010  0.00  0.00    +0.111 C 
ATOM      9  C   UNL     1      36.984 -23.607 -15.466  0.00  0.00    +0.252 C 
ATOM     10  N   UNL     1      34.641 -23.549 -12.718  0.00  0.00    -0.346 N 
ATOM     11  H   UNL     1      35.214 -23.794 -11.956  0.00  0.00    +0.143 HD
ATOM     12  H   UNL     1      33.684 -23.367 -12.576  0.00  0.00    +0.143 HD
ENDROOT
BRANCH   1  13
ATOM     13  C   UNL     1      34.222 -22.505 -18.651  0.00  0.00    +0.081 C 
ATOM     14  C   UNL     1      33.120 -21.559 -19.178  0.00  0.00    +0.022 C 
ATOM     15  C   UNL     1      34.131 -23.866 -19.378  0.00  0.00    +0.022 C 
ATOM     16  C   UNL     1      35.581 -21.877 -19.046  0.00  0.00    +0.022 C 
ENDBRANCH   1  13
BRANCH   6  17
ATOM     17  C   UNL     1      31.933 -22.698 -14.429  0.00  0.00    +0.070 C 
BRANCH  17  18
ATOM     18  C   UNL     1      30.671 -23.402 -14.913  0.00  0.00    -0.021 C 
ATOM     19  C   UNL     1      30.396 -24.686 -14.490  0.00  0.00    -0.025 C 
ATOM     20  C   UNL     1      29.837 -22.716 -15.771  0.00  0.00    -0.008 C 
ATOM     21  C   UNL     1      28.676 -23.341 -16.226  0.00  0.00    -0.022 C 
ATOM     22  C   UNL     1      29.235 -25.311 -14.944  0.00  0.00    -0.005 C 
ATOM     23  C   UNL     1      31.301 -25.426 -13.560  0.00  0.00    +0.031 C 
ATOM     24  C   UNL     1      28.375 -24.638 -15.812  0.00  0.00    -0.005 C 
ATOM     25  C   UNL     1      27.756 -22.622 -17.154  0.00  0.00    +0.031 C 
ENDBRANCH  17  18
ENDBRANCH   6  17
TORSDOF 3
ENDMDL
