MODEL 1
REMARK VINA RESULT:     -10.8      0.000      0.000
REMARK  Name = 445840
REMARK  1 active torsions:
REMARK  status: ('A' for Active; 'I' for Inactive)
REMARK    1  A    between atoms: C_10  and  N_15
REMARK                            x       y       z     vdW  Elec       q    Type
REMARK                         _______ _______ _______ _____ _____    ______ ____
ROOT
ATOM      1  O   UNL     1      35.384 -18.140 -23.945  0.00  0.00    -0.270 OA
ATOM      2  N   UNL     1      35.117 -16.389 -22.390  0.00  0.00    -0.274 N 
ATOM      3  C   UNL     1      34.488 -15.080 -22.356  0.00  0.00    +0.100 C 
ATOM      4  C   UNL     1      33.592 -15.190 -21.132  0.00  0.00    +0.026 C 
ATOM      5  C   UNL     1      34.466 -16.018 -20.175  0.00  0.00    +0.024 C 
ATOM      6  C   UNL     1      35.182 -17.018 -21.086  0.00  0.00    +0.094 C 
ATOM      7  C   UNL     1      33.890 -14.989 -23.714  0.00  0.00    +0.014 C 
ATOM      8  C   UNL     1      34.265 -16.103 -24.478  0.00  0.00    +0.052 C 
ATOM      9  C   UNL     1      35.025 -17.025 -23.617  0.00  0.00    +0.249 C 
ATOM     10  C   UNL     1      33.115 -13.991 -24.271  0.00  0.00    +0.049 C 
ATOM     11  C   UNL     1      33.878 -16.270 -25.792  0.00  0.00    +0.004 C 
ATOM     12  C   UNL     1      32.716 -14.134 -25.604  0.00  0.00    +0.014 C 
ATOM     13  C   UNL     1      33.094 -15.262 -26.357  0.00  0.00    +0.001 C 
ENDROOT
BRANCH  10  15
ATOM     14  O   UNL     1      33.844 -11.120 -24.656  0.00  0.00    -0.252 OA
ATOM     15  N   UNL     1      32.744 -12.863 -23.542  0.00  0.00    -0.268 N 
ATOM     16  N   UNL     1      32.511 -10.693 -22.782  0.00  0.00    -0.253 N 
ATOM     17  C   UNL     1      33.110 -11.511 -23.754  0.00  0.00    +0.309 C 
ATOM     18  H   UNL     1      32.147 -13.029 -22.776  0.00  0.00    +0.156 HD
ATOM     19  H   UNL     1      31.947 -11.152 -22.120  0.00  0.00    +0.158 HD
ATOM     20  N   UNL     1      33.383  -8.623 -23.522  0.00  0.00    -0.229 NA
ATOM     21  C   UNL     1      32.621  -9.289 -22.639  0.00  0.00    +0.135 C 
ATOM     22  C   UNL     1      31.930  -8.714 -21.592  0.00  0.00    +0.035 C 
ATOM     23  C   UNL     1      32.031  -7.336 -21.442  0.00  0.00    +0.004 C 
ATOM     24  C   UNL     1      33.457  -7.285 -23.344  0.00  0.00    +0.100 C 
ATOM     25  C   UNL     1      32.807  -6.600 -22.330  0.00  0.00    +0.021 C 
ENDBRANCH  10  15
TORSDOF 1
ENDMDL
MODEL 2
REMARK VINA RESULT:     -10.2      2.300      7.476
REMARK  Name = 445840
REMARK  1 active torsions:
REMARK  status: ('A' for Active; 'I' for Inactive)
REMARK    1  A    between atoms: C_10  and  N_15
REMARK                            x       y       z     vdW  Elec       q    Type
REMARK                         _______ _______ _______ _____ _____    ______ ____
ROOT
ATOM      1  O   UNL     1      32.118  -8.775 -22.703  0.00  0.00    -0.270 OA
ATOM      2  N   UNL     1      31.515 -10.704 -21.491  0.00  0.00    -0.274 N 
ATOM      3  C   UNL     1      31.739 -12.137 -21.585  0.00  0.00    +0.100 C 
ATOM      4  C   UNL     1      32.304 -12.460 -20.211  0.00  0.00    +0.026 C 
ATOM      5  C   UNL     1      31.479 -11.531 -19.304  0.00  0.00    +0.024 C 
ATOM      6  C   UNL     1      31.305 -10.253 -20.130  0.00  0.00    +0.094 C 
ATOM      7  C   UNL     1      32.604 -12.234 -22.791  0.00  0.00    +0.014 C 
ATOM      8  C   UNL     1      32.742 -10.973 -23.385  0.00  0.00    +0.052 C 
ATOM      9  C   UNL     1      32.072  -9.978 -22.531  0.00  0.00    +0.249 C 
ATOM     10  C   UNL     1      33.193 -13.344 -23.365  0.00  0.00    +0.049 C 
ATOM     11  C   UNL     1      33.469 -10.769 -24.541  0.00  0.00    +0.004 C 
ATOM     12  C   UNL     1      33.930 -13.164 -24.540  0.00  0.00    +0.014 C 
ATOM     13  C   UNL     1      34.066 -11.890 -25.123  0.00  0.00    +0.001 C 
ENDROOT
BRANCH  10  15
ATOM     14  O   UNL     1      35.270 -15.363 -22.636  0.00  0.00    -0.252 OA
ATOM     15  N   UNL     1      33.056 -14.613 -22.806  0.00  0.00    -0.268 N 
ATOM     16  N   UNL     1      33.490 -16.708 -21.931  0.00  0.00    -0.253 N 
ATOM     17  C   UNL     1      34.068 -15.548 -22.472  0.00  0.00    +0.309 C 
ATOM     18  H   UNL     1      32.132 -14.899 -22.619  0.00  0.00    +0.156 HD
ATOM     19  H   UNL     1      32.509 -16.710 -21.863  0.00  0.00    +0.158 HD
ATOM     20  N   UNL     1      35.489 -17.913 -21.549  0.00  0.00    -0.229 NA
ATOM     21  C   UNL     1      34.148 -17.874 -21.472  0.00  0.00    +0.135 C 
ATOM     22  C   UNL     1      33.350 -18.886 -20.981  0.00  0.00    +0.035 C 
ATOM     23  C   UNL     1      33.986 -20.037 -20.528  0.00  0.00    +0.004 C 
ATOM     24  C   UNL     1      36.071 -19.047 -21.099  0.00  0.00    +0.100 C 
ATOM     25  C   UNL     1      35.372 -20.127 -20.585  0.00  0.00    +0.021 C 
ENDBRANCH  10  15
TORSDOF 1
ENDMDL
MODEL 3
REMARK VINA RESULT:     -10.0      2.342      7.640
REMARK  Name = 445840
REMARK  1 active torsions:
REMARK  status: ('A' for Active; 'I' for Inactive)
REMARK    1  A    between atoms: C_10  and  N_15
REMARK                            x       y       z     vdW  Elec       q    Type
REMARK                         _______ _______ _______ _____ _____    ______ ____
ROOT
ATOM      1  O   UNL     1      33.100  -9.429 -24.223  0.00  0.00    -0.270 OA
ATOM      2  N   UNL     1      33.651 -11.704 -24.498  0.00  0.00    -0.274 N 
ATOM      3  C   UNL     1      33.482 -12.940 -23.753  0.00  0.00    +0.100 C 
ATOM      4  C   UNL     1      32.804 -13.838 -24.776  0.00  0.00    +0.026 C 
ATOM      5  C   UNL     1      33.511 -13.424 -26.077  0.00  0.00    +0.024 C 
ATOM      6  C   UNL     1      33.719 -11.914 -25.931  0.00  0.00    +0.094 C 
ATOM      7  C   UNL     1      32.737 -12.478 -22.553  0.00  0.00    +0.014 C 
ATOM      8  C   UNL     1      32.614 -11.082 -22.574  0.00  0.00    +0.052 C 
ATOM      9  C   UNL     1      33.169 -10.583 -23.844  0.00  0.00    +0.249 C 
ATOM     10  C   UNL     1      32.240 -13.205 -21.489  0.00  0.00    +0.049 C 
ATOM     11  C   UNL     1      31.990 -10.373 -21.566  0.00  0.00    +0.004 C 
ATOM     12  C   UNL     1      31.609 -12.509 -20.453  0.00  0.00    +0.014 C 
ATOM     13  C   UNL     1      31.486 -11.107 -20.491  0.00  0.00    +0.001 C 
ENDROOT
BRANCH  10  15
ATOM     14  O   UNL     1      34.659 -14.906 -21.072  0.00  0.00    -0.252 OA
ATOM     15  N   UNL     1      32.365 -14.592 -21.432  0.00  0.00    -0.268 N 
ATOM     16  N   UNL     1      33.210 -16.735 -21.245  0.00  0.00    -0.253 N 
ATOM     17  C   UNL     1      33.533 -15.368 -21.232  0.00  0.00    +0.309 C 
ATOM     18  H   UNL     1      31.529 -15.101 -21.547  0.00  0.00    +0.156 HD
ATOM     19  H   UNL     1      32.261 -16.952 -21.386  0.00  0.00    +0.158 HD
ATOM     20  N   UNL     1      35.390 -17.583 -20.889  0.00  0.00    -0.229 NA
ATOM     21  C   UNL     1      34.084 -17.836 -21.082  0.00  0.00    +0.135 C 
ATOM     22  C   UNL     1      33.517 -19.093 -21.137  0.00  0.00    +0.035 C 
ATOM     23  C   UNL     1      34.366 -20.183 -20.978  0.00  0.00    +0.004 C 
ATOM     24  C   UNL     1      36.183 -18.667 -20.739  0.00  0.00    +0.100 C 
ATOM     25  C   UNL     1      35.726 -19.975 -20.775  0.00  0.00    +0.021 C 
ENDBRANCH  10  15
TORSDOF 1
ENDMDL
MODEL 4
REMARK VINA RESULT:      -9.9      2.170      7.281
REMARK  Name = 445840
REMARK  1 active torsions:
REMARK  status: ('A' for Active; 'I' for Inactive)
REMARK    1  A    between atoms: C_10  and  N_15
REMARK                            x       y       z     vdW  Elec       q    Type
REMARK                         _______ _______ _______ _____ _____    ______ ____
ROOT
ATOM      1  O   UNL     1      32.129  -8.203 -21.540  0.00  0.00    -0.270 OA
ATOM      2  N   UNL     1      31.567 -10.473 -21.830  0.00  0.00    -0.274 N 
ATOM      3  C   UNL     1      31.993 -11.578 -22.673  0.00  0.00    +0.100 C 
ATOM      4  C   UNL     1      32.324 -12.650 -21.646  0.00  0.00    +0.026 C 
ATOM      5  C   UNL     1      31.226 -12.427 -20.593  0.00  0.00    +0.024 C 
ATOM      6  C   UNL     1      31.044 -10.908 -20.551  0.00  0.00    +0.094 C 
ATOM      7  C   UNL     1      33.076 -10.953 -23.477  0.00  0.00    +0.014 C 
ATOM      8  C   UNL     1      33.156  -9.584 -23.190  0.00  0.00    +0.052 C 
ATOM      9  C   UNL     1      32.210  -9.278 -22.104  0.00  0.00    +0.249 C 
ATOM     10  C   UNL     1      33.906 -11.516 -24.427  0.00  0.00    +0.049 C 
ATOM     11  C   UNL     1      34.057  -8.743 -23.814  0.00  0.00    +0.004 C 
ATOM     12  C   UNL     1      34.822 -10.683 -25.077  0.00  0.00    +0.014 C 
ATOM     13  C   UNL     1      34.896  -9.310 -24.774  0.00  0.00    +0.001 C 
ENDROOT
BRANCH  10  15
ATOM     14  O   UNL     1      34.856 -13.906 -22.908  0.00  0.00    -0.252 OA
ATOM     15  N   UNL     1      33.835 -12.870 -24.746  0.00  0.00    -0.268 N 
ATOM     16  N   UNL     1      34.024 -15.173 -24.690  0.00  0.00    -0.253 N 
ATOM     17  C   UNL     1      34.298 -13.982 -23.998  0.00  0.00    +0.309 C 
ATOM     18  H   UNL     1      33.406 -13.084 -25.606  0.00  0.00    +0.156 HD
ATOM     19  H   UNL     1      33.570 -15.075 -25.557  0.00  0.00    +0.158 HD
ATOM     20  N   UNL     1      34.943 -16.678 -23.113  0.00  0.00    -0.229 NA
ATOM     21  C   UNL     1      34.322 -16.498 -24.291  0.00  0.00    +0.135 C 
ATOM     22  C   UNL     1      33.948 -17.507 -25.154  0.00  0.00    +0.035 C 
ATOM     23  C   UNL     1      34.237 -18.812 -24.773  0.00  0.00    +0.004 C 
ATOM     24  C   UNL     1      35.207 -17.960 -22.776  0.00  0.00    +0.100 C 
ATOM     25  C   UNL     1      34.878 -19.052 -23.563  0.00  0.00    +0.021 C 
ENDBRANCH  10  15
TORSDOF 1
ENDMDL
MODEL 5
REMARK VINA RESULT:      -9.8      2.286      7.696
REMARK  Name = 445840
REMARK  1 active torsions:
REMARK  status: ('A' for Active; 'I' for Inactive)
REMARK    1  A    between atoms: C_10  and  N_15
REMARK                            x       y       z     vdW  Elec       q    Type
REMARK                         _______ _______ _______ _____ _____    ______ ____
ROOT
ATOM      1  O   UNL     1      33.365  -7.594 -23.394  0.00  0.00    -0.270 OA
ATOM      2  N   UNL     1      34.520  -9.500 -24.162  0.00  0.00    -0.274 N 
ATOM      3  C   UNL     1      34.390 -10.943 -24.049  0.00  0.00    +0.100 C 
ATOM      4  C   UNL     1      34.394 -11.376 -25.506  0.00  0.00    +0.026 C 
ATOM      5  C   UNL     1      35.417 -10.407 -26.121  0.00  0.00    +0.024 C 
ATOM      6  C   UNL     1      35.177  -9.086 -25.386  0.00  0.00    +0.094 C 
ATOM      7  C   UNL     1      33.156 -11.078 -23.232  0.00  0.00    +0.014 C 
ATOM      8  C   UNL     1      32.711  -9.814 -22.822  0.00  0.00    +0.052 C 
ATOM      9  C   UNL     1      33.566  -8.792 -23.449  0.00  0.00    +0.249 C 
ATOM     10  C   UNL     1      32.487 -12.218 -22.828  0.00  0.00    +0.049 C 
ATOM     11  C   UNL     1      31.598  -9.638 -22.024  0.00  0.00    +0.004 C 
ATOM     12  C   UNL     1      31.360 -12.065 -22.014  0.00  0.00    +0.014 C 
ATOM     13  C   UNL     1      30.921 -10.788 -21.615  0.00  0.00    +0.001 C 
ENDROOT
BRANCH  10  15
ATOM     14  O   UNL     1      33.924 -14.310 -21.254  0.00  0.00    -0.252 OA
ATOM     15  N   UNL     1      32.918 -13.488 -23.204  0.00  0.00    -0.268 N 
ATOM     16  N   UNL     1      33.846 -15.605 -23.200  0.00  0.00    -0.253 N 
ATOM     17  C   UNL     1      33.599 -14.458 -22.428  0.00  0.00    +0.309 C 
ATOM     18  H   UNL     1      32.723 -13.746 -24.134  0.00  0.00    +0.156 HD
ATOM     19  H   UNL     1      33.526 -15.576 -24.130  0.00  0.00    +0.158 HD
ATOM     20  N   UNL     1      34.953 -16.878 -21.542  0.00  0.00    -0.229 NA
ATOM     21  C   UNL     1      34.499 -16.797 -22.805  0.00  0.00    +0.135 C 
ATOM     22  C   UNL     1      34.618 -17.787 -23.758  0.00  0.00    +0.035 C 
ATOM     23  C   UNL     1      35.258 -18.962 -23.380  0.00  0.00    +0.004 C 
ATOM     24  C   UNL     1      35.569 -18.035 -21.212  0.00  0.00    +0.100 C 
ATOM     25  C   UNL     1      35.746 -19.096 -22.085  0.00  0.00    +0.021 C 
ENDBRANCH  10  15
TORSDOF 1
ENDMDL
MODEL 6
REMARK VINA RESULT:      -9.8      3.949      8.994
REMARK  Name = 445840
REMARK  1 active torsions:
REMARK  status: ('A' for Active; 'I' for Inactive)
REMARK    1  A    between atoms: C_10  and  N_15
REMARK                            x       y       z     vdW  Elec       q    Type
REMARK                         _______ _______ _______ _____ _____    ______ ____
ROOT
ATOM      1  O   UNL     1      33.218 -14.313 -24.405  0.00  0.00    -0.270 OA
ATOM      2  N   UNL     1      33.450 -15.270 -22.264  0.00  0.00    -0.274 N 
ATOM      3  C   UNL     1      33.899 -16.533 -21.703  0.00  0.00    +0.100 C 
ATOM      4  C   UNL     1      34.953 -16.080 -20.704  0.00  0.00    +0.026 C 
ATOM      5  C   UNL     1      34.327 -14.789 -20.150  0.00  0.00    +0.024 C 
ATOM      6  C   UNL     1      33.639 -14.153 -21.360  0.00  0.00    +0.094 C 
ATOM      7  C   UNL     1      34.299 -17.286 -22.921  0.00  0.00    +0.014 C 
ATOM      8  C   UNL     1      33.979 -16.547 -24.068  0.00  0.00    +0.052 C 
ATOM      9  C   UNL     1      33.466 -15.232 -23.648  0.00  0.00    +0.249 C 
ATOM     10  C   UNL     1      34.856 -18.545 -23.036  0.00  0.00    +0.049 C 
ATOM     11  C   UNL     1      34.212 -17.016 -25.346  0.00  0.00    +0.004 C 
ATOM     12  C   UNL     1      35.095 -19.044 -24.320  0.00  0.00    +0.014 C 
ATOM     13  C   UNL     1      34.776 -18.288 -25.463  0.00  0.00    +0.001 C 
ENDROOT
BRANCH  10  15
ATOM     14  O   UNL     1      33.087 -20.178 -21.268  0.00  0.00    -0.252 OA
ATOM     15  N   UNL     1      35.166 -19.310 -21.913  0.00  0.00    -0.268 N 
ATOM     16  N   UNL     1      35.026 -20.692 -20.066  0.00  0.00    -0.253 N 
ATOM     17  C   UNL     1      34.298 -20.075 -21.095  0.00  0.00    +0.309 C 
ATOM     18  H   UNL     1      36.116 -19.321 -21.653  0.00  0.00    +0.156 HD
ATOM     19  H   UNL     1      35.994 -20.515 -20.056  0.00  0.00    +0.158 HD
ATOM     20  N   UNL     1      33.222 -21.804 -19.016  0.00  0.00    -0.229 NA
ATOM     21  C   UNL     1      34.539 -21.536 -19.040  0.00  0.00    +0.135 C 
ATOM     22  C   UNL     1      35.465 -22.020 -18.139  0.00  0.00    +0.035 C 
ATOM     23  C   UNL     1      34.996 -22.850 -17.127  0.00  0.00    +0.004 C 
ATOM     24  C   UNL     1      32.804 -22.614 -18.018  0.00  0.00    +0.100 C 
ATOM     25  C   UNL     1      33.642 -23.158 -17.058  0.00  0.00    +0.021 C 
ENDBRANCH  10  15
TORSDOF 1
ENDMDL
MODEL 7
REMARK VINA RESULT:      -9.8      2.294      8.063
REMARK  Name = 445840
REMARK  1 active torsions:
REMARK  status: ('A' for Active; 'I' for Inactive)
REMARK    1  A    between atoms: C_10  and  N_15
REMARK                            x       y       z     vdW  Elec       q    Type
REMARK                         _______ _______ _______ _____ _____    ______ ____
ROOT
ATOM      1  O   UNL     1      32.132  -6.580 -20.017  0.00  0.00    -0.270 OA
ATOM      2  N   UNL     1      32.803  -7.652 -22.006  0.00  0.00    -0.274 N 
ATOM      3  C   UNL     1      32.827  -9.007 -22.531  0.00  0.00    +0.100 C 
ATOM      4  C   UNL     1      32.081  -8.850 -23.847  0.00  0.00    +0.026 C 
ATOM      5  C   UNL     1      32.573  -7.474 -24.326  0.00  0.00    +0.024 C 
ATOM      6  C   UNL     1      32.690  -6.647 -23.043  0.00  0.00    +0.094 C 
ATOM      7  C   UNL     1      32.221  -9.781 -21.416  0.00  0.00    +0.014 C 
ATOM      8  C   UNL     1      31.995  -8.941 -20.317  0.00  0.00    +0.052 C 
ATOM      9  C   UNL     1      32.335  -7.562 -20.705  0.00  0.00    +0.249 C 
ATOM     10  C   UNL     1      31.926 -11.128 -21.336  0.00  0.00    +0.049 C 
ATOM     11  C   UNL     1      31.465  -9.398 -19.126  0.00  0.00    +0.004 C 
ATOM     12  C   UNL     1      31.395 -11.616 -20.137  0.00  0.00    +0.014 C 
ATOM     13  C   UNL     1      31.167 -10.759 -19.043  0.00  0.00    +0.001 C 
ENDROOT
BRANCH  10  15
ATOM     14  O   UNL     1      33.371 -13.741 -21.429  0.00  0.00    -0.252 OA
ATOM     15  N   UNL     1      32.158 -11.990 -22.406  0.00  0.00    -0.268 N 
ATOM     16  N   UNL     1      32.850 -13.768 -23.710  0.00  0.00    -0.253 N 
ATOM     17  C   UNL     1      32.850 -13.226 -22.414  0.00  0.00    +0.309 C 
ATOM     18  H   UNL     1      31.791 -11.700 -23.273  0.00  0.00    +0.156 HD
ATOM     19  H   UNL     1      32.390 -13.238 -24.399  0.00  0.00    +0.158 HD
ATOM     20  N   UNL     1      34.068 -15.739 -23.234  0.00  0.00    -0.229 NA
ATOM     21  C   UNL     1      33.430 -14.984 -24.144  0.00  0.00    +0.135 C 
ATOM     22  C   UNL     1      33.293 -15.297 -25.481  0.00  0.00    +0.035 C 
ATOM     23  C   UNL     1      33.859 -16.488 -25.918  0.00  0.00    +0.004 C 
ATOM     24  C   UNL     1      34.606 -16.890 -23.696  0.00  0.00    +0.100 C 
ATOM     25  C   UNL     1      34.530 -17.306 -25.016  0.00  0.00    +0.021 C 
ENDBRANCH  10  15
TORSDOF 1
ENDMDL
MODEL 8
REMARK VINA RESULT:      -9.6      8.152     12.207
REMARK  Name = 445840
REMARK  1 active torsions:
REMARK  status: ('A' for Active; 'I' for Inactive)
REMARK    1  A    between atoms: C_10  and  N_15
REMARK                            x       y       z     vdW  Elec       q    Type
REMARK                         _______ _______ _______ _____ _____    ______ ____
ROOT
ATOM      1  O   UNL     1      34.566 -24.748 -11.998  0.00  0.00    -0.270 OA
ATOM      2  N   UNL     1      33.293 -23.741 -13.707  0.00  0.00    -0.274 N 
ATOM      3  C   UNL     1      33.541 -23.133 -15.004  0.00  0.00    +0.100 C 
ATOM      4  C   UNL     1      32.601 -23.917 -15.906  0.00  0.00    +0.026 C 
ATOM      5  C   UNL     1      31.377 -24.109 -14.995  0.00  0.00    +0.024 C 
ATOM      6  C   UNL     1      31.973 -24.328 -13.602  0.00  0.00    +0.094 C 
ATOM      7  C   UNL     1      35.013 -23.289 -15.142  0.00  0.00    +0.014 C 
ATOM      8  C   UNL     1      35.550 -23.826 -13.965  0.00  0.00    +0.052 C 
ATOM      9  C   UNL     1      34.442 -24.153 -13.052  0.00  0.00    +0.249 C 
ATOM     10  C   UNL     1      35.841 -22.947 -16.194  0.00  0.00    +0.049 C 
ATOM     11  C   UNL     1      36.902 -24.053 -13.798  0.00  0.00    +0.004 C 
ATOM     12  C   UNL     1      37.215 -23.162 -16.046  0.00  0.00    +0.014 C 
ATOM     13  C   UNL     1      37.740 -23.709 -14.860  0.00  0.00    +0.001 C 
ENDROOT
BRANCH  10  15
ATOM     14  O   UNL     1      37.018 -20.896 -18.019  0.00  0.00    -0.252 OA
ATOM     15  N   UNL     1      35.336 -22.394 -17.369  0.00  0.00    -0.268 N 
ATOM     16  N   UNL     1      35.072 -21.143 -19.294  0.00  0.00    -0.253 N 
ATOM     17  C   UNL     1      35.924 -21.419 -18.213  0.00  0.00    +0.309 C 
ATOM     18  H   UNL     1      34.452 -22.724 -17.650  0.00  0.00    +0.156 HD
ATOM     19  H   UNL     1      34.225 -21.643 -19.315  0.00  0.00    +0.158 HD
ATOM     20  N   UNL     1      36.429 -19.531 -20.369  0.00  0.00    -0.229 NA
ATOM     21  C   UNL     1      35.284 -20.235 -20.359  0.00  0.00    +0.135 C 
ATOM     22  C   UNL     1      34.286 -20.144 -21.308  0.00  0.00    +0.035 C 
ATOM     23  C   UNL     1      34.484 -19.254 -22.357  0.00  0.00    +0.004 C 
ATOM     24  C   UNL     1      36.585 -18.677 -21.405  0.00  0.00    +0.100 C 
ATOM     25  C   UNL     1      35.652 -18.503 -22.415  0.00  0.00    +0.021 C 
ENDBRANCH  10  15
TORSDOF 1
ENDMDL
MODEL 9
REMARK VINA RESULT:      -9.3      1.596      3.394
REMARK  Name = 445840
REMARK  1 active torsions:
REMARK  status: ('A' for Active; 'I' for Inactive)
REMARK    1  A    between atoms: C_10  and  N_15
REMARK                            x       y       z     vdW  Elec       q    Type
REMARK                         _______ _______ _______ _____ _____    ______ ____
ROOT
ATOM      1  O   UNL     1      34.387 -16.879 -24.832  0.00  0.00    -0.270 OA
ATOM      2  N   UNL     1      33.232 -14.959 -25.563  0.00  0.00    -0.274 N 
ATOM      3  C   UNL     1      32.672 -13.759 -24.964  0.00  0.00    +0.100 C 
ATOM      4  C   UNL     1      33.331 -12.659 -25.781  0.00  0.00    +0.026 C 
ATOM      5  C   UNL     1      33.353 -13.281 -27.187  0.00  0.00    +0.024 C 
ATOM      6  C   UNL     1      33.639 -14.765 -26.940  0.00  0.00    +0.094 C 
ATOM      7  C   UNL     1      33.022 -13.938 -23.530  0.00  0.00    +0.014 C 
ATOM      8  C   UNL     1      33.617 -15.191 -23.335  0.00  0.00    +0.052 C 
ATOM      9  C   UNL     1      33.787 -15.837 -24.647  0.00  0.00    +0.249 C 
ATOM     10  C   UNL     1      32.800 -13.097 -22.457  0.00  0.00    +0.049 C 
ATOM     11  C   UNL     1      34.019 -15.640 -22.092  0.00  0.00    +0.004 C 
ATOM     12  C   UNL     1      33.193 -13.532 -21.187  0.00  0.00    +0.014 C 
ATOM     13  C   UNL     1      33.796 -14.791 -21.007  0.00  0.00    +0.001 C 
ENDROOT
BRANCH  10  15
ATOM     14  O   UNL     1      33.938 -10.507 -23.416  0.00  0.00    -0.252 OA
ATOM     15  N   UNL     1      32.193 -11.853 -22.619  0.00  0.00    -0.268 N 
ATOM     16  N   UNL     1      31.797  -9.625 -23.088  0.00  0.00    -0.253 N 
ATOM     17  C   UNL     1      32.766 -10.641 -23.078  0.00  0.00    +0.309 C 
ATOM     18  H   UNL     1      31.238 -11.810 -22.383  0.00  0.00    +0.156 HD
ATOM     19  H   UNL     1      30.896  -9.884 -22.788  0.00  0.00    +0.158 HD
ATOM     20  N   UNL     1      33.172  -7.876 -23.891  0.00  0.00    -0.229 NA
ATOM     21  C   UNL     1      31.957  -8.273 -23.476  0.00  0.00    +0.135 C 
ATOM     22  C   UNL     1      30.842  -7.465 -23.393  0.00  0.00    +0.035 C 
ATOM     23  C   UNL     1      30.989  -6.135 -23.771  0.00  0.00    +0.004 C 
ATOM     24  C   UNL     1      33.276  -6.577 -24.251  0.00  0.00    +0.100 C 
ATOM     25  C   UNL     1      32.226  -5.675 -24.209  0.00  0.00    +0.021 C 
ENDBRANCH  10  15
TORSDOF 1
ENDMDL
