MODEL 1
REMARK VINA RESULT:      -9.7      0.000      0.000
REMARK  Name = 11660035
REMARK  5 active torsions:
REMARK  status: ('A' for Active; 'I' for Inactive)
REMARK    1  A    between atoms: N_5  and  C_21
REMARK    2  A    between atoms: C_10  and  C_18
REMARK    3  A    between atoms: C_18  and  O_19
REMARK    4  A    between atoms: C_21  and  C_23
REMARK    5  A    between atoms: C_23  and  O_24
REMARK                            x       y       z     vdW  Elec       q    Type
REMARK                         _______ _______ _______ _____ _____    ______ ____
ROOT
ATOM      1  S   UNL     1      32.092 -24.171 -14.165  0.00  0.00    +0.080 S 
ATOM      2  O   UNL     1      31.728 -23.255 -13.105  0.00  0.00    -0.150 OA
ATOM      3  O   UNL     1      32.144 -25.607 -13.995  0.00  0.00    -0.150 OA
ATOM      4  O   UNL     1      31.654 -22.895 -17.749  0.00  0.00    -0.268 OA
ATOM      5  N   UNL     1      31.249 -23.777 -15.601  0.00  0.00    -0.145 N 
ATOM      6  C   UNL     1      33.601 -23.642 -14.856  0.00  0.00    +0.136 C 
ATOM      7  C   UNL     1      33.469 -23.170 -16.166  0.00  0.00    +0.074 C 
ATOM      8  C   UNL     1      32.060 -23.236 -16.654  0.00  0.00    +0.269 C 
ATOM      9  C   UNL     1      34.600 -22.703 -16.867  0.00  0.00    +0.006 C 
ATOM     10  C   UNL     1      34.801 -23.683 -14.182  0.00  0.00    +0.094 C 
ATOM     11  C   UNL     1      35.849 -22.740 -16.183  0.00  0.00    +0.000 C 
ATOM     12  C   UNL     1      35.929 -23.227 -14.859  0.00  0.00    +0.008 C 
ATOM     13  C   UNL     1      34.583 -22.205 -18.190  0.00  0.00    +0.000 C 
ATOM     14  C   UNL     1      37.009 -22.288 -16.832  0.00  0.00    +0.000 C 
ATOM     15  C   UNL     1      35.751 -21.760 -18.815  0.00  0.00    +0.000 C 
ATOM     16  C   UNL     1      36.961 -21.801 -18.137  0.00  0.00    +0.000 C 
ENDROOT
BRANCH  10  18
ATOM     17  O   UNL     1      34.594 -23.562 -11.801  0.00  0.00    -0.245 OA
ATOM     18  C   UNL     1      34.931 -24.175 -12.820  0.00  0.00    +0.339 C 
BRANCH  18  19
ATOM     19  O   UNL     1      35.477 -25.420 -12.766  0.00  0.00    -0.477 OA
ATOM     20  H   UNL     1      35.463 -25.903 -11.963  0.00  0.00    +0.295 HD
ENDBRANCH  18  19
ENDBRANCH  10  18
BRANCH   5  21
ATOM     21  C   UNL     1      29.800 -23.976 -15.745  0.00  0.00    +0.228 C 
BRANCH  21  23
ATOM     22  O   UNL     1      28.908 -21.865 -14.932  0.00  0.00    -0.248 OA
ATOM     23  C   UNL     1      29.140 -22.635 -15.852  0.00  0.00    +0.336 C 
BRANCH  23  24
ATOM     24  O   UNL     1      28.824 -22.377 -17.148  0.00  0.00    -0.479 OA
ATOM     25  H   UNL     1      28.691 -21.495 -17.432  0.00  0.00    +0.295 HD
ENDBRANCH  23  24
ENDBRANCH  21  23
ENDBRANCH   5  21
TORSDOF 5
ENDMDL
MODEL 2
REMARK VINA RESULT:      -9.5      1.921      3.003
REMARK  Name = 11660035
REMARK  5 active torsions:
REMARK  status: ('A' for Active; 'I' for Inactive)
REMARK    1  A    between atoms: N_5  and  C_21
REMARK    2  A    between atoms: C_10  and  C_18
REMARK    3  A    between atoms: C_18  and  O_19
REMARK    4  A    between atoms: C_21  and  C_23
REMARK    5  A    between atoms: C_23  and  O_24
REMARK                            x       y       z     vdW  Elec       q    Type
REMARK                         _______ _______ _______ _____ _____    ______ ____
ROOT
ATOM      1  S   UNL     1      34.944 -24.129 -14.549  0.00  0.00    +0.080 S 
ATOM      2  O   UNL     1      35.093 -23.291 -13.378  0.00  0.00    -0.150 OA
ATOM      3  O   UNL     1      35.464 -25.477 -14.637  0.00  0.00    -0.150 OA
ATOM      4  O   UNL     1      32.062 -23.259 -16.916  0.00  0.00    -0.268 OA
ATOM      5  N   UNL     1      33.327 -24.083 -15.105  0.00  0.00    -0.145 N 
ATOM      6  C   UNL     1      35.492 -23.234 -15.940  0.00  0.00    +0.136 C 
ATOM      7  C   UNL     1      34.457 -22.903 -16.821  0.00  0.00    +0.074 C 
ATOM      8  C   UNL     1      33.131 -23.400 -16.352  0.00  0.00    +0.269 C 
ATOM      9  C   UNL     1      34.736 -22.176 -17.997  0.00  0.00    +0.006 C 
ATOM     10  C   UNL     1      36.808 -22.887 -16.150  0.00  0.00    +0.094 C 
ATOM     11  C   UNL     1      36.093 -21.812 -18.229  0.00  0.00    +0.000 C 
ATOM     12  C   UNL     1      37.102 -22.171 -17.307  0.00  0.00    +0.008 C 
ATOM     13  C   UNL     1      33.773 -21.788 -18.955  0.00  0.00    +0.000 C 
ATOM     14  C   UNL     1      36.430 -21.087 -19.384  0.00  0.00    +0.000 C 
ATOM     15  C   UNL     1      34.131 -21.067 -20.097  0.00  0.00    +0.000 C 
ATOM     16  C   UNL     1      35.457 -20.717 -20.311  0.00  0.00    +0.000 C 
ENDROOT
BRANCH  10  18
ATOM     17  O   UNL     1      38.838 -23.969 -15.491  0.00  0.00    -0.245 OA
ATOM     18  C   UNL     1      37.878 -23.236 -15.230  0.00  0.00    +0.339 C 
BRANCH  18  19
ATOM     19  O   UNL     1      37.722 -22.660 -14.007  0.00  0.00    -0.477 OA
ATOM     20  H   UNL     1      37.530 -21.745 -13.940  0.00  0.00    +0.295 HD
ENDBRANCH  18  19
ENDBRANCH  10  18
BRANCH   5  21
ATOM     21  C   UNL     1      32.219 -24.698 -14.360  0.00  0.00    +0.228 C 
BRANCH  21  23
ATOM     22  O   UNL     1      30.298 -23.253 -13.988  0.00  0.00    -0.248 OA
ATOM     23  C   UNL     1      31.429 -23.612 -13.695  0.00  0.00    +0.336 C 
BRANCH  23  24
ATOM     24  O   UNL     1      32.157 -23.060 -12.690  0.00  0.00    -0.479 OA
ATOM     25  H   UNL     1      31.805 -23.020 -11.823  0.00  0.00    +0.295 HD
ENDBRANCH  23  24
ENDBRANCH  21  23
ENDBRANCH   5  21
TORSDOF 5
ENDMDL
MODEL 3
REMARK VINA RESULT:      -9.3      2.684      5.597
REMARK  Name = 11660035
REMARK  5 active torsions:
REMARK  status: ('A' for Active; 'I' for Inactive)
REMARK    1  A    between atoms: N_5  and  C_21
REMARK    2  A    between atoms: C_10  and  C_18
REMARK    3  A    between atoms: C_18  and  O_19
REMARK    4  A    between atoms: C_21  and  C_23
REMARK    5  A    between atoms: C_23  and  O_24
REMARK                            x       y       z     vdW  Elec       q    Type
REMARK                         _______ _______ _______ _____ _____    ______ ____
ROOT
ATOM      1  S   UNL     1      35.809 -24.280 -13.249  0.00  0.00    +0.080 S 
ATOM      2  O   UNL     1      35.670 -25.718 -13.168  0.00  0.00    -0.150 OA
ATOM      3  O   UNL     1      35.458 -23.382 -12.169  0.00  0.00    -0.150 OA
ATOM      4  O   UNL     1      38.314 -22.948 -15.822  0.00  0.00    -0.268 OA
ATOM      5  N   UNL     1      37.346 -23.870 -13.880  0.00  0.00    -0.145 N 
ATOM      6  C   UNL     1      35.019 -23.730 -14.702  0.00  0.00    +0.136 C 
ATOM      7  C   UNL     1      35.913 -23.239 -15.660  0.00  0.00    +0.074 C 
ATOM      8  C   UNL     1      37.331 -23.306 -15.200  0.00  0.00    +0.269 C 
ATOM      9  C   UNL     1      35.432 -22.757 -16.894  0.00  0.00    +0.006 C 
ATOM     10  C   UNL     1      33.656 -23.776 -14.890  0.00  0.00    +0.094 C 
ATOM     11  C   UNL     1      34.024 -22.796 -17.102  0.00  0.00    +0.000 C 
ATOM     12  C   UNL     1      33.163 -23.303 -16.102  0.00  0.00    +0.008 C 
ATOM     13  C   UNL     1      36.241 -22.240 -17.931  0.00  0.00    +0.000 C 
ATOM     14  C   UNL     1      33.487 -22.329 -18.313  0.00  0.00    +0.000 C 
ATOM     15  C   UNL     1      35.685 -21.781 -19.128  0.00  0.00    +0.000 C 
ATOM     16  C   UNL     1      34.311 -21.826 -19.318  0.00  0.00    +0.000 C 
ENDROOT
BRANCH  10  18
ATOM     17  O   UNL     1      32.174 -23.613 -13.019  0.00  0.00    -0.245 OA
ATOM     18  C   UNL     1      32.734 -24.288 -13.890  0.00  0.00    +0.339 C 
BRANCH  18  19
ATOM     19  O   UNL     1      32.534 -25.629 -14.002  0.00  0.00    -0.477 OA
ATOM     20  H   UNL     1      33.113 -26.227 -13.570  0.00  0.00    +0.295 HD
ENDBRANCH  18  19
ENDBRANCH  10  18
BRANCH   5  21
ATOM     21  C   UNL     1      38.590 -24.081 -13.126  0.00  0.00    +0.228 C 
BRANCH  21  23
ATOM     22  O   UNL     1      38.972 -26.384 -13.810  0.00  0.00    -0.248 OA
ATOM     23  C   UNL     1      39.339 -25.220 -13.749  0.00  0.00    +0.336 C 
BRANCH  23  24
ATOM     24  O   UNL     1      40.519 -24.776 -14.254  0.00  0.00    -0.479 OA
ATOM     25  H   UNL     1      40.527 -24.110 -14.913  0.00  0.00    +0.295 HD
ENDBRANCH  23  24
ENDBRANCH  21  23
ENDBRANCH   5  21
TORSDOF 5
ENDMDL
MODEL 4
REMARK VINA RESULT:      -9.1      1.626      4.842
REMARK  Name = 11660035
REMARK  5 active torsions:
REMARK  status: ('A' for Active; 'I' for Inactive)
REMARK    1  A    between atoms: N_5  and  C_21
REMARK    2  A    between atoms: C_10  and  C_18
REMARK    3  A    between atoms: C_18  and  O_19
REMARK    4  A    between atoms: C_21  and  C_23
REMARK    5  A    between atoms: C_23  and  O_24
REMARK                            x       y       z     vdW  Elec       q    Type
REMARK                         _______ _______ _______ _____ _____    ______ ____
ROOT
ATOM      1  S   UNL     1      33.166 -24.033 -13.816  0.00  0.00    +0.080 S 
ATOM      2  O   UNL     1      32.857 -25.446 -13.861  0.00  0.00    -0.150 OA
ATOM      3  O   UNL     1      32.427 -23.080 -13.014  0.00  0.00    -0.150 OA
ATOM      4  O   UNL     1      36.728 -23.030 -14.799  0.00  0.00    -0.268 OA
ATOM      5  N   UNL     1      34.847 -23.802 -13.606  0.00  0.00    -0.145 N 
ATOM      6  C   UNL     1      33.245 -23.433 -15.450  0.00  0.00    +0.136 C 
ATOM      7  C   UNL     1      34.537 -23.061 -15.835  0.00  0.00    +0.074 C 
ATOM      8  C   UNL     1      35.536 -23.268 -14.746  0.00  0.00    +0.269 C 
ATOM      9  C   UNL     1      34.770 -22.556 -17.131  0.00  0.00    +0.006 C 
ATOM     10  C   UNL     1      32.149 -23.338 -16.279  0.00  0.00    +0.094 C 
ATOM     11  C   UNL     1      33.647 -22.450 -17.999  0.00  0.00    +0.000 C 
ATOM     12  C   UNL     1      32.361 -22.841 -17.561  0.00  0.00    +0.008 C 
ATOM     13  C   UNL     1      36.031 -22.151 -17.626  0.00  0.00    +0.000 C 
ATOM     14  C   UNL     1      33.819 -21.955 -19.301  0.00  0.00    +0.000 C 
ATOM     15  C   UNL     1      36.179 -21.660 -18.926  0.00  0.00    +0.000 C 
ATOM     16  C   UNL     1      35.075 -21.563 -19.762  0.00  0.00    +0.000 C 
ENDROOT
BRANCH  10  18
ATOM     17  O   UNL     1      30.269 -24.809 -16.125  0.00  0.00    -0.245 OA
ATOM     18  C   UNL     1      30.809 -23.727 -15.871  0.00  0.00    +0.339 C 
BRANCH  18  19
ATOM     19  O   UNL     1      30.178 -22.756 -15.157  0.00  0.00    -0.477 OA
ATOM     20  H   UNL     1      30.569 -21.908 -15.072  0.00  0.00    +0.295 HD
ENDBRANCH  18  19
ENDBRANCH  10  18
BRANCH   5  21
ATOM     21  C   UNL     1      35.538 -24.129 -12.349  0.00  0.00    +0.228 C 
BRANCH  21  23
ATOM     22  O   UNL     1      37.007 -25.959 -11.712  0.00  0.00    -0.248 OA
ATOM     23  C   UNL     1      36.292 -25.410 -12.537  0.00  0.00    +0.336 C 
BRANCH  23  24
ATOM     24  O   UNL     1      36.069 -25.899 -13.785  0.00  0.00    -0.479 OA
ATOM     25  H   UNL     1      36.587 -25.600 -14.505  0.00  0.00    +0.295 HD
ENDBRANCH  23  24
ENDBRANCH  21  23
ENDBRANCH   5  21
TORSDOF 5
ENDMDL
MODEL 5
REMARK VINA RESULT:      -8.9      2.825      6.188
REMARK  Name = 11660035
REMARK  5 active torsions:
REMARK  status: ('A' for Active; 'I' for Inactive)
REMARK    1  A    between atoms: N_5  and  C_21
REMARK    2  A    between atoms: C_10  and  C_18
REMARK    3  A    between atoms: C_18  and  O_19
REMARK    4  A    between atoms: C_21  and  C_23
REMARK    5  A    between atoms: C_23  and  O_24
REMARK                            x       y       z     vdW  Elec       q    Type
REMARK                         _______ _______ _______ _____ _____    ______ ____
ROOT
ATOM      1  S   UNL     1      36.366 -23.632 -15.054  0.00  0.00    +0.080 S 
ATOM      2  O   UNL     1      36.874 -22.279 -14.985  0.00  0.00    -0.150 OA
ATOM      3  O   UNL     1      36.981 -24.676 -15.846  0.00  0.00    -0.150 OA
ATOM      4  O   UNL     1      34.168 -24.782 -12.136  0.00  0.00    -0.268 OA
ATOM      5  N   UNL     1      36.017 -24.213 -13.483  0.00  0.00    -0.145 N 
ATOM      6  C   UNL     1      34.671 -23.565 -15.451  0.00  0.00    +0.136 C 
ATOM      7  C   UNL     1      33.845 -23.980 -14.401  0.00  0.00    +0.074 C 
ATOM      8  C   UNL     1      34.622 -24.381 -13.192  0.00  0.00    +0.269 C 
ATOM      9  C   UNL     1      32.444 -23.982 -14.562  0.00  0.00    +0.006 C 
ATOM     10  C   UNL     1      34.192 -23.145 -16.672  0.00  0.00    +0.094 C 
ATOM     11  C   UNL     1      31.934 -23.552 -15.820  0.00  0.00    +0.000 C 
ATOM     12  C   UNL     1      32.811 -23.143 -16.849  0.00  0.00    +0.008 C 
ATOM     13  C   UNL     1      31.517 -24.379 -13.572  0.00  0.00    +0.000 C 
ATOM     14  C   UNL     1      30.547 -23.534 -16.038  0.00  0.00    +0.000 C 
ATOM     15  C   UNL     1      30.140 -24.352 -13.811  0.00  0.00    +0.000 C 
ATOM     16  C   UNL     1      29.657 -23.930 -15.041  0.00  0.00    +0.000 C 
ENDROOT
BRANCH  10  18
ATOM     17  O   UNL     1      36.113 -22.088 -17.629  0.00  0.00    -0.245 OA
ATOM     18  C   UNL     1      35.057 -22.716 -17.759  0.00  0.00    +0.339 C 
BRANCH  18  19
ATOM     19  O   UNL     1      34.580 -23.081 -18.980  0.00  0.00    -0.477 OA
ATOM     20  H   UNL     1      35.149 -23.492 -19.601  0.00  0.00    +0.295 HD
ENDBRANCH  18  19
ENDBRANCH  10  18
BRANCH   5  21
ATOM     21  C   UNL     1      37.070 -24.516 -12.502  0.00  0.00    +0.228 C 
BRANCH  21  23
ATOM     22  O   UNL     1      37.472 -22.296 -11.594  0.00  0.00    -0.248 OA
ATOM     23  C   UNL     1      37.073 -23.443 -11.456  0.00  0.00    +0.336 C 
BRANCH  23  24
ATOM     24  O   UNL     1      36.557 -23.926 -10.296  0.00  0.00    -0.479 OA
ATOM     25  H   UNL     1      37.011 -23.791  -9.488  0.00  0.00    +0.295 HD
ENDBRANCH  23  24
ENDBRANCH  21  23
ENDBRANCH   5  21
TORSDOF 5
ENDMDL
MODEL 6
REMARK VINA RESULT:      -8.5      9.447     12.302
REMARK  Name = 11660035
REMARK  5 active torsions:
REMARK  status: ('A' for Active; 'I' for Inactive)
REMARK    1  A    between atoms: N_5  and  C_21
REMARK    2  A    between atoms: C_10  and  C_18
REMARK    3  A    between atoms: C_18  and  O_19
REMARK    4  A    between atoms: C_21  and  C_23
REMARK    5  A    between atoms: C_23  and  O_24
REMARK                            x       y       z     vdW  Elec       q    Type
REMARK                         _______ _______ _______ _____ _____    ______ ____
ROOT
ATOM      1  S   UNL     1      34.601 -16.844 -24.795  0.00  0.00    +0.080 S 
ATOM      2  O   UNL     1      35.769 -16.374 -25.509  0.00  0.00    -0.150 OA
ATOM      3  O   UNL     1      33.656 -17.791 -25.347  0.00  0.00    -0.150 OA
ATOM      4  O   UNL     1      34.709 -16.577 -20.977  0.00  0.00    -0.268 OA
ATOM      5  N   UNL     1      35.024 -17.294 -23.200  0.00  0.00    -0.145 N 
ATOM      6  C   UNL     1      33.716 -15.459 -24.215  0.00  0.00    +0.136 C 
ATOM      7  C   UNL     1      33.741 -15.338 -22.821  0.00  0.00    +0.074 C 
ATOM      8  C   UNL     1      34.522 -16.429 -22.170  0.00  0.00    +0.269 C 
ATOM      9  C   UNL     1      33.073 -14.267 -22.194  0.00  0.00    +0.006 C 
ATOM     10  C   UNL     1      33.062 -14.573 -25.042  0.00  0.00    +0.094 C 
ATOM     11  C   UNL     1      32.390 -13.343 -23.036  0.00  0.00    +0.000 C 
ATOM     12  C   UNL     1      32.396 -13.511 -24.439  0.00  0.00    +0.008 C 
ATOM     13  C   UNL     1      33.031 -14.046 -20.798  0.00  0.00    +0.000 C 
ATOM     14  C   UNL     1      31.707 -12.257 -22.466  0.00  0.00    +0.000 C 
ATOM     15  C   UNL     1      32.346 -12.957 -20.253  0.00  0.00    +0.000 C 
ATOM     16  C   UNL     1      31.685 -12.065 -21.086  0.00  0.00    +0.000 C 
ENDROOT
BRANCH  10  18
ATOM     17  O   UNL     1      33.668 -13.997 -27.284  0.00  0.00    -0.245 OA
ATOM     18  C   UNL     1      33.041 -14.706 -26.490  0.00  0.00    +0.339 C 
BRANCH  18  19
ATOM     19  O   UNL     1      32.237 -15.721 -26.908  0.00  0.00    -0.477 OA
ATOM     20  H   UNL     1      31.862 -16.311 -26.284  0.00  0.00    +0.295 HD
ENDBRANCH  18  19
ENDBRANCH  10  18
BRANCH   5  21
ATOM     21  C   UNL     1      35.843 -18.478 -22.906  0.00  0.00    +0.228 C 
BRANCH  21  23
ATOM     22  O   UNL     1      34.104 -19.815 -21.855  0.00  0.00    -0.248 OA
ATOM     23  C   UNL     1      35.187 -19.252 -21.802  0.00  0.00    +0.336 C 
BRANCH  23  24
ATOM     24  O   UNL     1      35.980 -19.244 -20.699  0.00  0.00    -0.479 OA
ATOM     25  H   UNL     1      36.668 -19.873 -20.612  0.00  0.00    +0.295 HD
ENDBRANCH  23  24
ENDBRANCH  21  23
ENDBRANCH   5  21
TORSDOF 5
ENDMDL
MODEL 7
REMARK VINA RESULT:      -8.4      2.530      5.254
REMARK  Name = 11660035
REMARK  5 active torsions:
REMARK  status: ('A' for Active; 'I' for Inactive)
REMARK    1  A    between atoms: N_5  and  C_21
REMARK    2  A    between atoms: C_10  and  C_18
REMARK    3  A    between atoms: C_18  and  O_19
REMARK    4  A    between atoms: C_21  and  C_23
REMARK    5  A    between atoms: C_23  and  O_24
REMARK                            x       y       z     vdW  Elec       q    Type
REMARK                         _______ _______ _______ _____ _____    ______ ____
ROOT
ATOM      1  S   UNL     1      35.359 -23.211 -15.781  0.00  0.00    +0.080 S 
ATOM      2  O   UNL     1      36.140 -24.418 -15.950  0.00  0.00    -0.150 OA
ATOM      3  O   UNL     1      35.823 -22.059 -15.038  0.00  0.00    -0.150 OA
ATOM      4  O   UNL     1      32.617 -22.572 -18.377  0.00  0.00    -0.268 OA
ATOM      5  N   UNL     1      34.699 -22.720 -17.280  0.00  0.00    -0.145 N 
ATOM      6  C   UNL     1      33.783 -23.654 -15.184  0.00  0.00    +0.136 C 
ATOM      7  C   UNL     1      32.762 -23.431 -16.115  0.00  0.00    +0.074 C 
ATOM      8  C   UNL     1      33.275 -22.865 -17.396  0.00  0.00    +0.269 C 
ATOM      9  C   UNL     1      31.426 -23.739 -15.785  0.00  0.00    +0.006 C 
ATOM     10  C   UNL     1      33.564 -24.172 -13.927  0.00  0.00    +0.094 C 
ATOM     11  C   UNL     1      31.184 -24.274 -14.488  0.00  0.00    +0.000 C 
ATOM     12  C   UNL     1      32.250 -24.481 -13.585  0.00  0.00    +0.008 C 
ATOM     13  C   UNL     1      30.319 -23.557 -16.644  0.00  0.00    +0.000 C 
ATOM     14  C   UNL     1      29.873 -24.600 -14.105  0.00  0.00    +0.000 C 
ATOM     15  C   UNL     1      29.023 -23.888 -16.242  0.00  0.00    +0.000 C 
ATOM     16  C   UNL     1      28.800 -24.409 -14.975  0.00  0.00    +0.000 C 
ENDROOT
BRANCH  10  18
ATOM     17  O   UNL     1      34.791 -23.775 -11.912  0.00  0.00    -0.245 OA
ATOM     18  C   UNL     1      34.630 -24.400 -12.966  0.00  0.00    +0.339 C 
BRANCH  18  19
ATOM     19  O   UNL     1      35.468 -25.403 -13.345  0.00  0.00    -0.477 OA
ATOM     20  H   UNL     1      36.395 -25.265 -13.345  0.00  0.00    +0.295 HD
ENDBRANCH  18  19
ENDBRANCH  10  18
BRANCH   5  21
ATOM     21  C   UNL     1      35.528 -22.189 -18.372  0.00  0.00    +0.228 C 
BRANCH  21  23
ATOM     22  O   UNL     1      37.094 -20.468 -17.660  0.00  0.00    -0.248 OA
ATOM     23  C   UNL     1      36.798 -21.647 -17.788  0.00  0.00    +0.336 C 
BRANCH  23  24
ATOM     24  O   UNL     1      37.604 -22.671 -17.405  0.00  0.00    -0.479 OA
ATOM     25  H   UNL     1      37.614 -22.953 -16.512  0.00  0.00    +0.295 HD
ENDBRANCH  23  24
ENDBRANCH  21  23
ENDBRANCH   5  21
TORSDOF 5
ENDMDL
MODEL 8
REMARK VINA RESULT:      -8.2      9.871     12.137
REMARK  Name = 11660035
REMARK  5 active torsions:
REMARK  status: ('A' for Active; 'I' for Inactive)
REMARK    1  A    between atoms: N_5  and  C_21
REMARK    2  A    between atoms: C_10  and  C_18
REMARK    3  A    between atoms: C_18  and  O_19
REMARK    4  A    between atoms: C_21  and  C_23
REMARK    5  A    between atoms: C_23  and  O_24
REMARK                            x       y       z     vdW  Elec       q    Type
REMARK                         _______ _______ _______ _____ _____    ______ ____
ROOT
ATOM      1  S   UNL     1      33.300 -13.621 -23.512  0.00  0.00    +0.080 S 
ATOM      2  O   UNL     1      34.399 -12.694 -23.341  0.00  0.00    -0.150 OA
ATOM      3  O   UNL     1      31.995 -13.428 -22.917  0.00  0.00    -0.150 OA
ATOM      4  O   UNL     1      33.451 -15.901 -26.585  0.00  0.00    -0.268 OA
ATOM      5  N   UNL     1      33.140 -14.049 -25.160  0.00  0.00    -0.145 N 
ATOM      6  C   UNL     1      33.860 -15.220 -23.108  0.00  0.00    +0.136 C 
ATOM      7  C   UNL     1      33.925 -16.074 -24.214  0.00  0.00    +0.074 C 
ATOM      8  C   UNL     1      33.497 -15.403 -25.475  0.00  0.00    +0.269 C 
ATOM      9  C   UNL     1      34.362 -17.405 -24.054  0.00  0.00    +0.006 C 
ATOM     10  C   UNL     1      34.206 -15.605 -21.831  0.00  0.00    +0.094 C 
ATOM     11  C   UNL     1      34.721 -17.818 -22.740  0.00  0.00    +0.000 C 
ATOM     12  C   UNL     1      34.637 -16.916 -21.655  0.00  0.00    +0.008 C 
ATOM     13  C   UNL     1      34.467 -18.353 -25.098  0.00  0.00    +0.000 C 
ATOM     14  C   UNL     1      35.163 -19.133 -22.521  0.00  0.00    +0.000 C 
ATOM     15  C   UNL     1      34.910 -19.656 -24.857  0.00  0.00    +0.000 C 
ATOM     16  C   UNL     1      35.257 -20.045 -23.571  0.00  0.00    +0.000 C 
ENDROOT
BRANCH  10  18
ATOM     17  O   UNL     1      35.103 -14.186 -20.127  0.00  0.00    -0.245 OA
ATOM     18  C   UNL     1      34.135 -14.711 -20.686  0.00  0.00    +0.339 C 
BRANCH  18  19
ATOM     19  O   UNL     1      32.858 -14.497 -20.270  0.00  0.00    -0.477 OA
ATOM     20  H   UNL     1      32.219 -14.163 -20.869  0.00  0.00    +0.295 HD
ENDBRANCH  18  19
ENDBRANCH  10  18
BRANCH   5  21
ATOM     21  C   UNL     1      32.672 -13.099 -26.180  0.00  0.00    +0.228 C 
BRANCH  21  23
ATOM     22  O   UNL     1      34.481 -11.502 -26.484  0.00  0.00    -0.248 OA
ATOM     23  C   UNL     1      33.866 -12.492 -26.852  0.00  0.00    +0.336 C 
BRANCH  23  24
ATOM     24  O   UNL     1      34.187 -13.208 -27.961  0.00  0.00    -0.479 OA
ATOM     25  H   UNL     1      33.885 -14.090 -28.053  0.00  0.00    +0.295 HD
ENDBRANCH  23  24
ENDBRANCH  21  23
ENDBRANCH   5  21
TORSDOF 5
ENDMDL
MODEL 9
REMARK VINA RESULT:      -8.0      2.545      5.317
REMARK  Name = 11660035
REMARK  5 active torsions:
REMARK  status: ('A' for Active; 'I' for Inactive)
REMARK    1  A    between atoms: N_5  and  C_21
REMARK    2  A    between atoms: C_10  and  C_18
REMARK    3  A    between atoms: C_18  and  O_19
REMARK    4  A    between atoms: C_21  and  C_23
REMARK    5  A    between atoms: C_23  and  O_24
REMARK                            x       y       z     vdW  Elec       q    Type
REMARK                         _______ _______ _______ _____ _____    ______ ____
ROOT
ATOM      1  S   UNL     1      34.751 -23.890 -14.755  0.00  0.00    +0.080 S 
ATOM      2  O   UNL     1      34.529 -25.316 -14.871  0.00  0.00    -0.150 OA
ATOM      3  O   UNL     1      34.265 -23.095 -13.647  0.00  0.00    -0.150 OA
ATOM      4  O   UNL     1      37.722 -22.461 -16.703  0.00  0.00    -0.268 OA
ATOM      5  N   UNL     1      36.391 -23.521 -15.071  0.00  0.00    -0.145 N 
ATOM      6  C   UNL     1      34.249 -23.131 -16.241  0.00  0.00    +0.136 C 
ATOM      7  C   UNL     1      35.317 -22.601 -16.973  0.00  0.00    +0.074 C 
ATOM      8  C   UNL     1      36.630 -22.816 -16.298  0.00  0.00    +0.269 C 
ATOM      9  C   UNL     1      35.078 -21.954 -18.202  0.00  0.00    +0.006 C 
ATOM     10  C   UNL     1      32.938 -23.062 -16.654  0.00  0.00    +0.094 C 
ATOM     11  C   UNL     1      33.726 -21.873 -18.642  0.00  0.00    +0.000 C 
ATOM     12  C   UNL     1      32.683 -22.425 -17.865  0.00  0.00    +0.008 C 
ATOM     13  C   UNL     1      36.077 -21.383 -19.024  0.00  0.00    +0.000 C 
ATOM     14  C   UNL     1      33.428 -21.239 -19.859  0.00  0.00    +0.000 C 
ATOM     15  C   UNL     1      35.757 -20.758 -20.231  0.00  0.00    +0.000 C 
ATOM     16  C   UNL     1      34.435 -20.686 -20.648  0.00  0.00    +0.000 C 
ENDROOT
BRANCH  10  18
ATOM     17  O   UNL     1      31.053 -22.966 -15.183  0.00  0.00    -0.245 OA
ATOM     18  C   UNL     1      31.834 -23.616 -15.887  0.00  0.00    +0.339 C 
BRANCH  18  19
ATOM     19  O   UNL     1      31.733 -24.966 -16.018  0.00  0.00    -0.477 OA
ATOM     20  H   UNL     1      31.410 -25.483 -15.306  0.00  0.00    +0.295 HD
ENDBRANCH  18  19
ENDBRANCH  10  18
BRANCH   5  21
ATOM     21  C   UNL     1      37.476 -23.900 -14.155  0.00  0.00    +0.228 C 
BRANCH  21  23
ATOM     22  O   UNL     1      39.569 -24.875 -14.921  0.00  0.00    -0.248 OA
ATOM     23  C   UNL     1      38.350 -24.908 -14.838  0.00  0.00    +0.336 C 
BRANCH  23  24
ATOM     24  O   UNL     1      37.585 -25.896 -15.371  0.00  0.00    -0.479 OA
ATOM     25  H   UNL     1      37.964 -26.514 -15.965  0.00  0.00    +0.295 HD
ENDBRANCH  23  24
ENDBRANCH  21  23
ENDBRANCH   5  21
TORSDOF 5
ENDMDL
