MODEL 1
REMARK VINA RESULT:     -10.0      0.000      0.000
REMARK  Name = 68205
REMARK  5 active torsions:
REMARK  status: ('A' for Active; 'I' for Inactive)
REMARK    1  A    between atoms: C_2  and  C_15
REMARK    2  A    between atoms: C_13  and  O_25
REMARK    3  A    between atoms: C_14  and  O_27
REMARK    4  A    between atoms: C_16  and  C_22
REMARK    5  A    between atoms: C_22  and  O_23
REMARK                            x       y       z     vdW  Elec       q    Type
REMARK                         _______ _______ _______ _____ _____    ______ ____
ROOT
ATOM      1  O   UNL     1      32.922 -22.801 -17.022  0.00  0.00    -0.470 OA
ATOM      2  C   UNL     1      34.751 -23.473 -14.837  0.00  0.00    +0.003 C 
ATOM      3  C   UNL     1      33.310 -23.936 -14.894  0.00  0.00    +0.022 C 
ATOM      4  C   UNL     1      35.207 -22.900 -16.164  0.00  0.00    +0.034 C 
ATOM      5  C   UNL     1      32.487 -23.563 -15.963  0.00  0.00    +0.213 C 
ATOM      6  C   UNL     1      34.274 -22.588 -17.158  0.00  0.00    +0.142 C 
ATOM      7  C   UNL     1      32.774 -24.734 -13.871  0.00  0.00    +0.003 C 
ATOM      8  C   UNL     1      36.568 -22.662 -16.411  0.00  0.00    +0.006 C 
ATOM      9  C   UNL     1      31.148 -23.959 -15.999  0.00  0.00    +0.058 C 
ATOM     10  C   UNL     1      34.689 -22.025 -18.369  0.00  0.00    +0.073 C 
ATOM     11  C   UNL     1      31.438 -25.135 -13.912  0.00  0.00    +0.036 C 
ATOM     12  C   UNL     1      36.982 -22.108 -17.623  0.00  0.00    +0.037 C 
ATOM     13  C   UNL     1      30.625 -24.745 -14.974  0.00  0.00    +0.133 C 
ATOM     14  C   UNL     1      36.043 -21.786 -18.599  0.00  0.00    +0.137 C 
ENDROOT
BRANCH   2  15
ATOM     15  C   UNL     1      35.651 -24.593 -14.405  0.00  0.00    +0.006 C 
ATOM     16  C   UNL     1      36.266 -24.575 -13.157  0.00  0.00    +0.075 C 
ATOM     17  C   UNL     1      35.861 -25.656 -15.279  0.00  0.00    +0.000 C 
ATOM     18  C   UNL     1      37.096 -25.628 -12.778  0.00  0.00    +0.006 C 
ATOM     19  C   UNL     1      36.693 -26.710 -14.901  0.00  0.00    +0.000 C 
ATOM     20  C   UNL     1      37.310 -26.696 -13.651  0.00  0.00    +0.000 C 
BRANCH  16  22
ATOM     21  O   UNL     1      36.859 -22.556 -12.016  0.00  0.00    -0.245 OA
ATOM     22  C   UNL     1      36.060 -23.472 -12.226  0.00  0.00    +0.338 C 
BRANCH  22  23
ATOM     23  O   UNL     1      34.861 -23.551 -11.587  0.00  0.00    -0.477 OA
ATOM     24  H   UNL     1      34.834 -23.645 -10.654  0.00  0.00    +0.295 HD
ENDBRANCH  22  23
ENDBRANCH  16  22
ENDBRANCH   2  15
BRANCH  13  25
ATOM     25  O   UNL     1      29.320 -25.133 -15.010  0.00  0.00    -0.506 OA
ATOM     26  H   UNL     1      29.044 -25.891 -14.535  0.00  0.00    +0.292 HD
ENDBRANCH  13  25
BRANCH  14  27
ATOM     27  O   UNL     1      36.447 -21.241 -19.779  0.00  0.00    -0.505 OA
ATOM     28  H   UNL     1      36.541 -21.783 -20.537  0.00  0.00    +0.292 HD
ENDBRANCH  14  27
TORSDOF 5
ENDMDL
MODEL 2
REMARK VINA RESULT:      -8.7     10.353     14.316
REMARK  Name = 68205
REMARK  5 active torsions:
REMARK  status: ('A' for Active; 'I' for Inactive)
REMARK    1  A    between atoms: C_2  and  C_15
REMARK    2  A    between atoms: C_13  and  O_25
REMARK    3  A    between atoms: C_14  and  O_27
REMARK    4  A    between atoms: C_16  and  C_22
REMARK    5  A    between atoms: C_22  and  O_23
REMARK                            x       y       z     vdW  Elec       q    Type
REMARK                         _______ _______ _______ _____ _____    ______ ____
ROOT
ATOM      1  O   UNL     1      32.874 -14.384 -20.872  0.00  0.00    -0.470 OA
ATOM      2  C   UNL     1      32.807 -13.504 -23.663  0.00  0.00    +0.003 C 
ATOM      3  C   UNL     1      32.243 -12.692 -22.516  0.00  0.00    +0.022 C 
ATOM      4  C   UNL     1      33.665 -14.650 -23.167  0.00  0.00    +0.034 C 
ATOM      5  C   UNL     1      32.296 -13.182 -21.206  0.00  0.00    +0.213 C 
ATOM      6  C   UNL     1      33.635 -15.027 -21.820  0.00  0.00    +0.142 C 
ATOM      7  C   UNL     1      31.648 -11.442 -22.749  0.00  0.00    +0.003 C 
ATOM      8  C   UNL     1      34.493 -15.359 -24.052  0.00  0.00    +0.006 C 
ATOM      9  C   UNL     1      31.744 -12.451 -20.152  0.00  0.00    +0.058 C 
ATOM     10  C   UNL     1      34.399 -16.107 -21.369  0.00  0.00    +0.073 C 
ATOM     11  C   UNL     1      31.104 -10.709 -21.693  0.00  0.00    +0.036 C 
ATOM     12  C   UNL     1      35.261 -16.432 -23.598  0.00  0.00    +0.037 C 
ATOM     13  C   UNL     1      31.149 -11.214 -20.396  0.00  0.00    +0.133 C 
ATOM     14  C   UNL     1      35.211 -16.808 -22.259  0.00  0.00    +0.137 C 
ENDROOT
BRANCH   2  15
ATOM     15  C   UNL     1      33.581 -12.628 -24.602  0.00  0.00    +0.006 C 
ATOM     16  C   UNL     1      33.602 -12.889 -25.969  0.00  0.00    +0.075 C 
ATOM     17  C   UNL     1      34.281 -11.544 -24.081  0.00  0.00    +0.000 C 
ATOM     18  C   UNL     1      34.328 -12.059 -26.823  0.00  0.00    +0.006 C 
ATOM     19  C   UNL     1      35.009 -10.714 -24.934  0.00  0.00    +0.000 C 
ATOM     20  C   UNL     1      35.032 -10.972 -26.304  0.00  0.00    +0.000 C 
BRANCH  16  22
ATOM     21  O   UNL     1      33.331 -15.154 -26.692  0.00  0.00    -0.245 OA
ATOM     22  C   UNL     1      32.876 -14.018 -26.538  0.00  0.00    +0.338 C 
BRANCH  22  23
ATOM     23  O   UNL     1      31.605 -13.690 -26.894  0.00  0.00    -0.477 OA
ATOM     24  H   UNL     1      31.428 -12.854 -27.280  0.00  0.00    +0.295 HD
ENDBRANCH  22  23
ENDBRANCH  16  22
ENDBRANCH   2  15
BRANCH  13  25
ATOM     25  O   UNL     1      30.614 -10.500 -19.368  0.00  0.00    -0.506 OA
ATOM     26  H   UNL     1      30.091  -9.745 -19.546  0.00  0.00    +0.292 HD
ENDBRANCH  13  25
BRANCH  14  27
ATOM     27  O   UNL     1      35.957 -17.858 -21.818  0.00  0.00    -0.505 OA
ATOM     28  H   UNL     1      36.556 -17.740 -21.108  0.00  0.00    +0.292 HD
ENDBRANCH  14  27
TORSDOF 5
ENDMDL
MODEL 3
REMARK VINA RESULT:      -8.2      1.652      5.020
REMARK  Name = 68205
REMARK  5 active torsions:
REMARK  status: ('A' for Active; 'I' for Inactive)
REMARK    1  A    between atoms: C_2  and  C_15
REMARK    2  A    between atoms: C_13  and  O_25
REMARK    3  A    between atoms: C_14  and  O_27
REMARK    4  A    between atoms: C_16  and  C_22
REMARK    5  A    between atoms: C_22  and  O_23
REMARK                            x       y       z     vdW  Elec       q    Type
REMARK                         _______ _______ _______ _____ _____    ______ ____
ROOT
ATOM      1  O   UNL     1      33.506 -22.917 -16.800  0.00  0.00    -0.470 OA
ATOM      2  C   UNL     1      35.332 -24.477 -15.127  0.00  0.00    +0.003 C 
ATOM      3  C   UNL     1      35.793 -23.411 -16.100  0.00  0.00    +0.022 C 
ATOM      4  C   UNL     1      33.835 -24.419 -14.902  0.00  0.00    +0.034 C 
ATOM      5  C   UNL     1      34.864 -22.715 -16.881  0.00  0.00    +0.213 C 
ATOM      6  C   UNL     1      33.020 -23.663 -15.752  0.00  0.00    +0.142 C 
ATOM      7  C   UNL     1      37.158 -23.116 -16.244  0.00  0.00    +0.003 C 
ATOM      8  C   UNL     1      33.242 -25.130 -13.848  0.00  0.00    +0.006 C 
ATOM      9  C   UNL     1      35.289 -21.758 -17.805  0.00  0.00    +0.058 C 
ATOM     10  C   UNL     1      31.634 -23.639 -15.569  0.00  0.00    +0.073 C 
ATOM     11  C   UNL     1      37.581 -22.154 -17.163  0.00  0.00    +0.036 C 
ATOM     12  C   UNL     1      31.860 -25.098 -13.661  0.00  0.00    +0.037 C 
ATOM     13  C   UNL     1      36.647 -21.478 -17.945  0.00  0.00    +0.133 C 
ATOM     14  C   UNL     1      31.056 -24.356 -14.523  0.00  0.00    +0.137 C 
ENDROOT
BRANCH   2  15
ATOM     15  C   UNL     1      36.069 -24.360 -13.826  0.00  0.00    +0.006 C 
ATOM     16  C   UNL     1      37.010 -25.314 -13.449  0.00  0.00    +0.075 C 
ATOM     17  C   UNL     1      35.796 -23.275 -12.998  0.00  0.00    +0.000 C 
ATOM     18  C   UNL     1      37.683 -25.182 -12.235  0.00  0.00    +0.006 C 
ATOM     19  C   UNL     1      36.468 -23.144 -11.782  0.00  0.00    +0.000 C 
ATOM     20  C   UNL     1      37.412 -24.097 -11.402  0.00  0.00    +0.000 C 
BRANCH  16  22
ATOM     21  O   UNL     1      38.438 -26.768 -14.703  0.00  0.00    -0.245 OA
ATOM     22  C   UNL     1      37.314 -26.457 -14.301  0.00  0.00    +0.338 C 
BRANCH  22  23
ATOM     23  O   UNL     1      36.204 -27.175 -14.620  0.00  0.00    -0.477 OA
ATOM     24  H   UNL     1      35.447 -27.137 -14.068  0.00  0.00    +0.295 HD
ENDBRANCH  22  23
ENDBRANCH  16  22
ENDBRANCH   2  15
BRANCH  13  25
ATOM     25  O   UNL     1      37.062 -20.543 -18.843  0.00  0.00    -0.506 OA
ATOM     26  H   UNL     1      37.430 -19.736 -18.543  0.00  0.00    +0.292 HD
ENDBRANCH  13  25
BRANCH  14  27
ATOM     27  O   UNL     1      29.707 -24.328 -14.342  0.00  0.00    -0.505 OA
ATOM     28  H   UNL     1      29.338 -23.809 -13.656  0.00  0.00    +0.292 HD
ENDBRANCH  14  27
TORSDOF 5
ENDMDL
MODEL 4
REMARK VINA RESULT:      -7.6     10.248     14.270
REMARK  Name = 68205
REMARK  5 active torsions:
REMARK  status: ('A' for Active; 'I' for Inactive)
REMARK    1  A    between atoms: C_2  and  C_15
REMARK    2  A    between atoms: C_13  and  O_25
REMARK    3  A    between atoms: C_14  and  O_27
REMARK    4  A    between atoms: C_16  and  C_22
REMARK    5  A    between atoms: C_22  and  O_23
REMARK                            x       y       z     vdW  Elec       q    Type
REMARK                         _______ _______ _______ _____ _____    ______ ____
ROOT
ATOM      1  O   UNL     1      33.190 -14.298 -20.676  0.00  0.00    -0.470 OA
ATOM      2  C   UNL     1      33.977 -13.242 -23.290  0.00  0.00    +0.003 C 
ATOM      3  C   UNL     1      34.341 -14.630 -22.805  0.00  0.00    +0.022 C 
ATOM      4  C   UNL     1      32.921 -12.602 -22.412  0.00  0.00    +0.034 C 
ATOM      5  C   UNL     1      33.943 -15.064 -21.535  0.00  0.00    +0.213 C 
ATOM      6  C   UNL     1      32.606 -13.154 -21.166  0.00  0.00    +0.142 C 
ATOM      7  C   UNL     1      35.092 -15.497 -23.614  0.00  0.00    +0.003 C 
ATOM      8  C   UNL     1      32.251 -11.441 -22.829  0.00  0.00    +0.006 C 
ATOM      9  C   UNL     1      34.309 -16.330 -21.071  0.00  0.00    +0.058 C 
ATOM     10  C   UNL     1      31.659 -12.543 -20.338  0.00  0.00    +0.073 C 
ATOM     11  C   UNL     1      35.450 -16.765 -23.153  0.00  0.00    +0.036 C 
ATOM     12  C   UNL     1      31.300 -10.838 -22.006  0.00  0.00    +0.037 C 
ATOM     13  C   UNL     1      35.061 -17.179 -21.881  0.00  0.00    +0.133 C 
ATOM     14  C   UNL     1      31.007 -11.386 -20.760  0.00  0.00    +0.137 C 
ENDROOT
BRANCH   2  15
ATOM     15  C   UNL     1      33.525 -13.282 -24.720  0.00  0.00    +0.006 C 
ATOM     16  C   UNL     1      33.857 -12.259 -25.603  0.00  0.00    +0.075 C 
ATOM     17  C   UNL     1      32.766 -14.366 -25.151  0.00  0.00    +0.000 C 
ATOM     18  C   UNL     1      33.427 -12.320 -26.928  0.00  0.00    +0.006 C 
ATOM     19  C   UNL     1      32.334 -14.427 -26.476  0.00  0.00    +0.000 C 
ATOM     20  C   UNL     1      32.665 -13.405 -27.364  0.00  0.00    +0.000 C 
BRANCH  16  22
ATOM     21  O   UNL     1      34.521 -10.517 -24.103  0.00  0.00    -0.245 OA
ATOM     22  C   UNL     1      34.652 -11.115 -25.175  0.00  0.00    +0.338 C 
BRANCH  22  23
ATOM     23  O   UNL     1      35.583 -10.756 -26.098  0.00  0.00    -0.477 OA
ATOM     24  H   UNL     1      35.336 -10.653 -26.997  0.00  0.00    +0.295 HD
ENDBRANCH  22  23
ENDBRANCH  16  22
ENDBRANCH   2  15
BRANCH  13  25
ATOM     25  O   UNL     1      35.415 -18.414 -21.430  0.00  0.00    -0.506 OA
ATOM     26  H   UNL     1      36.307 -18.594 -21.210  0.00  0.00    +0.292 HD
ENDBRANCH  13  25
BRANCH  14  27
ATOM     27  O   UNL     1      30.082 -10.794 -19.956  0.00  0.00    -0.505 OA
ATOM     28  H   UNL     1      29.181 -10.776 -20.213  0.00  0.00    +0.292 HD
ENDBRANCH  14  27
TORSDOF 5
ENDMDL
