MODEL 1
REMARK VINA RESULT:      -8.0      0.000      0.000
REMARK  Name = 449093
REMARK  4 active torsions:
REMARK  status: ('A' for Active; 'I' for Inactive)
REMARK    1  A    between atoms: N_1  and  C_14
REMARK    2  A    between atoms: C_14  and  C_15
REMARK    3  A    between atoms: C_16  and  C_18
REMARK    4  A    between atoms: C_18  and  O_19
REMARK                            x       y       z     vdW  Elec       q    Type
REMARK                         _______ _______ _______ _____ _____    ______ ____
ROOT
ATOM      1  N   UNL     1      35.343 -17.358 -21.807  0.00  0.00    -0.317 N 
ATOM      2  N   UNL     1      34.154 -14.676 -22.734  0.00  0.00    -0.270 NA
ATOM      3  N   UNL     1      34.984 -17.992 -24.090  0.00  0.00    -0.232 NA
ATOM      4  N   UNL     1      33.477 -14.269 -24.818  0.00  0.00    -0.307 N 
ATOM      5  N   UNL     1      34.022 -16.457 -25.725  0.00  0.00    -0.232 NA
ATOM      6  C   UNL     1      34.385 -15.827 -23.430  0.00  0.00    +0.164 C 
ATOM      7  C   UNL     1      34.912 -17.070 -23.092  0.00  0.00    +0.124 C 
ATOM      8  C   UNL     1      33.956 -15.550 -24.721  0.00  0.00    +0.125 C 
ATOM      9  C   UNL     1      33.610 -13.771 -23.607  0.00  0.00    +0.163 C 
ATOM     10  C   UNL     1      34.544 -17.635 -25.321  0.00  0.00    +0.252 C 
ATOM     11  H   UNL     1      35.267 -16.654 -21.123  0.00  0.00    +0.148 HD
ATOM     12  H   UNL     1      34.343 -14.524 -21.780  0.00  0.00    +0.126 HD
ATOM     13  H   UNL     1      33.114 -13.820 -25.615  0.00  0.00    +0.149 HD
ENDROOT
BRANCH   1  14
ATOM     14  C   UNL     1      35.895 -18.631 -21.413  0.00  0.00    +0.114 C 
BRANCH  14  15
ATOM     15  C   UNL     1      34.802 -19.482 -20.843  0.00  0.00    -0.011 C 
ATOM     16  C   UNL     1      34.931 -20.628 -20.145  0.00  0.00    -0.018 C 
ATOM     17  C   UNL     1      36.244 -21.277 -19.803  0.00  0.00    +0.029 C 
BRANCH  16  18
ATOM     18  C   UNL     1      33.706 -21.372 -19.677  0.00  0.00    +0.159 C 
BRANCH  18  19
ATOM     19  O   UNL     1      32.578 -20.509 -19.727  0.00  0.00    -0.378 OA
ATOM     20  H   UNL     1      32.861 -19.623 -20.003  0.00  0.00    +0.211 HD
ENDBRANCH  18  19
ENDBRANCH  16  18
ENDBRANCH  14  15
ENDBRANCH   1  14
TORSDOF 4
ENDMDL
MODEL 2
REMARK VINA RESULT:      -7.9      1.121      2.196
REMARK  Name = 449093
REMARK  4 active torsions:
REMARK  status: ('A' for Active; 'I' for Inactive)
REMARK    1  A    between atoms: N_1  and  C_14
REMARK    2  A    between atoms: C_14  and  C_15
REMARK    3  A    between atoms: C_16  and  C_18
REMARK    4  A    between atoms: C_18  and  O_19
REMARK                            x       y       z     vdW  Elec       q    Type
REMARK                         _______ _______ _______ _____ _____    ______ ____
ROOT
ATOM      1  N   UNL     1      34.782 -17.872 -23.547  0.00  0.00    -0.317 N 
ATOM      2  N   UNL     1      33.602 -16.112 -25.778  0.00  0.00    -0.270 NA
ATOM      3  N   UNL     1      34.717 -15.836 -22.284  0.00  0.00    -0.232 NA
ATOM      4  N   UNL     1      33.156 -13.941 -25.546  0.00  0.00    -0.307 N 
ATOM      5  N   UNL     1      33.890 -13.747 -23.236  0.00  0.00    -0.232 NA
ATOM      6  C   UNL     1      33.958 -15.796 -24.498  0.00  0.00    +0.164 C 
ATOM      7  C   UNL     1      34.492 -16.521 -23.438  0.00  0.00    +0.124 C 
ATOM      8  C   UNL     1      33.672 -14.442 -24.378  0.00  0.00    +0.125 C 
ATOM      9  C   UNL     1      33.127 -14.969 -26.365  0.00  0.00    +0.163 C 
ATOM     10  C   UNL     1      34.408 -14.517 -22.255  0.00  0.00    +0.252 C 
ATOM     11  H   UNL     1      34.600 -18.319 -24.405  0.00  0.00    +0.148 HD
ATOM     12  H   UNL     1      33.673 -16.999 -26.200  0.00  0.00    +0.126 HD
ATOM     13  H   UNL     1      32.870 -13.017 -25.730  0.00  0.00    +0.149 HD
ENDROOT
BRANCH   1  14
ATOM     14  C   UNL     1      35.336 -18.662 -22.475  0.00  0.00    +0.114 C 
BRANCH  14  15
ATOM     15  C   UNL     1      34.217 -19.214 -21.645  0.00  0.00    -0.011 C 
ATOM     16  C   UNL     1      34.299 -20.128 -20.658  0.00  0.00    -0.018 C 
ATOM     17  C   UNL     1      35.576 -20.778 -20.199  0.00  0.00    +0.029 C 
BRANCH  16  18
ATOM     18  C   UNL     1      33.052 -20.593 -19.951  0.00  0.00    +0.159 C 
BRANCH  18  19
ATOM     19  O   UNL     1      33.053 -22.012 -19.870  0.00  0.00    -0.378 OA
ATOM     20  H   UNL     1      32.862 -22.386 -20.744  0.00  0.00    +0.211 HD
ENDBRANCH  18  19
ENDBRANCH  16  18
ENDBRANCH  14  15
ENDBRANCH   1  14
TORSDOF 4
ENDMDL
MODEL 3
REMARK VINA RESULT:      -7.9      2.045      2.575
REMARK  Name = 449093
REMARK  4 active torsions:
REMARK  status: ('A' for Active; 'I' for Inactive)
REMARK    1  A    between atoms: N_1  and  C_14
REMARK    2  A    between atoms: C_14  and  C_15
REMARK    3  A    between atoms: C_16  and  C_18
REMARK    4  A    between atoms: C_18  and  O_19
REMARK                            x       y       z     vdW  Elec       q    Type
REMARK                         _______ _______ _______ _____ _____    ______ ____
ROOT
ATOM      1  N   UNL     1      35.433 -18.849 -20.739  0.00  0.00    -0.317 N 
ATOM      2  N   UNL     1      34.794 -15.847 -20.519  0.00  0.00    -0.270 NA
ATOM      3  N   UNL     1      35.222 -18.440 -23.092  0.00  0.00    -0.232 NA
ATOM      4  N   UNL     1      34.416 -14.523 -22.272  0.00  0.00    -0.307 N 
ATOM      5  N   UNL     1      34.697 -16.229 -23.981  0.00  0.00    -0.232 NA
ATOM      6  C   UNL     1      34.911 -16.647 -21.619  0.00  0.00    +0.164 C 
ATOM      7  C   UNL     1      35.193 -17.996 -21.806  0.00  0.00    +0.124 C 
ATOM      8  C   UNL     1      34.671 -15.803 -22.696  0.00  0.00    +0.125 C 
ATOM      9  C   UNL     1      34.498 -14.584 -20.961  0.00  0.00    +0.163 C 
ATOM     10  C   UNL     1      34.978 -17.547 -24.080  0.00  0.00    +0.252 C 
ATOM     11  H   UNL     1      35.399 -18.475 -19.829  0.00  0.00    +0.148 HD
ATOM     12  H   UNL     1      34.903 -16.127 -19.582  0.00  0.00    +0.126 HD
ATOM     13  H   UNL     1      34.217 -13.735 -22.826  0.00  0.00    +0.149 HD
ENDROOT
BRANCH   1  14
ATOM     14  C   UNL     1      35.729 -20.253 -20.886  0.00  0.00    +0.114 C 
BRANCH  14  15
ATOM     15  C   UNL     1      36.428 -20.737 -19.653  0.00  0.00    -0.011 C 
ATOM     16  C   UNL     1      35.958 -21.589 -18.722  0.00  0.00    -0.018 C 
ATOM     17  C   UNL     1      34.597 -22.228 -18.757  0.00  0.00    +0.029 C 
BRANCH  16  18
ATOM     18  C   UNL     1      36.799 -21.938 -17.520  0.00  0.00    +0.159 C 
BRANCH  18  19
ATOM     19  O   UNL     1      37.320 -20.748 -16.944  0.00  0.00    -0.378 OA
ATOM     20  H   UNL     1      38.241 -20.629 -17.224  0.00  0.00    +0.211 HD
ENDBRANCH  18  19
ENDBRANCH  16  18
ENDBRANCH  14  15
ENDBRANCH   1  14
TORSDOF 4
ENDMDL
MODEL 4
REMARK VINA RESULT:      -7.8      1.280      2.430
REMARK  Name = 449093
REMARK  4 active torsions:
REMARK  status: ('A' for Active; 'I' for Inactive)
REMARK    1  A    between atoms: N_1  and  C_14
REMARK    2  A    between atoms: C_14  and  C_15
REMARK    3  A    between atoms: C_16  and  C_18
REMARK    4  A    between atoms: C_18  and  O_19
REMARK                            x       y       z     vdW  Elec       q    Type
REMARK                         _______ _______ _______ _____ _____    ______ ____
ROOT
ATOM      1  N   UNL     1      35.690 -18.779 -21.884  0.00  0.00    -0.317 N 
ATOM      2  N   UNL     1      34.630 -17.142 -24.263  0.00  0.00    -0.270 NA
ATOM      3  N   UNL     1      35.136 -16.809 -20.636  0.00  0.00    -0.232 NA
ATOM      4  N   UNL     1      33.843 -15.064 -24.093  0.00  0.00    -0.307 N 
ATOM      5  N   UNL     1      34.173 -14.833 -21.695  0.00  0.00    -0.232 NA
ATOM      6  C   UNL     1      34.732 -16.815 -22.942  0.00  0.00    +0.164 C 
ATOM      7  C   UNL     1      35.195 -17.486 -21.815  0.00  0.00    +0.124 C 
ATOM      8  C   UNL     1      34.238 -15.520 -22.860  0.00  0.00    +0.125 C 
ATOM      9  C   UNL     1      34.091 -16.062 -24.912  0.00  0.00    +0.163 C 
ATOM     10  C   UNL     1      34.637 -15.549 -20.649  0.00  0.00    +0.252 C 
ATOM     11  H   UNL     1      35.711 -19.222 -22.763  0.00  0.00    +0.148 HD
ATOM     12  H   UNL     1      34.894 -17.996 -24.674  0.00  0.00    +0.126 HD
ATOM     13  H   UNL     1      33.458 -14.185 -24.314  0.00  0.00    +0.149 HD
ENDROOT
BRANCH   1  14
ATOM     14  C   UNL     1      36.180 -19.511 -20.742  0.00  0.00    +0.114 C 
BRANCH  14  15
ATOM     15  C   UNL     1      35.158 -20.530 -20.340  0.00  0.00    -0.011 C 
ATOM     16  C   UNL     1      35.259 -21.456 -19.367  0.00  0.00    -0.018 C 
ATOM     17  C   UNL     1      36.461 -21.637 -18.480  0.00  0.00    +0.029 C 
BRANCH  16  18
ATOM     18  C   UNL     1      34.132 -22.429 -19.126  0.00  0.00    +0.159 C 
BRANCH  18  19
ATOM     19  O   UNL     1      32.966 -21.983 -19.807  0.00  0.00    -0.378 OA
ATOM     20  H   UNL     1      32.547 -21.271 -19.297  0.00  0.00    +0.211 HD
ENDBRANCH  18  19
ENDBRANCH  16  18
ENDBRANCH  14  15
ENDBRANCH   1  14
TORSDOF 4
ENDMDL
MODEL 5
REMARK VINA RESULT:      -7.8      7.543     11.375
REMARK  Name = 449093
REMARK  4 active torsions:
REMARK  status: ('A' for Active; 'I' for Inactive)
REMARK    1  A    between atoms: N_1  and  C_14
REMARK    2  A    between atoms: C_14  and  C_15
REMARK    3  A    between atoms: C_16  and  C_18
REMARK    4  A    between atoms: C_18  and  O_19
REMARK                            x       y       z     vdW  Elec       q    Type
REMARK                         _______ _______ _______ _____ _____    ______ ____
ROOT
ATOM      1  N   UNL     1      37.413 -23.121 -16.148  0.00  0.00    -0.317 N 
ATOM      2  N   UNL     1      39.816 -24.830 -15.268  0.00  0.00    -0.270 NA
ATOM      3  N   UNL     1      36.303 -24.250 -14.349  0.00  0.00    -0.232 NA
ATOM      4  N   UNL     1      39.759 -26.279 -13.575  0.00  0.00    -0.307 N 
ATOM      5  N   UNL     1      37.438 -25.903 -12.959  0.00  0.00    -0.232 NA
ATOM      6  C   UNL     1      38.547 -24.765 -14.768  0.00  0.00    +0.164 C 
ATOM      7  C   UNL     1      37.414 -24.031 -15.102  0.00  0.00    +0.124 C 
ATOM      8  C   UNL     1      38.536 -25.674 -13.718  0.00  0.00    +0.125 C 
ATOM      9  C   UNL     1      40.505 -25.749 -14.520  0.00  0.00    +0.163 C 
ATOM     10  C   UNL     1      36.382 -25.154 -13.343  0.00  0.00    +0.252 C 
ATOM     11  H   UNL     1      38.245 -23.002 -16.661  0.00  0.00    +0.148 HD
ATOM     12  H   UNL     1      40.170 -24.311 -16.025  0.00  0.00    +0.126 HD
ATOM     13  H   UNL     1      40.021 -26.957 -12.912  0.00  0.00    +0.149 HD
ENDROOT
BRANCH   1  14
ATOM     14  C   UNL     1      36.263 -22.339 -16.529  0.00  0.00    +0.114 C 
BRANCH  14  15
ATOM     15  C   UNL     1      36.526 -21.699 -17.857  0.00  0.00    -0.011 C 
ATOM     16  C   UNL     1      35.713 -21.671 -18.932  0.00  0.00    -0.018 C 
ATOM     17  C   UNL     1      34.349 -22.303 -18.989  0.00  0.00    +0.029 C 
BRANCH  16  18
ATOM     18  C   UNL     1      36.164 -21.003 -20.206  0.00  0.00    +0.159 C 
BRANCH  18  19
ATOM     19  O   UNL     1      36.780 -19.759 -19.898  0.00  0.00    -0.378 OA
ATOM     20  H   UNL     1      37.744 -19.858 -19.934  0.00  0.00    +0.211 HD
ENDBRANCH  18  19
ENDBRANCH  16  18
ENDBRANCH  14  15
ENDBRANCH   1  14
TORSDOF 4
ENDMDL
MODEL 6
REMARK VINA RESULT:      -7.8      5.941      9.137
REMARK  Name = 449093
REMARK  4 active torsions:
REMARK  status: ('A' for Active; 'I' for Inactive)
REMARK    1  A    between atoms: N_1  and  C_14
REMARK    2  A    between atoms: C_14  and  C_15
REMARK    3  A    between atoms: C_16  and  C_18
REMARK    4  A    between atoms: C_18  and  O_19
REMARK                            x       y       z     vdW  Elec       q    Type
REMARK                         _______ _______ _______ _____ _____    ______ ____
ROOT
ATOM      1  N   UNL     1      32.569 -22.441 -18.393  0.00  0.00    -0.317 N 
ATOM      2  N   UNL     1      29.845 -22.559 -16.967  0.00  0.00    -0.270 NA
ATOM      3  N   UNL     1      33.386 -23.306 -16.312  0.00  0.00    -0.232 NA
ATOM      4  N   UNL     1      29.566 -23.271 -14.873  0.00  0.00    -0.307 N 
ATOM      5  N   UNL     1      31.904 -23.769 -14.430  0.00  0.00    -0.232 NA
ATOM      6  C   UNL     1      31.090 -22.899 -16.523  0.00  0.00    +0.164 C 
ATOM      7  C   UNL     1      32.358 -22.877 -17.094  0.00  0.00    +0.124 C 
ATOM      8  C   UNL     1      30.891 -23.338 -15.220  0.00  0.00    +0.125 C 
ATOM      9  C   UNL     1      28.965 -22.800 -15.944  0.00  0.00    +0.163 C 
ATOM     10  C   UNL     1      33.100 -23.718 -15.053  0.00  0.00    +0.252 C 
ATOM     11  H   UNL     1      31.789 -22.141 -18.914  0.00  0.00    +0.148 HD
ATOM     12  H   UNL     1      29.621 -22.206 -17.858  0.00  0.00    +0.126 HD
ATOM     13  H   UNL     1      29.155 -23.521 -14.014  0.00  0.00    +0.149 HD
ENDROOT
BRANCH   1  14
ATOM     14  C   UNL     1      33.864 -22.401 -19.024  0.00  0.00    +0.114 C 
BRANCH  14  15
ATOM     15  C   UNL     1      33.951 -21.178 -19.886  0.00  0.00    -0.011 C 
ATOM     16  C   UNL     1      35.062 -20.523 -20.275  0.00  0.00    -0.018 C 
ATOM     17  C   UNL     1      36.464 -20.919 -19.898  0.00  0.00    +0.029 C 
BRANCH  16  18
ATOM     18  C   UNL     1      34.952 -19.280 -21.121  0.00  0.00    +0.159 C 
BRANCH  18  19
ATOM     19  O   UNL     1      35.848 -18.291 -20.630  0.00  0.00    -0.378 OA
ATOM     20  H   UNL     1      36.726 -18.683 -20.507  0.00  0.00    +0.211 HD
ENDBRANCH  18  19
ENDBRANCH  16  18
ENDBRANCH  14  15
ENDBRANCH   1  14
TORSDOF 4
ENDMDL
MODEL 7
REMARK VINA RESULT:      -7.5      4.241      6.556
REMARK  Name = 449093
REMARK  4 active torsions:
REMARK  status: ('A' for Active; 'I' for Inactive)
REMARK    1  A    between atoms: N_1  and  C_14
REMARK    2  A    between atoms: C_14  and  C_15
REMARK    3  A    between atoms: C_16  and  C_18
REMARK    4  A    between atoms: C_18  and  O_19
REMARK                            x       y       z     vdW  Elec       q    Type
REMARK                         _______ _______ _______ _____ _____    ______ ____
ROOT
ATOM      1  N   UNL     1      33.105 -22.544 -18.589  0.00  0.00    -0.317 N 
ATOM      2  N   UNL     1      33.110 -20.261 -20.652  0.00  0.00    -0.270 NA
ATOM      3  N   UNL     1      35.469 -22.147 -18.554  0.00  0.00    -0.232 NA
ATOM      4  N   UNL     1      34.946 -19.186 -21.316  0.00  0.00    -0.307 N 
ATOM      5  N   UNL     1      36.514 -20.427 -19.933  0.00  0.00    -0.232 NA
ATOM      6  C   UNL     1      34.141 -20.831 -19.963  0.00  0.00    +0.164 C 
ATOM      7  C   UNL     1      34.226 -21.854 -19.025  0.00  0.00    +0.124 C 
ATOM      8  C   UNL     1      35.271 -20.148 -20.393  0.00  0.00    +0.125 C 
ATOM      9  C   UNL     1      33.641 -19.280 -21.448  0.00  0.00    +0.163 C 
ATOM     10  C   UNL     1      36.516 -21.428 -19.027  0.00  0.00    +0.252 C 
ATOM     11  H   UNL     1      32.230 -22.292 -18.964  0.00  0.00    +0.148 HD
ATOM     12  H   UNL     1      32.159 -20.508 -20.587  0.00  0.00    +0.126 HD
ATOM     13  H   UNL     1      35.554 -18.564 -21.776  0.00  0.00    +0.149 HD
ENDROOT
BRANCH   1  14
ATOM     14  C   UNL     1      33.147 -23.610 -17.619  0.00  0.00    +0.114 C 
BRANCH  14  15
ATOM     15  C   UNL     1      32.297 -23.237 -16.444  0.00  0.00    -0.011 C 
ATOM     16  C   UNL     1      32.611 -23.334 -15.138  0.00  0.00    -0.018 C 
ATOM     17  C   UNL     1      33.920 -23.855 -14.610  0.00  0.00    +0.029 C 
BRANCH  16  18
ATOM     18  C   UNL     1      31.607 -22.939 -14.085  0.00  0.00    +0.159 C 
BRANCH  18  19
ATOM     19  O   UNL     1      32.241 -22.902 -12.813  0.00  0.00    -0.378 OA
ATOM     20  H   UNL     1      33.096 -22.451 -12.892  0.00  0.00    +0.211 HD
ENDBRANCH  18  19
ENDBRANCH  16  18
ENDBRANCH  14  15
ENDBRANCH   1  14
TORSDOF 4
ENDMDL
MODEL 8
REMARK VINA RESULT:      -7.5      3.610      6.533
REMARK  Name = 449093
REMARK  4 active torsions:
REMARK  status: ('A' for Active; 'I' for Inactive)
REMARK    1  A    between atoms: N_1  and  C_14
REMARK    2  A    between atoms: C_14  and  C_15
REMARK    3  A    between atoms: C_16  and  C_18
REMARK    4  A    between atoms: C_18  and  O_19
REMARK                            x       y       z     vdW  Elec       q    Type
REMARK                         _______ _______ _______ _____ _____    ______ ____
ROOT
ATOM      1  N   UNL     1      33.045 -14.039 -22.480  0.00  0.00    -0.317 N 
ATOM      2  N   UNL     1      34.851 -16.523 -22.301  0.00  0.00    -0.270 NA
ATOM      3  N   UNL     1      33.057 -14.539 -24.824  0.00  0.00    -0.232 NA
ATOM      4  N   UNL     1      35.466 -17.745 -24.061  0.00  0.00    -0.307 N 
ATOM      5  N   UNL     1      34.283 -16.441 -25.737  0.00  0.00    -0.232 NA
ATOM      6  C   UNL     1      34.267 -15.932 -23.384  0.00  0.00    +0.164 C 
ATOM      7  C   UNL     1      33.447 -14.821 -23.551  0.00  0.00    +0.124 C 
ATOM      8  C   UNL     1      34.663 -16.708 -24.465  0.00  0.00    +0.125 C 
ATOM      9  C   UNL     1      35.558 -17.605 -22.756  0.00  0.00    +0.163 C 
ATOM     10  C   UNL     1      33.490 -15.351 -25.819  0.00  0.00    +0.252 C 
ATOM     11  H   UNL     1      33.358 -14.288 -21.580  0.00  0.00    +0.148 HD
ATOM     12  H   UNL     1      34.778 -16.226 -21.365  0.00  0.00    +0.126 HD
ATOM     13  H   UNL     1      35.879 -18.440 -24.622  0.00  0.00    +0.149 HD
ENDROOT
BRANCH   1  14
ATOM     14  C   UNL     1      32.197 -12.879 -22.608  0.00  0.00    +0.114 C 
BRANCH  14  15
ATOM     15  C   UNL     1      31.829 -12.390 -21.241  0.00  0.00    -0.011 C 
ATOM     16  C   UNL     1      31.592 -11.120 -20.859  0.00  0.00    -0.018 C 
ATOM     17  C   UNL     1      31.658  -9.926 -21.771  0.00  0.00    +0.029 C 
BRANCH  16  18
ATOM     18  C   UNL     1      31.265 -10.810 -19.420  0.00  0.00    +0.159 C 
BRANCH  18  19
ATOM     19  O   UNL     1      32.235  -9.913 -18.895  0.00  0.00    -0.378 OA
ATOM     20  H   UNL     1      32.963 -10.419 -18.502  0.00  0.00    +0.211 HD
ENDBRANCH  18  19
ENDBRANCH  16  18
ENDBRANCH  14  15
ENDBRANCH   1  14
TORSDOF 4
ENDMDL
MODEL 9
REMARK VINA RESULT:      -7.5      6.179      9.838
REMARK  Name = 449093
REMARK  4 active torsions:
REMARK  status: ('A' for Active; 'I' for Inactive)
REMARK    1  A    between atoms: N_1  and  C_14
REMARK    2  A    between atoms: C_14  and  C_15
REMARK    3  A    between atoms: C_16  and  C_18
REMARK    4  A    between atoms: C_18  and  O_19
REMARK                            x       y       z     vdW  Elec       q    Type
REMARK                         _______ _______ _______ _____ _____    ______ ____
ROOT
ATOM      1  N   UNL     1      34.379 -22.838 -17.789  0.00  0.00    -0.317 N 
ATOM      2  N   UNL     1      35.984 -24.224 -15.560  0.00  0.00    -0.270 NA
ATOM      3  N   UNL     1      32.527 -23.225 -16.317  0.00  0.00    -0.232 NA
ATOM      4  N   UNL     1      35.086 -24.988 -13.669  0.00  0.00    -0.307 N 
ATOM      5  N   UNL     1      32.797 -24.331 -14.159  0.00  0.00    -0.232 NA
ATOM      6  C   UNL     1      34.652 -23.940 -15.643  0.00  0.00    +0.164 C 
ATOM      7  C   UNL     1      33.854 -23.325 -16.602  0.00  0.00    +0.124 C 
ATOM      8  C   UNL     1      34.114 -24.425 -14.457  0.00  0.00    +0.125 C 
ATOM      9  C   UNL     1      36.196 -24.850 -14.360  0.00  0.00    +0.163 C 
ATOM     10  C   UNL     1      32.089 -23.724 -15.136  0.00  0.00    +0.252 C 
ATOM     11  H   UNL     1      35.346 -22.938 -17.945  0.00  0.00    +0.148 HD
ATOM     12  H   UNL     1      36.667 -24.016 -16.237  0.00  0.00    +0.126 HD
ATOM     13  H   UNL     1      34.976 -25.402 -12.783  0.00  0.00    +0.149 HD
ENDROOT
BRANCH   1  14
ATOM     14  C   UNL     1      33.589 -22.195 -18.810  0.00  0.00    +0.114 C 
BRANCH  14  15
ATOM     15  C   UNL     1      34.488 -21.359 -19.669  0.00  0.00    -0.011 C 
ATOM     16  C   UNL     1      34.141 -20.323 -20.457  0.00  0.00    -0.018 C 
ATOM     17  C   UNL     1      32.738 -19.804 -20.619  0.00  0.00    +0.029 C 
BRANCH  16  18
ATOM     18  C   UNL     1      35.186 -19.616 -21.283  0.00  0.00    +0.159 C 
BRANCH  18  19
ATOM     19  O   UNL     1      35.602 -18.434 -20.612  0.00  0.00    -0.378 OA
ATOM     20  H   UNL     1      34.887 -17.778 -20.639  0.00  0.00    +0.211 HD
ENDBRANCH  18  19
ENDBRANCH  16  18
ENDBRANCH  14  15
ENDBRANCH   1  14
TORSDOF 4
ENDMDL
