MODEL 1
REMARK VINA RESULT:      -6.4      0.000      0.000
REMARK  Name = 62348
REMARK  4 active torsions:
REMARK  status: ('A' for Active; 'I' for Inactive)
REMARK    1  A    between atoms: C_1  and  C_11
REMARK    2  A    between atoms: C_3  and  O_7
REMARK    3  A    between atoms: C_5  and  O_9
REMARK    4  A    between atoms: C_11  and  O_12
REMARK                            x       y       z     vdW  Elec       q    Type
REMARK                         _______ _______ _______ _____ _____    ______ ____
ROOT
ATOM      1  C   UNL     1      35.161 -19.487 -21.042  0.00  0.00    +0.010 C 
ATOM      2  C   UNL     1      35.771 -20.452 -20.243  0.00  0.00    +0.038 C 
ATOM      3  C   UNL     1      34.992 -21.366 -19.534  0.00  0.00    +0.172 C 
ATOM      4  C   UNL     1      33.770 -19.434 -21.132  0.00  0.00    +0.001 C 
ATOM      5  C   UNL     1      33.601 -21.314 -19.624  0.00  0.00    +0.168 C 
ATOM      6  C   UNL     1      32.989 -20.348 -20.423  0.00  0.00    +0.040 C 
ENDROOT
BRANCH   3   7
ATOM      7  O   UNL     1      35.601 -22.304 -18.756  0.00  0.00    -0.468 OA
ATOM      8  C   UNL     1      36.569 -21.839 -17.817  0.00  0.00    +0.253 C 
ENDBRANCH   3   7
BRANCH   5   9
ATOM      9  O   UNL     1      32.829 -22.200 -18.935  0.00  0.00    -0.503 OA
ATOM     10  H   UNL     1      32.677 -22.076 -18.019  0.00  0.00    +0.292 HD
ENDBRANCH   5   9
BRANCH   1  11
ATOM     11  C   UNL     1      35.993 -18.510 -21.800  0.00  0.00    +0.164 C 
BRANCH  11  12
ATOM     12  O   UNL     1      35.552 -18.539 -23.152  0.00  0.00    -0.377 OA
ATOM     13  H   UNL     1      36.312 -18.420 -23.743  0.00  0.00    +0.211 HD
ENDBRANCH  11  12
ENDBRANCH   1  11
TORSDOF 4
ENDMDL
MODEL 2
REMARK VINA RESULT:      -6.2      2.852      5.846
REMARK  Name = 62348
REMARK  4 active torsions:
REMARK  status: ('A' for Active; 'I' for Inactive)
REMARK    1  A    between atoms: C_1  and  C_11
REMARK    2  A    between atoms: C_3  and  O_7
REMARK    3  A    between atoms: C_5  and  O_9
REMARK    4  A    between atoms: C_11  and  O_12
REMARK                            x       y       z     vdW  Elec       q    Type
REMARK                         _______ _______ _______ _____ _____    ______ ____
ROOT
ATOM      1  C   UNL     1      34.973 -18.678 -22.307  0.00  0.00    +0.010 C 
ATOM      2  C   UNL     1      35.077 -17.288 -22.287  0.00  0.00    +0.038 C 
ATOM      3  C   UNL     1      34.960 -16.562 -23.472  0.00  0.00    +0.172 C 
ATOM      4  C   UNL     1      34.753 -19.344 -23.513  0.00  0.00    +0.001 C 
ATOM      5  C   UNL     1      34.739 -17.228 -24.678  0.00  0.00    +0.168 C 
ATOM      6  C   UNL     1      34.636 -18.619 -24.699  0.00  0.00    +0.040 C 
ENDROOT
BRANCH   3   7
ATOM      7  O   UNL     1      35.063 -15.205 -23.440  0.00  0.00    -0.468 OA
ATOM      8  C   UNL     1      34.316 -14.521 -22.434  0.00  0.00    +0.253 C 
ENDBRANCH   3   7
BRANCH   5   9
ATOM      9  O   UNL     1      34.624 -16.531 -25.843  0.00  0.00    -0.503 OA
ATOM     10  H   UNL     1      33.969 -15.867 -25.929  0.00  0.00    +0.292 HD
ENDBRANCH   5   9
BRANCH   1  11
ATOM     11  C   UNL     1      35.099 -19.454 -21.040  0.00  0.00    +0.164 C 
BRANCH  11  12
ATOM     12  O   UNL     1      36.334 -19.083 -20.439  0.00  0.00    -0.377 OA
ATOM     13  H   UNL     1      36.640 -19.799 -19.861  0.00  0.00    +0.211 HD
ENDBRANCH  11  12
ENDBRANCH   1  11
TORSDOF 4
ENDMDL
MODEL 3
REMARK VINA RESULT:      -6.2      7.820      8.761
REMARK  Name = 62348
REMARK  4 active torsions:
REMARK  status: ('A' for Active; 'I' for Inactive)
REMARK    1  A    between atoms: C_1  and  C_11
REMARK    2  A    between atoms: C_3  and  O_7
REMARK    3  A    between atoms: C_5  and  O_9
REMARK    4  A    between atoms: C_11  and  O_12
REMARK                            x       y       z     vdW  Elec       q    Type
REMARK                         _______ _______ _______ _____ _____    ______ ____
ROOT
ATOM      1  C   UNL     1      37.032 -24.210 -13.034  0.00  0.00    +0.010 C 
ATOM      2  C   UNL     1      38.150 -24.996 -13.309  0.00  0.00    +0.038 C 
ATOM      3  C   UNL     1      38.101 -25.944 -14.331  0.00  0.00    +0.172 C 
ATOM      4  C   UNL     1      35.865 -24.371 -13.780  0.00  0.00    +0.001 C 
ATOM      5  C   UNL     1      36.934 -26.106 -15.078  0.00  0.00    +0.168 C 
ATOM      6  C   UNL     1      35.815 -25.319 -14.802  0.00  0.00    +0.040 C 
ENDROOT
BRANCH   3   7
ATOM      7  O   UNL     1      39.200 -26.707 -14.590  0.00  0.00    -0.468 OA
ATOM      8  C   UNL     1      40.465 -26.048 -14.572  0.00  0.00    +0.253 C 
ENDBRANCH   3   7
BRANCH   5   9
ATOM      9  O   UNL     1      36.874 -27.029 -16.078  0.00  0.00    -0.503 OA
ATOM     10  H   UNL     1      37.623 -27.183 -16.619  0.00  0.00    +0.292 HD
ENDBRANCH   5   9
BRANCH   1  11
ATOM     11  C   UNL     1      37.083 -23.197 -11.941  0.00  0.00    +0.164 C 
BRANCH  11  12
ATOM     12  O   UNL     1      38.455 -22.925 -11.682  0.00  0.00    -0.377 OA
ATOM     13  H   UNL     1      38.870 -22.565 -12.482  0.00  0.00    +0.211 HD
ENDBRANCH  11  12
ENDBRANCH   1  11
TORSDOF 4
ENDMDL
MODEL 4
REMARK VINA RESULT:      -6.1      5.848      9.063
REMARK  Name = 62348
REMARK  4 active torsions:
REMARK  status: ('A' for Active; 'I' for Inactive)
REMARK    1  A    between atoms: C_1  and  C_11
REMARK    2  A    between atoms: C_3  and  O_7
REMARK    3  A    between atoms: C_5  and  O_9
REMARK    4  A    between atoms: C_11  and  O_12
REMARK                            x       y       z     vdW  Elec       q    Type
REMARK                         _______ _______ _______ _____ _____    ______ ____
ROOT
ATOM      1  C   UNL     1      36.334 -24.962 -12.566  0.00  0.00    +0.010 C 
ATOM      2  C   UNL     1      35.677 -24.511 -13.710  0.00  0.00    +0.038 C 
ATOM      3  C   UNL     1      35.836 -25.189 -14.919  0.00  0.00    +0.172 C 
ATOM      4  C   UNL     1      37.151 -26.091 -12.630  0.00  0.00    +0.001 C 
ATOM      5  C   UNL     1      36.653 -26.318 -14.983  0.00  0.00    +0.168 C 
ATOM      6  C   UNL     1      37.311 -26.769 -13.839  0.00  0.00    +0.040 C 
ENDROOT
BRANCH   3   7
ATOM      7  O   UNL     1      35.189 -24.738 -16.029  0.00  0.00    -0.468 OA
ATOM      8  C   UNL     1      34.597 -23.442 -15.954  0.00  0.00    +0.253 C 
ENDBRANCH   3   7
BRANCH   5   9
ATOM      9  O   UNL     1      36.817 -26.987 -16.158  0.00  0.00    -0.503 OA
ATOM     10  H   UNL     1      37.466 -27.659 -16.227  0.00  0.00    +0.292 HD
ENDBRANCH   5   9
BRANCH   1  11
ATOM     11  C   UNL     1      36.164 -24.238 -11.273  0.00  0.00    +0.164 C 
BRANCH  11  12
ATOM     12  O   UNL     1      35.324 -25.038 -10.449  0.00  0.00    -0.377 OA
ATOM     13  H   UNL     1      35.826 -25.801 -10.121  0.00  0.00    +0.211 HD
ENDBRANCH  11  12
ENDBRANCH   1  11
TORSDOF 4
ENDMDL
MODEL 5
REMARK VINA RESULT:      -6.0      3.043      4.670
REMARK  Name = 62348
REMARK  4 active torsions:
REMARK  status: ('A' for Active; 'I' for Inactive)
REMARK    1  A    between atoms: C_1  and  C_11
REMARK    2  A    between atoms: C_3  and  O_7
REMARK    3  A    between atoms: C_5  and  O_9
REMARK    4  A    between atoms: C_11  and  O_12
REMARK                            x       y       z     vdW  Elec       q    Type
REMARK                         _______ _______ _______ _____ _____    ______ ____
ROOT
ATOM      1  C   UNL     1      34.730 -16.932 -23.876  0.00  0.00    +0.010 C 
ATOM      2  C   UNL     1      35.150 -17.865 -22.928  0.00  0.00    +0.038 C 
ATOM      3  C   UNL     1      35.218 -17.509 -21.582  0.00  0.00    +0.172 C 
ATOM      4  C   UNL     1      34.378 -15.643 -23.478  0.00  0.00    +0.001 C 
ATOM      5  C   UNL     1      34.866 -16.219 -21.182  0.00  0.00    +0.168 C 
ATOM      6  C   UNL     1      34.445 -15.286 -22.131  0.00  0.00    +0.040 C 
ENDROOT
BRANCH   3   7
ATOM      7  O   UNL     1      35.631 -18.429 -20.666  0.00  0.00    -0.468 OA
ATOM      8  C   UNL     1      35.143 -19.761 -20.820  0.00  0.00    +0.253 C 
ENDBRANCH   3   7
BRANCH   5   9
ATOM      9  O   UNL     1      34.929 -15.859 -19.870  0.00  0.00    -0.503 OA
ATOM     10  H   UNL     1      34.436 -16.334 -19.230  0.00  0.00    +0.292 HD
ENDBRANCH   5   9
BRANCH   1  11
ATOM     11  C   UNL     1      34.658 -17.312 -25.316  0.00  0.00    +0.164 C 
BRANCH  11  12
ATOM     12  O   UNL     1      34.152 -16.187 -26.024  0.00  0.00    -0.377 OA
ATOM     13  H   UNL     1      33.542 -16.487 -26.716  0.00  0.00    +0.211 HD
ENDBRANCH  11  12
ENDBRANCH   1  11
TORSDOF 4
ENDMDL
MODEL 6
REMARK VINA RESULT:      -6.0      3.061      4.510
REMARK  Name = 62348
REMARK  4 active torsions:
REMARK  status: ('A' for Active; 'I' for Inactive)
REMARK    1  A    between atoms: C_1  and  C_11
REMARK    2  A    between atoms: C_3  and  O_7
REMARK    3  A    between atoms: C_5  and  O_9
REMARK    4  A    between atoms: C_11  and  O_12
REMARK                            x       y       z     vdW  Elec       q    Type
REMARK                         _______ _______ _______ _____ _____    ______ ____
ROOT
ATOM      1  C   UNL     1      34.860 -17.377 -24.009  0.00  0.00    +0.010 C 
ATOM      2  C   UNL     1      34.969 -16.650 -22.825  0.00  0.00    +0.038 C 
ATOM      3  C   UNL     1      35.059 -17.317 -21.603  0.00  0.00    +0.172 C 
ATOM      4  C   UNL     1      34.839 -18.771 -23.974  0.00  0.00    +0.001 C 
ATOM      5  C   UNL     1      35.039 -18.712 -21.566  0.00  0.00    +0.168 C 
ATOM      6  C   UNL     1      34.929 -19.439 -22.752  0.00  0.00    +0.040 C 
ENDROOT
BRANCH   3   7
ATOM      7  O   UNL     1      35.166 -16.596 -20.452  0.00  0.00    -0.468 OA
ATOM      8  C   UNL     1      34.548 -15.310 -20.434  0.00  0.00    +0.253 C 
ENDBRANCH   3   7
BRANCH   5   9
ATOM      9  O   UNL     1      35.124 -19.375 -20.380  0.00  0.00    -0.503 OA
ATOM     10  H   UNL     1      34.712 -19.023 -19.616  0.00  0.00    +0.292 HD
ENDBRANCH   5   9
BRANCH   1  11
ATOM     11  C   UNL     1      34.763 -16.664 -25.316  0.00  0.00    +0.164 C 
BRANCH  11  12
ATOM     12  O   UNL     1      33.563 -17.097 -25.945  0.00  0.00    -0.377 OA
ATOM     13  H   UNL     1      33.779 -17.699 -26.675  0.00  0.00    +0.211 HD
ENDBRANCH  11  12
ENDBRANCH   1  11
TORSDOF 4
ENDMDL
MODEL 7
REMARK VINA RESULT:      -5.9      4.658      7.190
REMARK  Name = 62348
REMARK  4 active torsions:
REMARK  status: ('A' for Active; 'I' for Inactive)
REMARK    1  A    between atoms: C_1  and  C_11
REMARK    2  A    between atoms: C_3  and  O_7
REMARK    3  A    between atoms: C_5  and  O_9
REMARK    4  A    between atoms: C_11  and  O_12
REMARK                            x       y       z     vdW  Elec       q    Type
REMARK                         _______ _______ _______ _____ _____    ______ ____
ROOT
ATOM      1  C   UNL     1      34.659 -16.629 -22.571  0.00  0.00    +0.010 C 
ATOM      2  C   UNL     1      34.013 -15.423 -22.843  0.00  0.00    +0.038 C 
ATOM      3  C   UNL     1      33.661 -15.101 -24.153  0.00  0.00    +0.172 C 
ATOM      4  C   UNL     1      34.953 -17.512 -23.609  0.00  0.00    +0.001 C 
ATOM      5  C   UNL     1      33.955 -15.984 -25.192  0.00  0.00    +0.168 C 
ATOM      6  C   UNL     1      34.602 -17.190 -24.920  0.00  0.00    +0.040 C 
ENDROOT
BRANCH   3   7
ATOM      7  O   UNL     1      33.031 -13.920 -24.406  0.00  0.00    -0.468 OA
ATOM      8  C   UNL     1      33.666 -12.732 -23.936  0.00  0.00    +0.253 C 
ENDBRANCH   3   7
BRANCH   5   9
ATOM      9  O   UNL     1      33.618 -15.680 -26.476  0.00  0.00    -0.503 OA
ATOM     10  H   UNL     1      34.129 -16.014 -27.187  0.00  0.00    +0.292 HD
ENDBRANCH   5   9
BRANCH   1  11
ATOM     11  C   UNL     1      35.035 -16.974 -21.170  0.00  0.00    +0.164 C 
BRANCH  11  12
ATOM     12  O   UNL     1      34.916 -15.786 -20.396  0.00  0.00    -0.377 OA
ATOM     13  H   UNL     1      34.818 -16.019 -19.459  0.00  0.00    +0.211 HD
ENDBRANCH  11  12
ENDBRANCH   1  11
TORSDOF 4
ENDMDL
MODEL 8
REMARK VINA RESULT:      -5.9      5.787      7.653
REMARK  Name = 62348
REMARK  4 active torsions:
REMARK  status: ('A' for Active; 'I' for Inactive)
REMARK    1  A    between atoms: C_1  and  C_11
REMARK    2  A    between atoms: C_3  and  O_7
REMARK    3  A    between atoms: C_5  and  O_9
REMARK    4  A    between atoms: C_11  and  O_12
REMARK                            x       y       z     vdW  Elec       q    Type
REMARK                         _______ _______ _______ _____ _____    ______ ____
ROOT
ATOM      1  C   UNL     1      29.354 -23.494 -16.070  0.00  0.00    +0.010 C 
ATOM      2  C   UNL     1      30.675 -23.051 -16.084  0.00  0.00    +0.038 C 
ATOM      3  C   UNL     1      31.642 -23.717 -15.331  0.00  0.00    +0.172 C 
ATOM      4  C   UNL     1      28.997 -24.603 -15.303  0.00  0.00    +0.001 C 
ATOM      5  C   UNL     1      31.287 -24.826 -14.564  0.00  0.00    +0.168 C 
ATOM      6  C   UNL     1      29.964 -25.270 -14.549  0.00  0.00    +0.040 C 
ENDROOT
BRANCH   3   7
ATOM      7  O   UNL     1      32.930 -23.275 -15.353  0.00  0.00    -0.468 OA
ATOM      8  C   UNL     1      33.616 -23.335 -16.603  0.00  0.00    +0.253 C 
ENDBRANCH   3   7
BRANCH   5   9
ATOM      9  O   UNL     1      32.222 -25.485 -13.823  0.00  0.00    -0.503 OA
ATOM     10  H   UNL     1      33.016 -25.052 -13.579  0.00  0.00    +0.292 HD
ENDBRANCH   5   9
BRANCH   1  11
ATOM     11  C   UNL     1      28.319 -22.782 -16.874  0.00  0.00    +0.164 C 
BRANCH  11  12
ATOM     12  O   UNL     1      27.646 -23.762 -17.657  0.00  0.00    -0.377 OA
ATOM     13  H   UNL     1      27.576 -23.451 -18.573  0.00  0.00    +0.211 HD
ENDBRANCH  11  12
ENDBRANCH   1  11
TORSDOF 4
ENDMDL
MODEL 9
REMARK VINA RESULT:      -5.8      8.442      9.090
REMARK  Name = 62348
REMARK  4 active torsions:
REMARK  status: ('A' for Active; 'I' for Inactive)
REMARK    1  A    between atoms: C_1  and  C_11
REMARK    2  A    between atoms: C_3  and  O_7
REMARK    3  A    between atoms: C_5  and  O_9
REMARK    4  A    between atoms: C_11  and  O_12
REMARK                            x       y       z     vdW  Elec       q    Type
REMARK                         _______ _______ _______ _____ _____    ______ ____
ROOT
ATOM      1  C   UNL     1      39.050 -25.705 -14.155  0.00  0.00    +0.010 C 
ATOM      2  C   UNL     1      38.814 -25.081 -12.931  0.00  0.00    +0.038 C 
ATOM      3  C   UNL     1      37.505 -24.862 -12.501  0.00  0.00    +0.172 C 
ATOM      4  C   UNL     1      37.979 -26.111 -14.950  0.00  0.00    +0.001 C 
ATOM      5  C   UNL     1      36.433 -25.267 -13.296  0.00  0.00    +0.168 C 
ATOM      6  C   UNL     1      36.670 -25.892 -14.521  0.00  0.00    +0.040 C 
ENDROOT
BRANCH   3   7
ATOM      7  O   UNL     1      37.287 -24.250 -11.304  0.00  0.00    -0.468 OA
ATOM      8  C   UNL     1      37.131 -22.832 -11.318  0.00  0.00    +0.253 C 
ENDBRANCH   3   7
BRANCH   5   9
ATOM      9  O   UNL     1      35.150 -25.058 -12.888  0.00  0.00    -0.503 OA
ATOM     10  H   UNL     1      34.790 -25.571 -12.192  0.00  0.00    +0.292 HD
ENDBRANCH   5   9
BRANCH   1  11
ATOM     11  C   UNL     1      40.449 -25.939 -14.615  0.00  0.00    +0.164 C 
BRANCH  11  12
ATOM     12  O   UNL     1      40.425 -25.974 -16.037  0.00  0.00    -0.377 OA
ATOM     13  H   UNL     1      39.602 -25.571 -16.357  0.00  0.00    +0.211 HD
ENDBRANCH  11  12
ENDBRANCH   1  11
TORSDOF 4
ENDMDL
