MODEL 1
REMARK VINA RESULT:     -11.5      0.000      0.000
REMARK  Name = 11992146
REMARK  2 active torsions:
REMARK  status: ('A' for Active; 'I' for Inactive)
REMARK    1  A    between atoms: C_2  and  C_14
REMARK    2  A    between atoms: C_5  and  C_20
REMARK                            x       y       z     vdW  Elec       q    Type
REMARK                         _______ _______ _______ _____ _____    ______ ____
ROOT
ATOM      1  N   UNL     1      34.875 -18.525 -24.021  0.00  0.00    -0.244 NA
ATOM      2  C   UNL     1      34.017 -15.910 -23.538  0.00  0.00    +0.016 C 
ATOM      3  C   UNL     1      34.193 -16.792 -22.478  0.00  0.00    +0.020 C 
ATOM      4  C   UNL     1      34.268 -16.332 -24.838  0.00  0.00    +0.022 C 
ATOM      5  C   UNL     1      34.620 -18.078 -22.770  0.00  0.00    +0.084 C 
ATOM      6  C   UNL     1      34.691 -17.640 -25.024  0.00  0.00    +0.099 C 
ENDROOT
BRANCH   2  14
ATOM      7  O   UNL     1      33.916 -10.359 -24.336  0.00  0.00    -0.270 OA
ATOM      8  N   UNL     1      32.695 -14.257 -22.279  0.00  0.00    -0.316 N 
ATOM      9  N   UNL     1      32.196 -10.229 -22.799  0.00  0.00    -0.300 N 
ATOM     10  C   UNL     1      32.463 -12.912 -22.282  0.00  0.00    +0.031 C 
ATOM     11  C   UNL     1      31.597 -12.172 -21.335  0.00  0.00    +0.063 C 
ATOM     12  C   UNL     1      33.190 -12.341 -23.306  0.00  0.00    +0.064 C 
ATOM     13  C   UNL     1      31.132 -10.887 -22.031  0.00  0.00    +0.096 C 
ATOM     14  C   UNL     1      33.574 -14.560 -23.290  0.00  0.00    +0.048 C 
ATOM     15  C   UNL     1      33.903 -13.386 -23.941  0.00  0.00    +0.020 C 
ATOM     16  C   UNL     1      33.152 -10.912 -23.550  0.00  0.00    +0.247 C 
ATOM     17  H   UNL     1      32.296 -14.906 -21.654  0.00  0.00    +0.152 HD
ATOM     18  H   UNL     1      32.236  -9.245 -22.783  0.00  0.00    +0.150 HD
ENDBRANCH   2  14
BRANCH   5  20
ATOM     19  F   UNL     1      37.170 -18.646 -21.735  0.00  0.00    -0.204 F 
ATOM     20  C   UNL     1      34.826 -19.049 -21.722  0.00  0.00    +0.045 C 
ATOM     21  C   UNL     1      36.111 -19.301 -21.238  0.00  0.00    +0.142 C 
ATOM     22  C   UNL     1      33.736 -19.741 -21.190  0.00  0.00    +0.004 C 
ATOM     23  C   UNL     1      36.305 -20.243 -20.227  0.00  0.00    +0.030 C 
ATOM     24  C   UNL     1      33.930 -20.682 -20.180  0.00  0.00    +0.000 C 
ATOM     25  C   UNL     1      35.214 -20.934 -19.698  0.00  0.00    +0.002 C 
ENDBRANCH   5  20
TORSDOF 2
ENDMDL
MODEL 2
REMARK VINA RESULT:     -11.5      1.341      1.732
REMARK  Name = 11992146
REMARK  2 active torsions:
REMARK  status: ('A' for Active; 'I' for Inactive)
REMARK    1  A    between atoms: C_2  and  C_14
REMARK    2  A    between atoms: C_5  and  C_20
REMARK                            x       y       z     vdW  Elec       q    Type
REMARK                         _______ _______ _______ _____ _____    ______ ____
ROOT
ATOM      1  N   UNL     1      34.972 -19.424 -23.454  0.00  0.00    -0.244 NA
ATOM      2  C   UNL     1      34.181 -16.761 -23.157  0.00  0.00    +0.016 C 
ATOM      3  C   UNL     1      34.219 -17.604 -22.052  0.00  0.00    +0.020 C 
ATOM      4  C   UNL     1      34.537 -17.246 -24.409  0.00  0.00    +0.022 C 
ATOM      5  C   UNL     1      34.618 -18.916 -22.252  0.00  0.00    +0.084 C 
ATOM      6  C   UNL     1      34.922 -18.575 -24.504  0.00  0.00    +0.099 C 
ENDROOT
BRANCH   2  14
ATOM      7  O   UNL     1      34.069 -11.310 -24.472  0.00  0.00    -0.270 OA
ATOM      8  N   UNL     1      32.983 -14.974 -21.960  0.00  0.00    -0.316 N 
ATOM      9  N   UNL     1      32.482 -11.005 -22.820  0.00  0.00    -0.300 N 
ATOM     10  C   UNL     1      32.764 -13.631 -22.073  0.00  0.00    +0.031 C 
ATOM     11  C   UNL     1      31.986 -12.790 -21.134  0.00  0.00    +0.063 C 
ATOM     12  C   UNL     1      33.411 -13.172 -23.201  0.00  0.00    +0.064 C 
ATOM     13  C   UNL     1      31.478 -11.568 -21.910  0.00  0.00    +0.096 C 
ATOM     14  C   UNL     1      33.773 -15.385 -23.004  0.00  0.00    +0.048 C 
ATOM     15  C   UNL     1      34.059 -14.285 -23.789  0.00  0.00    +0.020 C 
ATOM     16  C   UNL     1      33.367 -11.772 -23.577  0.00  0.00    +0.247 C 
ATOM     17  H   UNL     1      32.630 -15.553 -21.245  0.00  0.00    +0.152 HD
ATOM     18  H   UNL     1      32.533 -10.024 -22.902  0.00  0.00    +0.150 HD
ENDBRANCH   2  14
BRANCH   5  20
ATOM     19  F   UNL     1      32.315 -20.076 -21.135  0.00  0.00    -0.204 F 
ATOM     20  C   UNL     1      34.683 -19.849 -21.153  0.00  0.00    +0.045 C 
ATOM     21  C   UNL     1      33.513 -20.400 -20.627  0.00  0.00    +0.142 C 
ATOM     22  C   UNL     1      35.920 -20.202 -20.611  0.00  0.00    +0.004 C 
ATOM     23  C   UNL     1      33.580 -21.300 -19.562  0.00  0.00    +0.030 C 
ATOM     24  C   UNL     1      35.988 -21.100 -19.546  0.00  0.00    +0.000 C 
ATOM     25  C   UNL     1      34.818 -21.649 -19.021  0.00  0.00    +0.002 C 
ENDBRANCH   5  20
TORSDOF 2
ENDMDL
MODEL 3
REMARK VINA RESULT:     -11.3      1.179      1.641
REMARK  Name = 11992146
REMARK  2 active torsions:
REMARK  status: ('A' for Active; 'I' for Inactive)
REMARK    1  A    between atoms: C_2  and  C_14
REMARK    2  A    between atoms: C_5  and  C_20
REMARK                            x       y       z     vdW  Elec       q    Type
REMARK                         _______ _______ _______ _____ _____    ______ ____
ROOT
ATOM      1  N   UNL     1      34.891 -18.569 -24.124  0.00  0.00    -0.244 NA
ATOM      2  C   UNL     1      34.047 -15.936 -23.722  0.00  0.00    +0.016 C 
ATOM      3  C   UNL     1      34.240 -16.779 -22.634  0.00  0.00    +0.020 C 
ATOM      4  C   UNL     1      34.274 -16.405 -25.010  0.00  0.00    +0.022 C 
ATOM      5  C   UNL     1      34.659 -18.076 -22.887  0.00  0.00    +0.084 C 
ATOM      6  C   UNL     1      34.692 -17.720 -25.156  0.00  0.00    +0.099 C 
ENDROOT
BRANCH   2  14
ATOM      7  O   UNL     1      31.029 -11.869 -21.312  0.00  0.00    -0.270 OA
ATOM      8  N   UNL     1      34.056 -13.543 -24.303  0.00  0.00    -0.316 N 
ATOM      9  N   UNL     1      32.207 -10.330 -22.570  0.00  0.00    -0.300 N 
ATOM     10  C   UNL     1      33.475 -12.382 -23.880  0.00  0.00    +0.031 C 
ATOM     11  C   UNL     1      33.666 -11.040 -24.478  0.00  0.00    +0.063 C 
ATOM     12  C   UNL     1      32.655 -12.664 -22.808  0.00  0.00    +0.064 C 
ATOM     13  C   UNL     1      33.376  -9.997 -23.393  0.00  0.00    +0.096 C 
ATOM     14  C   UNL     1      33.611 -14.576 -23.515  0.00  0.00    +0.048 C 
ATOM     15  C   UNL     1      32.734 -14.059 -22.581  0.00  0.00    +0.020 C 
ATOM     16  C   UNL     1      31.891 -11.622 -22.150  0.00  0.00    +0.247 C 
ATOM     17  H   UNL     1      34.692 -13.625 -25.051  0.00  0.00    +0.152 HD
ATOM     18  H   UNL     1      31.609  -9.596 -22.298  0.00  0.00    +0.150 HD
ENDBRANCH   2  14
BRANCH   5  20
ATOM     19  F   UNL     1      37.212 -18.536 -21.806  0.00  0.00    -0.204 F 
ATOM     20  C   UNL     1      34.882 -19.009 -21.808  0.00  0.00    +0.045 C 
ATOM     21  C   UNL     1      36.168 -19.208 -21.302  0.00  0.00    +0.142 C 
ATOM     22  C   UNL     1      33.807 -19.717 -21.267  0.00  0.00    +0.004 C 
ATOM     23  C   UNL     1      36.378 -20.113 -20.261  0.00  0.00    +0.030 C 
ATOM     24  C   UNL     1      34.016 -20.622 -20.227  0.00  0.00    +0.000 C 
ATOM     25  C   UNL     1      35.302 -20.821 -19.724  0.00  0.00    +0.002 C 
ENDBRANCH   5  20
TORSDOF 2
ENDMDL
MODEL 4
REMARK VINA RESULT:     -10.7      3.331      7.764
REMARK  Name = 11992146
REMARK  2 active torsions:
REMARK  status: ('A' for Active; 'I' for Inactive)
REMARK    1  A    between atoms: C_2  and  C_14
REMARK    2  A    between atoms: C_5  and  C_20
REMARK                            x       y       z     vdW  Elec       q    Type
REMARK                         _______ _______ _______ _____ _____    ______ ____
ROOT
ATOM      1  N   UNL     1      33.992 -15.451 -25.086  0.00  0.00    -0.244 NA
ATOM      2  C   UNL     1      34.430 -17.411 -23.145  0.00  0.00    +0.016 C 
ATOM      3  C   UNL     1      34.013 -16.140 -22.769  0.00  0.00    +0.020 C 
ATOM      4  C   UNL     1      34.629 -17.705 -24.488  0.00  0.00    +0.022 C 
ATOM      5  C   UNL     1      33.809 -15.203 -23.770  0.00  0.00    +0.084 C 
ATOM      6  C   UNL     1      34.399 -16.697 -25.413  0.00  0.00    +0.099 C 
ENDROOT
BRANCH   2  14
ATOM      7  O   UNL     1      32.909 -21.370 -19.473  0.00  0.00    -0.270 OA
ATOM      8  N   UNL     1      35.909 -18.683 -21.641  0.00  0.00    -0.316 N 
ATOM      9  N   UNL     1      35.149 -21.789 -19.088  0.00  0.00    -0.300 N 
ATOM     10  C   UNL     1      35.817 -19.680 -20.714  0.00  0.00    +0.031 C 
ATOM     11  C   UNL     1      36.933 -20.238 -19.916  0.00  0.00    +0.063 C 
ATOM     12  C   UNL     1      34.499 -20.075 -20.620  0.00  0.00    +0.064 C 
ATOM     13  C   UNL     1      36.550 -21.666 -19.507  0.00  0.00    +0.096 C 
ATOM     14  C   UNL     1      34.657 -18.425 -22.143  0.00  0.00    +0.048 C 
ATOM     15  C   UNL     1      33.760 -19.272 -21.521  0.00  0.00    +0.020 C 
ATOM     16  C   UNL     1      34.089 -21.120 -19.701  0.00  0.00    +0.247 C 
ATOM     17  H   UNL     1      36.739 -18.223 -21.907  0.00  0.00    +0.152 HD
ATOM     18  H   UNL     1      34.944 -22.381 -18.328  0.00  0.00    +0.150 HD
ENDBRANCH   2  14
BRANCH   5  20
ATOM     19  F   UNL     1      31.960 -14.668 -21.723  0.00  0.00    -0.204 F 
ATOM     20  C   UNL     1      33.375 -13.862 -23.456  0.00  0.00    +0.045 C 
ATOM     21  C   UNL     1      32.453 -13.642 -22.431  0.00  0.00    +0.142 C 
ATOM     22  C   UNL     1      33.878 -12.780 -24.182  0.00  0.00    +0.004 C 
ATOM     23  C   UNL     1      32.034 -12.344 -22.134  0.00  0.00    +0.030 C 
ATOM     24  C   UNL     1      33.460 -11.484 -23.885  0.00  0.00    +0.000 C 
ATOM     25  C   UNL     1      32.537 -11.265 -22.862  0.00  0.00    +0.002 C 
ENDBRANCH   5  20
TORSDOF 2
ENDMDL
MODEL 5
REMARK VINA RESULT:     -10.7      7.288     11.935
REMARK  Name = 11992146
REMARK  2 active torsions:
REMARK  status: ('A' for Active; 'I' for Inactive)
REMARK    1  A    between atoms: C_2  and  C_14
REMARK    2  A    between atoms: C_5  and  C_20
REMARK                            x       y       z     vdW  Elec       q    Type
REMARK                         _______ _______ _______ _____ _____    ______ ____
ROOT
ATOM      1  N   UNL     1      32.414 -22.390 -18.144  0.00  0.00    -0.244 NA
ATOM      2  C   UNL     1      34.301 -23.393 -16.344  0.00  0.00    +0.016 C 
ATOM      3  C   UNL     1      34.708 -22.596 -17.408  0.00  0.00    +0.020 C 
ATOM      4  C   UNL     1      32.953 -23.690 -16.178  0.00  0.00    +0.022 C 
ATOM      5  C   UNL     1      33.733 -22.123 -18.272  0.00  0.00    +0.084 C 
ATOM      6  C   UNL     1      32.057 -23.169 -17.099  0.00  0.00    +0.099 C 
ENDROOT
BRANCH   2  14
ATOM      7  O   UNL     1      36.053 -25.449 -11.428  0.00  0.00    -0.270 OA
ATOM      8  N   UNL     1      36.611 -23.978 -15.723  0.00  0.00    -0.316 N 
ATOM      9  N   UNL     1      38.146 -25.739 -12.363  0.00  0.00    -0.300 N 
ATOM     10  C   UNL     1      37.285 -24.504 -14.659  0.00  0.00    +0.031 C 
ATOM     11  C   UNL     1      38.748 -24.718 -14.570  0.00  0.00    +0.063 C 
ATOM     12  C   UNL     1      36.379 -24.787 -13.658  0.00  0.00    +0.064 C 
ATOM     13  C   UNL     1      38.998 -25.839 -13.554  0.00  0.00    +0.096 C 
ATOM     14  C   UNL     1      35.274 -23.912 -15.414  0.00  0.00    +0.048 C 
ATOM     15  C   UNL     1      35.102 -24.403 -14.134  0.00  0.00    +0.020 C 
ATOM     16  C   UNL     1      36.807 -25.349 -12.392  0.00  0.00    +0.247 C 
ATOM     17  H   UNL     1      37.017 -23.693 -16.574  0.00  0.00    +0.152 HD
ATOM     18  H   UNL     1      38.545 -25.960 -11.490  0.00  0.00    +0.150 HD
ENDBRANCH   2  14
BRANCH   5  20
ATOM     19  F   UNL     1      36.378 -21.859 -19.181  0.00  0.00    -0.204 F 
ATOM     20  C   UNL     1      34.079 -21.290 -19.399  0.00  0.00    +0.045 C 
ATOM     21  C   UNL     1      35.408 -21.186 -19.816  0.00  0.00    +0.142 C 
ATOM     22  C   UNL     1      33.083 -20.582 -20.074  0.00  0.00    +0.004 C 
ATOM     23  C   UNL     1      35.738 -20.376 -20.903  0.00  0.00    +0.030 C 
ATOM     24  C   UNL     1      33.412 -19.773 -21.160  0.00  0.00    +0.000 C 
ATOM     25  C   UNL     1      34.740 -19.669 -21.575  0.00  0.00    +0.002 C 
ENDBRANCH   5  20
TORSDOF 2
ENDMDL
MODEL 6
REMARK VINA RESULT:     -10.7      2.190      3.405
REMARK  Name = 11992146
REMARK  2 active torsions:
REMARK  status: ('A' for Active; 'I' for Inactive)
REMARK    1  A    between atoms: C_2  and  C_14
REMARK    2  A    between atoms: C_5  and  C_20
REMARK                            x       y       z     vdW  Elec       q    Type
REMARK                         _______ _______ _______ _____ _____    ______ ____
ROOT
ATOM      1  N   UNL     1      33.705 -16.044 -25.267  0.00  0.00    -0.244 NA
ATOM      2  C   UNL     1      33.623 -13.365 -24.478  0.00  0.00    +0.016 C 
ATOM      3  C   UNL     1      34.112 -14.332 -23.608  0.00  0.00    +0.020 C 
ATOM      4  C   UNL     1      33.175 -13.733 -25.741  0.00  0.00    +0.022 C 
ATOM      5  C   UNL     1      34.132 -15.647 -24.047  0.00  0.00    +0.084 C 
ATOM      6  C   UNL     1      33.237 -15.075 -26.084  0.00  0.00    +0.099 C 
ENDROOT
BRANCH   2  14
ATOM      7  O   UNL     1      31.592  -8.937 -21.699  0.00  0.00    -0.270 OA
ATOM      8  N   UNL     1      34.431 -11.042 -24.602  0.00  0.00    -0.316 N 
ATOM      9  N   UNL     1      33.357  -7.689 -22.515  0.00  0.00    -0.300 N 
ATOM     10  C   UNL     1      34.158  -9.829 -24.037  0.00  0.00    +0.031 C 
ATOM     11  C   UNL     1      34.829  -8.547 -24.353  0.00  0.00    +0.063 C 
ATOM     12  C   UNL     1      33.129  -9.985 -23.131  0.00  0.00    +0.064 C 
ATOM     13  C   UNL     1      34.689  -7.631 -23.130  0.00  0.00    +0.096 C 
ATOM     14  C   UNL     1      33.580 -11.981 -24.072  0.00  0.00    +0.048 C 
ATOM     15  C   UNL     1      32.756 -11.351 -23.160  0.00  0.00    +0.020 C 
ATOM     16  C   UNL     1      32.612  -8.860 -22.378  0.00  0.00    +0.247 C 
ATOM     17  H   UNL     1      35.125 -11.214 -25.279  0.00  0.00    +0.152 HD
ATOM     18  H   UNL     1      32.967  -6.850 -22.179  0.00  0.00    +0.150 HD
ENDBRANCH   2  14
BRANCH   5  20
ATOM     19  F   UNL     1      34.457 -15.318 -21.275  0.00  0.00    -0.204 F 
ATOM     20  C   UNL     1      34.626 -16.706 -23.199  0.00  0.00    +0.045 C 
ATOM     21  C   UNL     1      34.774 -16.498 -21.827  0.00  0.00    +0.142 C 
ATOM     22  C   UNL     1      34.959 -17.943 -23.754  0.00  0.00    +0.004 C 
ATOM     23  C   UNL     1      35.255 -17.525 -21.012  0.00  0.00    +0.030 C 
ATOM     24  C   UNL     1      35.440 -18.968 -22.940  0.00  0.00    +0.000 C 
ATOM     25  C   UNL     1      35.588 -18.759 -21.569  0.00  0.00    +0.002 C 
ENDBRANCH   5  20
TORSDOF 2
ENDMDL
MODEL 7
REMARK VINA RESULT:     -10.6      3.552      8.803
REMARK  Name = 11992146
REMARK  2 active torsions:
REMARK  status: ('A' for Active; 'I' for Inactive)
REMARK    1  A    between atoms: C_2  and  C_14
REMARK    2  A    between atoms: C_5  and  C_20
REMARK                            x       y       z     vdW  Elec       q    Type
REMARK                         _______ _______ _______ _____ _____    ______ ____
ROOT
ATOM      1  N   UNL     1      31.407  -9.938 -21.916  0.00  0.00    -0.244 NA
ATOM      2  C   UNL     1      32.583 -12.392 -22.549  0.00  0.00    +0.016 C 
ATOM      3  C   UNL     1      33.025 -11.228 -23.167  0.00  0.00    +0.020 C 
ATOM      4  C   UNL     1      31.555 -12.332 -21.616  0.00  0.00    +0.022 C 
ATOM      5  C   UNL     1      32.409 -10.037 -22.819  0.00  0.00    +0.084 C 
ATOM      6  C   UNL     1      31.005 -11.091 -21.337  0.00  0.00    +0.099 C 
ENDROOT
BRANCH   2  14
ATOM      7  O   UNL     1      34.434 -16.413 -25.994  0.00  0.00    -0.270 OA
ATOM      8  N   UNL     1      33.556 -14.561 -21.906  0.00  0.00    -0.316 N 
ATOM      9  N   UNL     1      35.235 -17.545 -24.146  0.00  0.00    -0.300 N 
ATOM     10  C   UNL     1      34.094 -15.663 -22.506  0.00  0.00    +0.031 C 
ATOM     11  C   UNL     1      34.589 -16.878 -21.819  0.00  0.00    +0.063 C 
ATOM     12  C   UNL     1      34.084 -15.471 -23.872  0.00  0.00    +0.064 C 
ATOM     13  C   UNL     1      35.627 -17.543 -22.732  0.00  0.00    +0.096 C 
ATOM     14  C   UNL     1      33.189 -13.660 -22.875  0.00  0.00    +0.048 C 
ATOM     15  C   UNL     1      33.501 -14.202 -24.107  0.00  0.00    +0.020 C 
ATOM     16  C   UNL     1      34.588 -16.484 -24.778  0.00  0.00    +0.247 C 
ATOM     17  H   UNL     1      33.448 -14.434 -20.934  0.00  0.00    +0.152 HD
ATOM     18  H   UNL     1      35.441 -18.346 -24.681  0.00  0.00    +0.150 HD
ENDBRANCH   2  14
BRANCH   5  20
ATOM     19  F   UNL     1      30.550  -8.083 -23.610  0.00  0.00    -0.204 F 
ATOM     20  C   UNL     1      32.814  -8.787 -23.419  0.00  0.00    +0.045 C 
ATOM     21  C   UNL     1      31.856  -7.845 -23.799  0.00  0.00    +0.142 C 
ATOM     22  C   UNL     1      34.169  -8.520 -23.622  0.00  0.00    +0.004 C 
ATOM     23  C   UNL     1      32.252  -6.640 -24.381  0.00  0.00    +0.030 C 
ATOM     24  C   UNL     1      34.565  -7.316 -24.204  0.00  0.00    +0.000 C 
ATOM     25  C   UNL     1      33.607  -6.376 -24.584  0.00  0.00    +0.002 C 
ENDBRANCH   5  20
TORSDOF 2
ENDMDL
MODEL 8
REMARK VINA RESULT:     -10.5      3.301      7.952
REMARK  Name = 11992146
REMARK  2 active torsions:
REMARK  status: ('A' for Active; 'I' for Inactive)
REMARK    1  A    between atoms: C_2  and  C_14
REMARK    2  A    between atoms: C_5  and  C_20
REMARK                            x       y       z     vdW  Elec       q    Type
REMARK                         _______ _______ _______ _____ _____    ______ ____
ROOT
ATOM      1  N   UNL     1      33.259 -11.802 -26.101  0.00  0.00    -0.244 NA
ATOM      2  C   UNL     1      33.916 -14.128 -24.700  0.00  0.00    +0.016 C 
ATOM      3  C   UNL     1      34.003 -12.890 -24.074  0.00  0.00    +0.020 C 
ATOM      4  C   UNL     1      33.502 -14.206 -26.024  0.00  0.00    +0.022 C 
ATOM      5  C   UNL     1      33.666 -11.767 -24.813  0.00  0.00    +0.084 C 
ATOM      6  C   UNL     1      33.187 -13.023 -26.675  0.00  0.00    +0.099 C 
ENDROOT
BRANCH   2  14
ATOM      7  O   UNL     1      35.496 -17.091 -20.207  0.00  0.00    -0.270 OA
ATOM      8  N   UNL     1      34.324 -16.555 -24.595  0.00  0.00    -0.316 N 
ATOM      9  N   UNL     1      35.198 -19.018 -21.447  0.00  0.00    -0.300 N 
ATOM     10  C   UNL     1      34.668 -17.498 -23.670  0.00  0.00    +0.031 C 
ATOM     11  C   UNL     1      34.875 -18.942 -23.930  0.00  0.00    +0.063 C 
ATOM     12  C   UNL     1      34.816 -16.883 -22.445  0.00  0.00    +0.064 C 
ATOM     13  C   UNL     1      34.627 -19.695 -22.617  0.00  0.00    +0.096 C 
ATOM     14  C   UNL     1      34.255 -15.330 -23.977  0.00  0.00    +0.048 C 
ATOM     15  C   UNL     1      34.562 -15.503 -22.641  0.00  0.00    +0.020 C 
ATOM     16  C   UNL     1      35.192 -17.636 -21.264  0.00  0.00    +0.247 C 
ATOM     17  H   UNL     1      34.152 -16.725 -25.550  0.00  0.00    +0.152 HD
ATOM     18  H   UNL     1      35.612 -19.575 -20.748  0.00  0.00    +0.150 HD
ENDBRANCH   2  14
BRANCH   5  20
ATOM     19  F   UNL     1      35.851 -10.050 -25.234  0.00  0.00    -0.204 F 
ATOM     20  C   UNL     1      33.731 -10.447 -24.230  0.00  0.00    +0.045 C 
ATOM     21  C   UNL     1      34.837  -9.628 -24.465  0.00  0.00    +0.142 C 
ATOM     22  C   UNL     1      32.685  -9.988 -23.427  0.00  0.00    +0.004 C 
ATOM     23  C   UNL     1      34.897  -8.354 -23.897  0.00  0.00    +0.030 C 
ATOM     24  C   UNL     1      32.745  -8.716 -22.860  0.00  0.00    +0.000 C 
ATOM     25  C   UNL     1      33.851  -7.899 -23.094  0.00  0.00    +0.002 C 
ENDBRANCH   5  20
TORSDOF 2
ENDMDL
MODEL 9
REMARK VINA RESULT:     -10.4      3.800      8.926
REMARK  Name = 11992146
REMARK  2 active torsions:
REMARK  status: ('A' for Active; 'I' for Inactive)
REMARK    1  A    between atoms: C_2  and  C_14
REMARK    2  A    between atoms: C_5  and  C_20
REMARK                            x       y       z     vdW  Elec       q    Type
REMARK                         _______ _______ _______ _____ _____    ______ ____
ROOT
ATOM      1  N   UNL     1      31.522  -9.929 -21.828  0.00  0.00    -0.244 NA
ATOM      2  C   UNL     1      32.670 -12.347 -22.630  0.00  0.00    +0.016 C 
ATOM      3  C   UNL     1      33.035 -11.161 -23.256  0.00  0.00    +0.020 C 
ATOM      4  C   UNL     1      31.732 -12.327 -21.604  0.00  0.00    +0.022 C 
ATOM      5  C   UNL     1      32.436  -9.989 -22.821  0.00  0.00    +0.084 C 
ATOM      6  C   UNL     1      31.192 -11.102 -21.244  0.00  0.00    +0.099 C 
ENDROOT
BRANCH   2  14
ATOM      7  O   UNL     1      35.711 -17.010 -21.949  0.00  0.00    -0.270 OA
ATOM      8  N   UNL     1      33.164 -14.055 -24.334  0.00  0.00    -0.316 N 
ATOM      9  N   UNL     1      35.087 -17.657 -24.077  0.00  0.00    -0.300 N 
ATOM     10  C   UNL     1      33.818 -15.249 -24.431  0.00  0.00    +0.031 C 
ATOM     11  C   UNL     1      33.974 -16.064 -25.658  0.00  0.00    +0.063 C 
ATOM     12  C   UNL     1      34.336 -15.570 -23.193  0.00  0.00    +0.064 C 
ATOM     13  C   UNL     1      34.188 -17.520 -25.229  0.00  0.00    +0.096 C 
ATOM     14  C   UNL     1      33.262 -13.596 -23.043  0.00  0.00    +0.048 C 
ATOM     15  C   UNL     1      33.990 -14.515 -22.314  0.00  0.00    +0.020 C 
ATOM     16  C   UNL     1      35.097 -16.786 -22.988  0.00  0.00    +0.247 C 
ATOM     17  H   UNL     1      32.697 -13.596 -25.071  0.00  0.00    +0.152 HD
ATOM     18  H   UNL     1      35.722 -18.410 -24.073  0.00  0.00    +0.150 HD
ENDBRANCH   2  14
BRANCH   5  20
ATOM     19  F   UNL     1      30.464  -8.156 -23.625  0.00  0.00    -0.204 F 
ATOM     20  C   UNL     1      32.766  -8.719 -23.423  0.00  0.00    +0.045 C 
ATOM     21  C   UNL     1      31.753  -7.838 -23.810  0.00  0.00    +0.142 C 
ATOM     22  C   UNL     1      34.102  -8.368 -23.622  0.00  0.00    +0.004 C 
ATOM     23  C   UNL     1      32.076  -6.613 -24.394  0.00  0.00    +0.030 C 
ATOM     24  C   UNL     1      34.426  -7.144 -24.207  0.00  0.00    +0.000 C 
ATOM     25  C   UNL     1      33.413  -6.266 -24.593  0.00  0.00    +0.002 C 
ENDBRANCH   5  20
TORSDOF 2
ENDMDL
