MODEL 1
REMARK VINA RESULT:      -9.5      0.000      0.000
REMARK  Name = 853608
REMARK  0 active torsions:
REMARK  status: ('A' for Active; 'I' for Inactive)
REMARK                            x       y       z     vdW  Elec       q    Type
REMARK                         _______ _______ _______ _____ _____    ______ ____
ROOT
ATOM      1  O   UNL     1      34.821 -18.335 -25.031  0.00  0.00    -0.290 OA
ATOM      2  O   UNL     1      34.655 -16.044 -26.123  0.00  0.00    -0.272 OA
ATOM      3  N   UNL     1      33.725 -15.631 -24.088  0.00  0.00    -0.276 N 
ATOM      4  C   UNL     1      34.142 -16.435 -22.020  0.00  0.00    -0.002 A 
ATOM      5  C   UNL     1      34.640 -17.348 -20.948  0.00  0.00    +0.028 C 
ATOM      6  C   UNL     1      34.278 -16.697 -23.372  0.00  0.00    +0.097 A 
ATOM      7  C   UNL     1      34.796 -18.775 -21.478  0.00  0.00    +0.013 C 
ATOM      8  C   UNL     1      33.462 -15.204 -21.873  0.00  0.00    +0.014 A 
ATOM      9  C   UNL     1      35.552 -18.796 -22.807  0.00  0.00    +0.071 C 
ATOM     10  C   UNL     1      33.206 -14.711 -23.160  0.00  0.00    +0.066 A 
ATOM     11  C   UNL     1      34.852 -17.947 -23.866  0.00  0.00    +0.189 C 
ATOM     12  C   UNL     1      33.052 -14.463 -20.743  0.00  0.00    +0.001 C 
ATOM     13  C   UNL     1      32.586 -13.454 -23.316  0.00  0.00    +0.018 C 
ATOM     14  C   UNL     1      33.750 -15.514 -25.493  0.00  0.00    +0.242 C 
ATOM     15  C   UNL     1      32.411 -13.236 -20.909  0.00  0.00    +0.000 C 
ATOM     16  C   UNL     1      32.188 -12.737 -22.182  0.00  0.00    +0.001 C 
ATOM     17  C   UNL     1      32.652 -14.732 -26.141  0.00  0.00    +0.098 C 
ENDROOT
TORSDOF 0
ENDMDL
MODEL 2
REMARK VINA RESULT:      -8.8      1.565      4.165
REMARK  Name = 853608
REMARK  0 active torsions:
REMARK  status: ('A' for Active; 'I' for Inactive)
REMARK                            x       y       z     vdW  Elec       q    Type
REMARK                         _______ _______ _______ _____ _____    ______ ____
ROOT
ATOM      1  O   UNL     1      33.623 -14.619 -27.239  0.00  0.00    -0.290 OA
ATOM      2  O   UNL     1      33.088 -16.918 -26.291  0.00  0.00    -0.272 OA
ATOM      3  N   UNL     1      33.945 -15.874 -24.460  0.00  0.00    -0.276 N 
ATOM      4  C   UNL     1      33.857 -13.739 -23.731  0.00  0.00    -0.002 A 
ATOM      5  C   UNL     1      33.681 -12.256 -23.762  0.00  0.00    +0.028 C 
ATOM      6  C   UNL     1      33.746 -14.546 -24.849  0.00  0.00    +0.097 A 
ATOM      7  C   UNL     1      33.915 -11.711 -25.173  0.00  0.00    +0.013 C 
ATOM      8  C   UNL     1      34.165 -14.559 -22.621  0.00  0.00    +0.014 A 
ATOM      9  C   UNL     1      33.143 -12.518 -26.217  0.00  0.00    +0.071 C 
ATOM     10  C   UNL     1      34.218 -15.882 -23.081  0.00  0.00    +0.066 A 
ATOM     11  C   UNL     1      33.530 -13.994 -26.186  0.00  0.00    +0.189 C 
ATOM     12  C   UNL     1      34.393 -14.281 -21.255  0.00  0.00    +0.001 C 
ATOM     13  C   UNL     1      34.450 -16.931 -22.166  0.00  0.00    +0.018 C 
ATOM     14  C   UNL     1      33.831 -16.984 -25.321  0.00  0.00    +0.242 C 
ATOM     15  C   UNL     1      34.653 -15.322 -20.365  0.00  0.00    +0.000 C 
ATOM     16  C   UNL     1      34.674 -16.632 -20.817  0.00  0.00    +0.001 C 
ATOM     17  C   UNL     1      34.635 -18.201 -24.989  0.00  0.00    +0.098 C 
ENDROOT
TORSDOF 0
ENDMDL
MODEL 3
REMARK VINA RESULT:      -8.7      9.310     11.721
REMARK  Name = 853608
REMARK  0 active torsions:
REMARK  status: ('A' for Active; 'I' for Inactive)
REMARK                            x       y       z     vdW  Elec       q    Type
REMARK                         _______ _______ _______ _____ _____    ______ ____
ROOT
ATOM      1  O   UNL     1      31.925 -25.139 -13.002  0.00  0.00    -0.290 OA
ATOM      2  O   UNL     1      34.180 -23.994 -12.736  0.00  0.00    -0.272 OA
ATOM      3  N   UNL     1      33.826 -23.756 -14.971  0.00  0.00    -0.276 N 
ATOM      4  C   UNL     1      31.961 -23.436 -16.201  0.00  0.00    -0.002 A 
ATOM      5  C   UNL     1      30.514 -23.420 -16.571  0.00  0.00    +0.028 C 
ATOM      6  C   UNL     1      32.437 -23.909 -14.991  0.00  0.00    +0.097 A 
ATOM      7  C   UNL     1      29.731 -24.443 -15.744  0.00  0.00    +0.013 C 
ATOM      8  C   UNL     1      33.065 -23.009 -16.975  0.00  0.00    +0.014 A 
ATOM      9  C   UNL     1      30.064 -24.329 -14.256  0.00  0.00    +0.071 C 
ATOM     10  C   UNL     1      34.219 -23.210 -16.205  0.00  0.00    +0.066 A 
ATOM     11  C   UNL     1      31.556 -24.520 -13.997  0.00  0.00    +0.189 C 
ATOM     12  C   UNL     1      33.172 -22.454 -18.270  0.00  0.00    +0.001 C 
ATOM     13  C   UNL     1      35.474 -22.811 -16.710  0.00  0.00    +0.018 C 
ATOM     14  C   UNL     1      34.647 -24.060 -13.865  0.00  0.00    +0.242 C 
ATOM     15  C   UNL     1      34.422 -22.092 -18.772  0.00  0.00    +0.000 C 
ATOM     16  C   UNL     1      35.557 -22.264 -17.996  0.00  0.00    +0.001 C 
ATOM     17  C   UNL     1      36.065 -24.447 -14.142  0.00  0.00    +0.098 C 
ENDROOT
TORSDOF 0
ENDMDL
MODEL 4
REMARK VINA RESULT:      -8.5      2.259      5.285
REMARK  Name = 853608
REMARK  0 active torsions:
REMARK  status: ('A' for Active; 'I' for Inactive)
REMARK                            x       y       z     vdW  Elec       q    Type
REMARK                         _______ _______ _______ _____ _____    ______ ____
ROOT
ATOM      1  O   UNL     1      33.304 -12.753 -23.053  0.00  0.00    -0.290 OA
ATOM      2  O   UNL     1      34.885 -13.842 -21.386  0.00  0.00    -0.272 OA
ATOM      3  N   UNL     1      34.345 -15.616 -22.705  0.00  0.00    -0.276 N 
ATOM      4  C   UNL     1      33.901 -15.807 -24.910  0.00  0.00    -0.002 A 
ATOM      5  C   UNL     1      33.523 -15.414 -26.301  0.00  0.00    +0.028 C 
ATOM      6  C   UNL     1      33.928 -14.924 -23.846  0.00  0.00    +0.097 A 
ATOM      7  C   UNL     1      32.677 -14.139 -26.294  0.00  0.00    +0.013 C 
ATOM      8  C   UNL     1      34.271 -17.086 -24.434  0.00  0.00    +0.014 A 
ATOM      9  C   UNL     1      33.310 -13.055 -25.419  0.00  0.00    +0.071 C 
ATOM     10  C   UNL     1      34.544 -16.960 -23.065  0.00  0.00    +0.066 A 
ATOM     11  C   UNL     1      33.499 -13.533 -23.981  0.00  0.00    +0.189 C 
ATOM     12  C   UNL     1      34.405 -18.343 -25.064  0.00  0.00    +0.001 C 
ATOM     13  C   UNL     1      35.000 -18.079 -22.338  0.00  0.00    +0.018 C 
ATOM     14  C   UNL     1      34.563 -15.021 -21.445  0.00  0.00    +0.242 C 
ATOM     15  C   UNL     1      34.826 -19.451 -24.328  0.00  0.00    +0.000 C 
ATOM     16  C   UNL     1      35.126 -19.315 -22.982  0.00  0.00    +0.001 C 
ATOM     17  C   UNL     1      34.389 -15.883 -20.235  0.00  0.00    +0.098 C 
ENDROOT
TORSDOF 0
ENDMDL
MODEL 5
REMARK VINA RESULT:      -8.5      2.213      3.729
REMARK  Name = 853608
REMARK  0 active torsions:
REMARK  status: ('A' for Active; 'I' for Inactive)
REMARK                            x       y       z     vdW  Elec       q    Type
REMARK                         _______ _______ _______ _____ _____    ______ ____
ROOT
ATOM      1  O   UNL     1      34.927 -16.235 -19.849  0.00  0.00    -0.290 OA
ATOM      2  O   UNL     1      32.838 -14.831 -20.212  0.00  0.00    -0.272 OA
ATOM      3  N   UNL     1      33.570 -15.093 -22.350  0.00  0.00    -0.276 N 
ATOM      4  C   UNL     1      34.611 -16.788 -23.416  0.00  0.00    -0.002 A 
ATOM      5  C   UNL     1      35.409 -18.035 -23.617  0.00  0.00    +0.028 C 
ATOM      6  C   UNL     1      34.360 -16.233 -22.174  0.00  0.00    +0.097 A 
ATOM      7  C   UNL     1      36.331 -18.289 -22.422  0.00  0.00    +0.013 C 
ATOM      8  C   UNL     1      34.004 -15.972 -24.399  0.00  0.00    +0.014 A 
ATOM      9  C   UNL     1      35.575 -18.160 -21.099  0.00  0.00    +0.071 C 
ATOM     10  C   UNL     1      33.359 -14.923 -23.730  0.00  0.00    +0.066 A 
ATOM     11  C   UNL     1      34.936 -16.782 -20.948  0.00  0.00    +0.189 C 
ATOM     12  C   UNL     1      33.941 -16.051 -25.807  0.00  0.00    +0.001 C 
ATOM     13  C   UNL     1      32.612 -13.980 -24.466  0.00  0.00    +0.018 C 
ATOM     14  C   UNL     1      33.053 -14.310 -21.298  0.00  0.00    +0.242 C 
ATOM     15  C   UNL     1      33.226 -15.095 -26.528  0.00  0.00    +0.000 C 
ATOM     16  C   UNL     1      32.564 -14.076 -25.861  0.00  0.00    +0.001 C 
ATOM     17  C   UNL     1      32.790 -12.864 -21.578  0.00  0.00    +0.098 C 
ENDROOT
TORSDOF 0
ENDMDL
MODEL 6
REMARK VINA RESULT:      -8.4      7.792     10.640
REMARK  Name = 853608
REMARK  0 active torsions:
REMARK  status: ('A' for Active; 'I' for Inactive)
REMARK                            x       y       z     vdW  Elec       q    Type
REMARK                         _______ _______ _______ _____ _____    ______ ____
ROOT
ATOM      1  O   UNL     1      37.194 -21.757 -17.489  0.00  0.00    -0.290 OA
ATOM      2  O   UNL     1      37.292 -23.495 -15.636  0.00  0.00    -0.272 OA
ATOM      3  N   UNL     1      35.048 -23.165 -15.812  0.00  0.00    -0.276 N 
ATOM      4  C   UNL     1      33.698 -22.711 -17.564  0.00  0.00    -0.002 A 
ATOM      5  C   UNL     1      33.274 -22.261 -18.923  0.00  0.00    +0.028 C 
ATOM      6  C   UNL     1      35.003 -22.643 -17.108  0.00  0.00    +0.097 A 
ATOM      7  C   UNL     1      34.275 -21.258 -19.501  0.00  0.00    +0.013 C 
ATOM      8  C   UNL     1      32.896 -23.251 -16.532  0.00  0.00    +0.014 A 
ATOM      9  C   UNL     1      35.712 -21.761 -19.359  0.00  0.00    +0.071 C 
ATOM     10  C   UNL     1      33.740 -23.530 -15.449  0.00  0.00    +0.066 A 
ATOM     11  C   UNL     1      36.071 -22.036 -17.901  0.00  0.00    +0.189 C 
ATOM     12  C   UNL     1      31.515 -23.536 -16.439  0.00  0.00    +0.001 C 
ATOM     13  C   UNL     1      33.211 -24.139 -14.291  0.00  0.00    +0.018 C 
ATOM     14  C   UNL     1      36.227 -23.327 -15.057  0.00  0.00    +0.242 C 
ATOM     15  C   UNL     1      30.998 -24.108 -15.278  0.00  0.00    +0.000 C 
ATOM     16  C   UNL     1      31.841 -24.412 -14.220  0.00  0.00    +0.001 C 
ATOM     17  C   UNL     1      36.104 -23.287 -13.567  0.00  0.00    +0.098 C 
ENDROOT
TORSDOF 0
ENDMDL
MODEL 7
REMARK VINA RESULT:      -8.4      9.191     11.461
REMARK  Name = 853608
REMARK  0 active torsions:
REMARK  status: ('A' for Active; 'I' for Inactive)
REMARK                            x       y       z     vdW  Elec       q    Type
REMARK                         _______ _______ _______ _____ _____    ______ ____
ROOT
ATOM      1  O   UNL     1      34.183 -24.463 -12.360  0.00  0.00    -0.290 OA
ATOM      2  O   UNL     1      32.274 -25.072 -13.927  0.00  0.00    -0.272 OA
ATOM      3  N   UNL     1      33.509 -23.694 -15.250  0.00  0.00    -0.276 N 
ATOM      4  C   UNL     1      35.729 -23.330 -15.435  0.00  0.00    -0.002 A 
ATOM      5  C   UNL     1      37.179 -23.309 -15.074  0.00  0.00    +0.028 C 
ATOM      6  C   UNL     1      34.737 -23.797 -14.591  0.00  0.00    +0.097 A 
ATOM      7  C   UNL     1      37.360 -23.329 -13.555  0.00  0.00    +0.013 C 
ATOM      8  C   UNL     1      35.121 -22.891 -16.634  0.00  0.00    +0.014 A 
ATOM      9  C   UNL     1      36.505 -24.417 -12.906  0.00  0.00    +0.071 C 
ATOM     10  C   UNL     1      33.744 -23.120 -16.512  0.00  0.00    +0.066 A 
ATOM     11  C   UNL     1      35.023 -24.233 -13.225  0.00  0.00    +0.189 C 
ATOM     12  C   UNL     1      35.637 -22.326 -17.821  0.00  0.00    +0.001 C 
ATOM     13  C   UNL     1      32.889 -22.829 -17.596  0.00  0.00    +0.018 C 
ATOM     14  C   UNL     1      32.281 -24.145 -14.726  0.00  0.00    +0.242 C 
ATOM     15  C   UNL     1      34.779 -22.013 -18.875  0.00  0.00    +0.000 C 
ATOM     16  C   UNL     1      33.422 -22.269 -18.763  0.00  0.00    +0.001 C 
ATOM     17  C   UNL     1      31.037 -23.456 -15.189  0.00  0.00    +0.098 C 
ENDROOT
TORSDOF 0
ENDMDL
MODEL 8
REMARK VINA RESULT:      -8.4      8.349     10.874
REMARK  Name = 853608
REMARK  0 active torsions:
REMARK  status: ('A' for Active; 'I' for Inactive)
REMARK                            x       y       z     vdW  Elec       q    Type
REMARK                         _______ _______ _______ _____ _____    ______ ____
ROOT
ATOM      1  O   UNL     1      31.556 -22.486 -17.675  0.00  0.00    -0.290 OA
ATOM      2  O   UNL     1      33.698 -23.008 -18.942  0.00  0.00    -0.272 OA
ATOM      3  N   UNL     1      34.464 -22.911 -16.802  0.00  0.00    -0.276 N 
ATOM      4  C   UNL     1      33.551 -23.486 -14.819  0.00  0.00    -0.002 A 
ATOM      5  C   UNL     1      32.508 -23.823 -13.804  0.00  0.00    +0.028 C 
ATOM      6  C   UNL     1      33.262 -23.137 -16.127  0.00  0.00    +0.097 A 
ATOM      7  C   UNL     1      31.156 -23.222 -14.195  0.00  0.00    +0.013 C 
ATOM      8  C   UNL     1      34.954 -23.447 -14.650  0.00  0.00    +0.014 A 
ATOM      9  C   UNL     1      30.816 -23.519 -15.656  0.00  0.00    +0.071 C 
ATOM     10  C   UNL     1      35.514 -23.089 -15.884  0.00  0.00    +0.066 A 
ATOM     11  C   UNL     1      31.888 -22.984 -16.603  0.00  0.00    +0.189 C 
ATOM     12  C   UNL     1      35.795 -23.699 -13.544  0.00  0.00    +0.001 C 
ATOM     13  C   UNL     1      36.917 -23.033 -16.024  0.00  0.00    +0.018 C 
ATOM     14  C   UNL     1      34.564 -22.609 -18.175  0.00  0.00    +0.242 C 
ATOM     15  C   UNL     1      37.180 -23.609 -13.685  0.00  0.00    +0.000 C 
ATOM     16  C   UNL     1      37.731 -23.286 -14.915  0.00  0.00    +0.001 C 
ATOM     17  C   UNL     1      35.746 -21.809 -18.623  0.00  0.00    +0.098 C 
ENDROOT
TORSDOF 0
ENDMDL
MODEL 9
REMARK VINA RESULT:      -8.3      7.228     10.158
REMARK  Name = 853608
REMARK  0 active torsions:
REMARK  status: ('A' for Active; 'I' for Inactive)
REMARK                            x       y       z     vdW  Elec       q    Type
REMARK                         _______ _______ _______ _____ _____    ______ ____
ROOT
ATOM      1  O   UNL     1      32.749 -22.221 -19.592  0.00  0.00    -0.290 OA
ATOM      2  O   UNL     1      31.483 -22.416 -17.396  0.00  0.00    -0.272 OA
ATOM      3  N   UNL     1      33.592 -22.963 -16.739  0.00  0.00    -0.276 N 
ATOM      4  C   UNL     1      35.633 -22.260 -17.398  0.00  0.00    -0.002 A 
ATOM      5  C   UNL     1      36.694 -21.650 -18.254  0.00  0.00    +0.028 C 
ATOM      6  C   UNL     1      34.308 -22.369 -17.782  0.00  0.00    +0.097 A 
ATOM      7  C   UNL     1      36.285 -21.679 -19.729  0.00  0.00    +0.013 C 
ATOM      8  C   UNL     1      35.769 -22.823 -16.108  0.00  0.00    +0.014 A 
ATOM      9  C   UNL     1      34.860 -21.159 -19.922  0.00  0.00    +0.071 C 
ATOM     10  C   UNL     1      34.498 -23.258 -15.706  0.00  0.00    +0.066 A 
ATOM     11  C   UNL     1      33.851 -21.969 -19.112  0.00  0.00    +0.189 C 
ATOM     12  C   UNL     1      36.874 -22.988 -15.243  0.00  0.00    +0.001 C 
ATOM     13  C   UNL     1      34.324 -23.812 -14.420  0.00  0.00    +0.018 C 
ATOM     14  C   UNL     1      32.197 -23.166 -16.743  0.00  0.00    +0.242 C 
ATOM     15  C   UNL     1      36.696 -23.567 -13.987  0.00  0.00    +0.000 C 
ATOM     16  C   UNL     1      35.433 -23.966 -13.580  0.00  0.00    +0.001 C 
ATOM     17  C   UNL     1      31.661 -24.304 -15.933  0.00  0.00    +0.098 C 
ENDROOT
TORSDOF 0
ENDMDL
