MODEL 1
REMARK VINA RESULT:      -9.0      0.000      0.000
REMARK  Name = 15081829
REMARK  8 active torsions:
REMARK  status: ('A' for Active; 'I' for Inactive)
REMARK    1  A    between atoms: C_2  and  O_18
REMARK    2  A    between atoms: C_3  and  C_20
REMARK    3  A    between atoms: C_5  and  N_7
REMARK    4  A    between atoms: C_12  and  C_17
REMARK    5  A    between atoms: C_20  and  O_21
REMARK    6  A    between atoms: O_21  and  P_22
REMARK    7  A    between atoms: P_22  and  O_24
REMARK    8  A    between atoms: P_22  and  O_26
REMARK                            x       y       z     vdW  Elec       q    Type
REMARK                         _______ _______ _______ _____ _____    ______ ____
ROOT
ATOM      1  O   UNL     1      35.852 -24.938 -15.806  0.00  0.00    -0.334 OA
ATOM      2  C   UNL     1      37.432 -23.492 -14.788  0.00  0.00    +0.144 C 
ATOM      3  C   UNL     1      36.830 -24.890 -14.750  0.00  0.00    +0.174 C 
ATOM      4  C   UNL     1      36.302 -22.648 -15.332  0.00  0.00    +0.084 C 
ATOM      5  C   UNL     1      35.604 -23.608 -16.282  0.00  0.00    +0.209 C 
ENDROOT
BRANCH   5   7
ATOM      6  O   UNL     1      34.244 -22.985 -18.625  0.00  0.00    -0.193 OA
ATOM      7  N   UNL     1      34.189 -23.386 -16.354  0.00  0.00    -0.180 N 
ATOM      8  N   UNL     1      32.212 -22.865 -17.626  0.00  0.00    -0.306 NA
ATOM      9  N   UNL     1      30.124 -22.733 -16.642  0.00  0.00    -0.332 N 
ATOM     10  C   UNL     1      33.410 -23.477 -15.211  0.00  0.00    +0.087 C 
ATOM     11  C   UNL     1      33.579 -23.073 -17.592  0.00  0.00    +0.275 C 
ATOM     12  C   UNL     1      32.089 -23.281 -15.222  0.00  0.00    +0.102 C 
ATOM     13  C   UNL     1      31.480 -22.952 -16.544  0.00  0.00    +0.196 C 
ATOM     14  H   UNL     1      29.723 -22.516 -17.515  0.00  0.00    +0.145 HD
ATOM     15  H   UNL     1      29.557 -22.794 -15.840  0.00  0.00    +0.145 HD
BRANCH  12  17
ATOM     16  O   UNL     1      31.910 -23.222 -12.868  0.00  0.00    -0.283 OA
ATOM     17  C   UNL     1      31.371 -23.404 -13.953  0.00  0.00    +0.239 C 
ENDBRANCH  12  17
ENDBRANCH   5   7
BRANCH   2  18
ATOM     18  O   UNL     1      38.533 -23.463 -15.695  0.00  0.00    -0.382 OA
ATOM     19  H   UNL     1      38.685 -22.551 -15.991  0.00  0.00    +0.210 HD
ENDBRANCH   2  18
BRANCH   3  20
ATOM     20  C   UNL     1      36.117 -25.192 -13.438  0.00  0.00    +0.186 C 
BRANCH  20  21
ATOM     21  O   UNL     1      36.912 -24.716 -12.364  0.00  0.00    -0.271 OA
BRANCH  21  22
ATOM     22  P   UNL     1      36.231 -23.730 -11.277  0.00  0.00    +0.473 P 
ATOM     23  O   UNL     1      36.150 -24.281  -9.884  0.00  0.00    -0.227 OA
BRANCH  22  24
ATOM     24  O   UNL     1      34.814 -23.338 -11.950  0.00  0.00    -0.303 OA
ATOM     25  H   UNL     1      34.095 -23.780 -11.471  0.00  0.00    +0.222 HD
ENDBRANCH  22  24
BRANCH  22  26
ATOM     26  O   UNL     1      37.101 -22.375 -11.426  0.00  0.00    -0.303 OA
ATOM     27  H   UNL     1      36.967 -21.817 -10.643  0.00  0.00    +0.222 HD
ENDBRANCH  22  26
ENDBRANCH  21  22
ENDBRANCH  20  21
ENDBRANCH   3  20
TORSDOF 8
ENDMDL
MODEL 2
REMARK VINA RESULT:      -8.8      2.441      4.334
REMARK  Name = 15081829
REMARK  8 active torsions:
REMARK  status: ('A' for Active; 'I' for Inactive)
REMARK    1  A    between atoms: C_2  and  O_18
REMARK    2  A    between atoms: C_3  and  C_20
REMARK    3  A    between atoms: C_5  and  N_7
REMARK    4  A    between atoms: C_12  and  C_17
REMARK    5  A    between atoms: C_20  and  O_21
REMARK    6  A    between atoms: O_21  and  P_22
REMARK    7  A    between atoms: P_22  and  O_24
REMARK    8  A    between atoms: P_22  and  O_26
REMARK                            x       y       z     vdW  Elec       q    Type
REMARK                         _______ _______ _______ _____ _____    ______ ____
ROOT
ATOM      1  O   UNL     1      35.972 -22.936 -14.475  0.00  0.00    -0.334 OA
ATOM      2  C   UNL     1      36.041 -25.178 -13.705  0.00  0.00    +0.144 C 
ATOM      3  C   UNL     1      36.879 -23.933 -13.966  0.00  0.00    +0.174 C 
ATOM      4  C   UNL     1      34.931 -25.063 -14.724  0.00  0.00    +0.084 C 
ATOM      5  C   UNL     1      34.727 -23.560 -14.820  0.00  0.00    +0.209 C 
ENDROOT
BRANCH   5   7
ATOM      6  O   UNL     1      32.122 -23.693 -15.777  0.00  0.00    -0.193 OA
ATOM      7  N   UNL     1      34.332 -23.136 -16.132  0.00  0.00    -0.180 N 
ATOM      8  N   UNL     1      32.632 -22.823 -17.808  0.00  0.00    -0.306 NA
ATOM      9  N   UNL     1      33.114 -21.938 -19.888  0.00  0.00    -0.332 N 
ATOM     10  C   UNL     1      35.271 -22.621 -17.011  0.00  0.00    +0.087 C 
ATOM     11  C   UNL     1      32.980 -23.241 -16.536  0.00  0.00    +0.275 C 
ATOM     12  C   UNL     1      34.956 -22.211 -18.242  0.00  0.00    +0.102 C 
ATOM     13  C   UNL     1      33.522 -22.336 -18.635  0.00  0.00    +0.196 C 
ATOM     14  H   UNL     1      32.168 -22.021 -20.147  0.00  0.00    +0.145 HD
ATOM     15  H   UNL     1      33.769 -21.571 -20.525  0.00  0.00    +0.145 HD
BRANCH  12  17
ATOM     16  O   UNL     1      36.027 -20.541 -19.522  0.00  0.00    -0.283 OA
ATOM     17  C   UNL     1      36.033 -21.684 -19.082  0.00  0.00    +0.239 C 
ENDBRANCH  12  17
ENDBRANCH   5   7
BRANCH   2  18
ATOM     18  O   UNL     1      35.493 -25.125 -12.389  0.00  0.00    -0.382 OA
ATOM     19  H   UNL     1      36.183 -24.858 -11.761  0.00  0.00    +0.210 HD
ENDBRANCH   2  18
BRANCH   3  20
ATOM     20  C   UNL     1      37.963 -24.158 -15.013  0.00  0.00    +0.186 C 
BRANCH  20  21
ATOM     21  O   UNL     1      39.176 -24.481 -14.353  0.00  0.00    -0.271 OA
BRANCH  21  22
ATOM     22  P   UNL     1      39.885 -25.896 -14.690  0.00  0.00    +0.473 P 
ATOM     23  O   UNL     1      40.999 -26.285 -13.763  0.00  0.00    -0.227 OA
BRANCH  22  24
ATOM     24  O   UNL     1      40.298 -25.756 -16.247  0.00  0.00    -0.303 OA
ATOM     25  H   UNL     1      41.250 -25.581 -16.315  0.00  0.00    +0.222 HD
ENDBRANCH  22  24
BRANCH  22  26
ATOM     26  O   UNL     1      38.637 -26.924 -14.728  0.00  0.00    -0.303 OA
ATOM     27  H   UNL     1      38.435 -27.153 -15.649  0.00  0.00    +0.222 HD
ENDBRANCH  22  26
ENDBRANCH  21  22
ENDBRANCH  20  21
ENDBRANCH   3  20
TORSDOF 8
ENDMDL
MODEL 3
REMARK VINA RESULT:      -8.6      3.410      6.519
REMARK  Name = 15081829
REMARK  8 active torsions:
REMARK  status: ('A' for Active; 'I' for Inactive)
REMARK    1  A    between atoms: C_2  and  O_18
REMARK    2  A    between atoms: C_3  and  C_20
REMARK    3  A    between atoms: C_5  and  N_7
REMARK    4  A    between atoms: C_12  and  C_17
REMARK    5  A    between atoms: C_20  and  O_21
REMARK    6  A    between atoms: O_21  and  P_22
REMARK    7  A    between atoms: P_22  and  O_24
REMARK    8  A    between atoms: P_22  and  O_26
REMARK                            x       y       z     vdW  Elec       q    Type
REMARK                         _______ _______ _______ _____ _____    ______ ____
ROOT
ATOM      1  O   UNL     1      31.949 -25.418 -14.511  0.00  0.00    -0.334 OA
ATOM      2  C   UNL     1      30.276 -24.159 -13.396  0.00  0.00    +0.144 C 
ATOM      3  C   UNL     1      30.520 -25.267 -14.412  0.00  0.00    +0.174 C 
ATOM      4  C   UNL     1      31.505 -23.290 -13.536  0.00  0.00    +0.084 C 
ATOM      5  C   UNL     1      32.587 -24.304 -13.870  0.00  0.00    +0.209 C 
ENDROOT
BRANCH   5   7
ATOM      6  O   UNL     1      35.209 -23.813 -13.088  0.00  0.00    -0.193 OA
ATOM      7  N   UNL     1      33.597 -23.772 -14.738  0.00  0.00    -0.180 N 
ATOM      8  N   UNL     1      35.859 -23.039 -15.118  0.00  0.00    -0.306 NA
ATOM      9  N   UNL     1      36.558 -22.244 -17.173  0.00  0.00    -0.332 N 
ATOM     10  C   UNL     1      33.295 -23.469 -16.056  0.00  0.00    +0.087 C 
ATOM     11  C   UNL     1      34.909 -23.553 -14.254  0.00  0.00    +0.275 C 
ATOM     12  C   UNL     1      34.197 -22.973 -16.907  0.00  0.00    +0.102 C 
ATOM     13  C   UNL     1      35.569 -22.755 -16.363  0.00  0.00    +0.196 C 
ATOM     14  H   UNL     1      37.463 -22.100 -16.813  0.00  0.00    +0.145 HD
ATOM     15  H   UNL     1      36.359 -22.024 -18.111  0.00  0.00    +0.145 HD
BRANCH  12  17
ATOM     16  O   UNL     1      32.606 -22.395 -18.553  0.00  0.00    -0.283 OA
ATOM     17  C   UNL     1      33.762 -22.693 -18.275  0.00  0.00    +0.239 C 
ENDBRANCH  12  17
ENDBRANCH   5   7
BRANCH   2  18
ATOM     18  O   UNL     1      30.225 -24.710 -12.081  0.00  0.00    -0.382 OA
ATOM     19  H   UNL     1      30.077 -23.999 -11.437  0.00  0.00    +0.210 HD
ENDBRANCH   2  18
BRANCH   3  20
ATOM     20  C   UNL     1      29.988 -24.925 -15.798  0.00  0.00    +0.186 C 
BRANCH  20  21
ATOM     21  O   UNL     1      28.757 -24.235 -15.660  0.00  0.00    -0.271 OA
BRANCH  21  22
ATOM     22  P   UNL     1      28.430 -23.026 -16.684  0.00  0.00    +0.473 P 
ATOM     23  O   UNL     1      27.534 -23.391 -17.831  0.00  0.00    -0.227 OA
BRANCH  22  24
ATOM     24  O   UNL     1      29.891 -22.469 -17.098  0.00  0.00    -0.303 OA
ATOM     25  H   UNL     1      30.565 -22.874 -16.530  0.00  0.00    +0.222 HD
ENDBRANCH  22  24
BRANCH  22  26
ATOM     26  O   UNL     1      27.855 -21.873 -15.708  0.00  0.00    -0.303 OA
ATOM     27  H   UNL     1      26.968 -22.120 -15.402  0.00  0.00    +0.222 HD
ENDBRANCH  22  26
ENDBRANCH  21  22
ENDBRANCH  20  21
ENDBRANCH   3  20
TORSDOF 8
ENDMDL
MODEL 4
REMARK VINA RESULT:      -8.4      2.240      3.673
REMARK  Name = 15081829
REMARK  8 active torsions:
REMARK  status: ('A' for Active; 'I' for Inactive)
REMARK    1  A    between atoms: C_2  and  O_18
REMARK    2  A    between atoms: C_3  and  C_20
REMARK    3  A    between atoms: C_5  and  N_7
REMARK    4  A    between atoms: C_12  and  C_17
REMARK    5  A    between atoms: C_20  and  O_21
REMARK    6  A    between atoms: O_21  and  P_22
REMARK    7  A    between atoms: P_22  and  O_24
REMARK    8  A    between atoms: P_22  and  O_26
REMARK                            x       y       z     vdW  Elec       q    Type
REMARK                         _______ _______ _______ _____ _____    ______ ____
ROOT
ATOM      1  O   UNL     1      37.004 -23.639 -13.929  0.00  0.00    -0.334 OA
ATOM      2  C   UNL     1      36.302 -24.975 -12.100  0.00  0.00    +0.144 C 
ATOM      3  C   UNL     1      37.410 -24.760 -13.122  0.00  0.00    +0.174 C 
ATOM      4  C   UNL     1      35.070 -24.480 -12.823  0.00  0.00    +0.084 C 
ATOM      5  C   UNL     1      35.622 -23.349 -13.675  0.00  0.00    +0.209 C 
ENDROOT
BRANCH   5   7
ATOM      6  O   UNL     1      36.863 -22.702 -16.076  0.00  0.00    -0.193 OA
ATOM      7  N   UNL     1      34.930 -23.206 -14.923  0.00  0.00    -0.180 N 
ATOM      8  N   UNL     1      34.945 -22.743 -17.286  0.00  0.00    -0.306 NA
ATOM      9  N   UNL     1      33.011 -22.776 -18.551  0.00  0.00    -0.332 N 
ATOM     10  C   UNL     1      33.558 -23.393 -14.985  0.00  0.00    +0.087 C 
ATOM     11  C   UNL     1      35.643 -22.873 -16.099  0.00  0.00    +0.275 C 
ATOM     12  C   UNL     1      32.865 -23.273 -16.120  0.00  0.00    +0.102 C 
ATOM     13  C   UNL     1      33.649 -22.921 -17.340  0.00  0.00    +0.196 C 
ATOM     14  H   UNL     1      33.529 -22.544 -19.356  0.00  0.00    +0.145 HD
ATOM     15  H   UNL     1      32.038 -22.905 -18.612  0.00  0.00    +0.145 HD
BRANCH  12  17
ATOM     16  O   UNL     1      30.630 -22.879 -16.771  0.00  0.00    -0.283 OA
ATOM     17  C   UNL     1      31.420 -23.494 -16.064  0.00  0.00    +0.239 C 
ENDBRANCH  12  17
ENDBRANCH   5   7
BRANCH   2  18
ATOM     18  O   UNL     1      36.541 -24.168 -10.949  0.00  0.00    -0.382 OA
ATOM     19  H   UNL     1      37.496 -24.031 -10.843  0.00  0.00    +0.210 HD
ENDBRANCH   2  18
BRANCH   3  20
ATOM     20  C   UNL     1      37.603 -25.956 -14.047  0.00  0.00    +0.186 C 
BRANCH  20  21
ATOM     21  O   UNL     1      38.982 -26.286 -14.087  0.00  0.00    -0.271 OA
BRANCH  21  22
ATOM     22  P   UNL     1      40.001 -25.255 -14.805  0.00  0.00    +0.473 P 
ATOM     23  O   UNL     1      40.973 -24.577 -13.884  0.00  0.00    -0.227 OA
BRANCH  22  24
ATOM     24  O   UNL     1      39.025 -24.264 -15.631  0.00  0.00    -0.303 OA
ATOM     25  H   UNL     1      39.534 -23.808 -16.320  0.00  0.00    +0.222 HD
ENDBRANCH  22  24
BRANCH  22  26
ATOM     26  O   UNL     1      40.675 -26.161 -15.962  0.00  0.00    -0.303 OA
ATOM     27  H   UNL     1      40.005 -26.751 -16.342  0.00  0.00    +0.222 HD
ENDBRANCH  22  26
ENDBRANCH  21  22
ENDBRANCH  20  21
ENDBRANCH   3  20
TORSDOF 8
ENDMDL
MODEL 5
REMARK VINA RESULT:      -8.3      1.182      1.383
REMARK  Name = 15081829
REMARK  8 active torsions:
REMARK  status: ('A' for Active; 'I' for Inactive)
REMARK    1  A    between atoms: C_2  and  O_18
REMARK    2  A    between atoms: C_3  and  C_20
REMARK    3  A    between atoms: C_5  and  N_7
REMARK    4  A    between atoms: C_12  and  C_17
REMARK    5  A    between atoms: C_20  and  O_21
REMARK    6  A    between atoms: O_21  and  P_22
REMARK    7  A    between atoms: P_22  and  O_24
REMARK    8  A    between atoms: P_22  and  O_26
REMARK                            x       y       z     vdW  Elec       q    Type
REMARK                         _______ _______ _______ _____ _____    ______ ____
ROOT
ATOM      1  O   UNL     1      35.191 -24.618 -16.012  0.00  0.00    -0.334 OA
ATOM      2  C   UNL     1      36.862 -23.028 -15.464  0.00  0.00    +0.144 C 
ATOM      3  C   UNL     1      36.382 -24.452 -15.220  0.00  0.00    +0.174 C 
ATOM      4  C   UNL     1      35.583 -22.282 -15.764  0.00  0.00    +0.084 C 
ATOM      5  C   UNL     1      34.749 -23.335 -16.477  0.00  0.00    +0.209 C 
ENDROOT
BRANCH   5   7
ATOM      6  O   UNL     1      32.868 -22.738 -18.433  0.00  0.00    -0.193 OA
ATOM      7  N   UNL     1      33.345 -23.196 -16.224  0.00  0.00    -0.180 N 
ATOM      8  N   UNL     1      31.108 -22.763 -17.003  0.00  0.00    -0.306 NA
ATOM      9  N   UNL     1      29.291 -22.781 -15.575  0.00  0.00    -0.332 N 
ATOM     10  C   UNL     1      32.848 -23.362 -14.940  0.00  0.00    +0.087 C 
ATOM     11  C   UNL     1      32.457 -22.890 -17.282  0.00  0.00    +0.275 C 
ATOM     12  C   UNL     1      31.550 -23.245 -14.649  0.00  0.00    +0.102 C 
ATOM     13  C   UNL     1      30.643 -22.921 -15.789  0.00  0.00    +0.196 C 
ATOM     14  H   UNL     1      28.692 -22.567 -16.327  0.00  0.00    +0.145 HD
ATOM     15  H   UNL     1      28.922 -22.895 -14.669  0.00  0.00    +0.145 HD
BRANCH  12  17
ATOM     16  O   UNL     1      30.475 -24.404 -12.895  0.00  0.00    -0.283 OA
ATOM     17  C   UNL     1      31.142 -23.442 -13.258  0.00  0.00    +0.239 C 
ENDBRANCH  12  17
ENDBRANCH   5   7
BRANCH   2  18
ATOM     18  O   UNL     1      37.718 -22.994 -16.605  0.00  0.00    -0.382 OA
ATOM     19  H   UNL     1      37.217 -22.681 -17.375  0.00  0.00    +0.210 HD
ENDBRANCH   2  18
BRANCH   3  20
ATOM     20  C   UNL     1      36.015 -24.712 -13.763  0.00  0.00    +0.186 C 
BRANCH  20  21
ATOM     21  O   UNL     1      36.624 -23.719 -12.954  0.00  0.00    -0.271 OA
BRANCH  21  22
ATOM     22  P   UNL     1      37.574 -24.194 -11.733  0.00  0.00    +0.473 P 
ATOM     23  O   UNL     1      38.081 -25.603 -11.834  0.00  0.00    -0.227 OA
BRANCH  22  24
ATOM     24  O   UNL     1      36.695 -23.869 -10.415  0.00  0.00    -0.303 OA
ATOM     25  H   UNL     1      36.078 -23.145 -10.608  0.00  0.00    +0.222 HD
ENDBRANCH  22  24
BRANCH  22  26
ATOM     26  O   UNL     1      38.722 -23.056 -11.706  0.00  0.00    -0.303 OA
ATOM     27  H   UNL     1      38.609 -22.465 -12.467  0.00  0.00    +0.222 HD
ENDBRANCH  22  26
ENDBRANCH  21  22
ENDBRANCH  20  21
ENDBRANCH   3  20
TORSDOF 8
ENDMDL
MODEL 6
REMARK VINA RESULT:      -8.2      2.001      4.047
REMARK  Name = 15081829
REMARK  8 active torsions:
REMARK  status: ('A' for Active; 'I' for Inactive)
REMARK    1  A    between atoms: C_2  and  O_18
REMARK    2  A    between atoms: C_3  and  C_20
REMARK    3  A    between atoms: C_5  and  N_7
REMARK    4  A    between atoms: C_12  and  C_17
REMARK    5  A    between atoms: C_20  and  O_21
REMARK    6  A    between atoms: O_21  and  P_22
REMARK    7  A    between atoms: P_22  and  O_24
REMARK    8  A    between atoms: P_22  and  O_26
REMARK                            x       y       z     vdW  Elec       q    Type
REMARK                         _______ _______ _______ _____ _____    ______ ____
ROOT
ATOM      1  O   UNL     1      35.867 -22.981 -13.799  0.00  0.00    -0.334 OA
ATOM      2  C   UNL     1      36.407 -25.035 -12.744  0.00  0.00    +0.144 C 
ATOM      3  C   UNL     1      36.945 -23.922 -13.633  0.00  0.00    +0.174 C 
ATOM      4  C   UNL     1      34.929 -25.042 -13.061  0.00  0.00    +0.084 C 
ATOM      5  C   UNL     1      34.645 -23.574 -13.335  0.00  0.00    +0.209 C 
ENDROOT
BRANCH   5   7
ATOM      6  O   UNL     1      31.952 -23.249 -12.734  0.00  0.00    -0.193 OA
ATOM      7  N   UNL     1      33.621 -23.382 -14.321  0.00  0.00    -0.180 N 
ATOM      8  N   UNL     1      31.309 -23.041 -14.899  0.00  0.00    -0.306 NA
ATOM      9  N   UNL     1      30.616 -22.825 -17.093  0.00  0.00    -0.332 N 
ATOM     10  C   UNL     1      33.946 -23.349 -15.667  0.00  0.00    +0.087 C 
ATOM     11  C   UNL     1      32.272 -23.225 -13.924  0.00  0.00    +0.275 C 
ATOM     12  C   UNL     1      33.032 -23.172 -16.625  0.00  0.00    +0.102 C 
ATOM     13  C   UNL     1      31.620 -23.010 -16.170  0.00  0.00    +0.196 C 
ATOM     14  H   UNL     1      29.684 -22.718 -16.793  0.00  0.00    +0.145 HD
ATOM     15  H   UNL     1      30.830 -22.799 -18.054  0.00  0.00    +0.145 HD
BRANCH  12  17
ATOM     16  O   UNL     1      32.968 -22.458 -18.875  0.00  0.00    -0.283 OA
ATOM     17  C   UNL     1      33.493 -23.154 -18.013  0.00  0.00    +0.239 C 
ENDBRANCH  12  17
ENDBRANCH   5   7
BRANCH   2  18
ATOM     18  O   UNL     1      36.602 -24.697 -11.372  0.00  0.00    -0.382 OA
ATOM     19  H   UNL     1      36.726 -25.508 -10.853  0.00  0.00    +0.210 HD
ENDBRANCH   2  18
BRANCH   3  20
ATOM     20  C   UNL     1      37.353 -24.415 -15.016  0.00  0.00    +0.186 C 
BRANCH  20  21
ATOM     21  O   UNL     1      38.745 -24.199 -15.186  0.00  0.00    -0.271 OA
BRANCH  21  22
ATOM     22  P   UNL     1      39.764 -25.396 -14.804  0.00  0.00    +0.473 P 
ATOM     23  O   UNL     1      39.169 -26.497 -13.977  0.00  0.00    -0.227 OA
BRANCH  22  24
ATOM     24  O   UNL     1      41.021 -24.630 -14.135  0.00  0.00    -0.303 OA
ATOM     25  H   UNL     1      40.914 -23.673 -14.247  0.00  0.00    +0.222 HD
ENDBRANCH  22  24
BRANCH  22  26
ATOM     26  O   UNL     1      40.334 -25.857 -16.246  0.00  0.00    -0.303 OA
ATOM     27  H   UNL     1      41.257 -26.140 -16.153  0.00  0.00    +0.222 HD
ENDBRANCH  22  26
ENDBRANCH  21  22
ENDBRANCH  20  21
ENDBRANCH   3  20
TORSDOF 8
ENDMDL
MODEL 7
REMARK VINA RESULT:      -8.1      2.858      4.572
REMARK  Name = 15081829
REMARK  8 active torsions:
REMARK  status: ('A' for Active; 'I' for Inactive)
REMARK    1  A    between atoms: C_2  and  O_18
REMARK    2  A    between atoms: C_3  and  C_20
REMARK    3  A    between atoms: C_5  and  N_7
REMARK    4  A    between atoms: C_12  and  C_17
REMARK    5  A    between atoms: C_20  and  O_21
REMARK    6  A    between atoms: O_21  and  P_22
REMARK    7  A    between atoms: P_22  and  O_24
REMARK    8  A    between atoms: P_22  and  O_26
REMARK                            x       y       z     vdW  Elec       q    Type
REMARK                         _______ _______ _______ _____ _____    ______ ____
ROOT
ATOM      1  O   UNL     1      37.129 -23.795 -14.422  0.00  0.00    -0.334 OA
ATOM      2  C   UNL     1      35.589 -25.411 -13.622  0.00  0.00    +0.144 C 
ATOM      3  C   UNL     1      37.062 -25.134 -13.895  0.00  0.00    +0.174 C 
ATOM      4  C   UNL     1      34.884 -24.556 -14.649  0.00  0.00    +0.084 C 
ATOM      5  C   UNL     1      35.808 -23.355 -14.766  0.00  0.00    +0.209 C 
ENDROOT
BRANCH   5   7
ATOM      6  O   UNL     1      37.917 -21.868 -15.799  0.00  0.00    -0.193 OA
ATOM      7  N   UNL     1      35.824 -22.793 -16.086  0.00  0.00    -0.180 N 
ATOM      8  N   UNL     1      36.925 -21.521 -17.808  0.00  0.00    -0.306 NA
ATOM      9  N   UNL     1      35.945 -21.146 -19.867  0.00  0.00    -0.332 N 
ATOM     10  C   UNL     1      34.744 -22.977 -16.935  0.00  0.00    +0.087 C 
ATOM     11  C   UNL     1      36.942 -22.048 -16.530  0.00  0.00    +0.275 C 
ATOM     12  C   UNL     1      34.707 -22.477 -18.172  0.00  0.00    +0.102 C 
ATOM     13  C   UNL     1      35.902 -21.697 -18.607  0.00  0.00    +0.196 C 
ATOM     14  H   UNL     1      36.734 -20.631 -20.154  0.00  0.00    +0.145 HD
ATOM     15  H   UNL     1      35.186 -21.267 -20.482  0.00  0.00    +0.145 HD
BRANCH  12  17
ATOM     16  O   UNL     1      32.924 -21.853 -19.589  0.00  0.00    -0.283 OA
ATOM     17  C   UNL     1      33.513 -22.737 -18.978  0.00  0.00    +0.239 C 
ENDBRANCH  12  17
ENDBRANCH   5   7
BRANCH   2  18
ATOM     18  O   UNL     1      35.248 -24.967 -12.310  0.00  0.00    -0.382 OA
ATOM     19  H   UNL     1      35.132 -24.003 -12.315  0.00  0.00    +0.210 HD
ENDBRANCH   2  18
BRANCH   3  20
ATOM     20  C   UNL     1      37.659 -26.076 -14.932  0.00  0.00    +0.186 C 
BRANCH  20  21
ATOM     21  O   UNL     1      38.774 -26.740 -14.359  0.00  0.00    -0.271 OA
BRANCH  21  22
ATOM     22  P   UNL     1      40.241 -26.082 -14.541  0.00  0.00    +0.473 P 
ATOM     23  O   UNL     1      41.376 -26.904 -14.004  0.00  0.00    -0.227 OA
BRANCH  22  24
ATOM     24  O   UNL     1      40.084 -24.610 -13.891  0.00  0.00    -0.303 OA
ATOM     25  H   UNL     1      40.436 -24.616 -12.987  0.00  0.00    +0.222 HD
ENDBRANCH  22  24
BRANCH  22  26
ATOM     26  O   UNL     1      40.306 -25.783 -16.129  0.00  0.00    -0.303 OA
ATOM     27  H   UNL     1      39.500 -25.318 -16.404  0.00  0.00    +0.222 HD
ENDBRANCH  22  26
ENDBRANCH  21  22
ENDBRANCH  20  21
ENDBRANCH   3  20
TORSDOF 8
ENDMDL
MODEL 8
REMARK VINA RESULT:      -8.0      8.356     11.123
REMARK  Name = 15081829
REMARK  8 active torsions:
REMARK  status: ('A' for Active; 'I' for Inactive)
REMARK    1  A    between atoms: C_2  and  O_18
REMARK    2  A    between atoms: C_3  and  C_20
REMARK    3  A    between atoms: C_5  and  N_7
REMARK    4  A    between atoms: C_12  and  C_17
REMARK    5  A    between atoms: C_20  and  O_21
REMARK    6  A    between atoms: O_21  and  P_22
REMARK    7  A    between atoms: P_22  and  O_24
REMARK    8  A    between atoms: P_22  and  O_26
REMARK                            x       y       z     vdW  Elec       q    Type
REMARK                         _______ _______ _______ _____ _____    ______ ____
ROOT
ATOM      1  O   UNL     1      35.796 -16.740 -22.772  0.00  0.00    -0.334 OA
ATOM      2  C   UNL     1      34.411 -16.937 -24.687  0.00  0.00    +0.144 C 
ATOM      3  C   UNL     1      34.812 -16.020 -23.538  0.00  0.00    +0.174 C 
ATOM      4  C   UNL     1      34.615 -18.318 -24.109  0.00  0.00    +0.084 C 
ATOM      5  C   UNL     1      35.804 -18.114 -23.184  0.00  0.00    +0.209 C 
ENDROOT
BRANCH   5   7
ATOM      6  O   UNL     1      38.031 -18.811 -21.675  0.00  0.00    -0.193 OA
ATOM      7  N   UNL     1      35.756 -18.958 -22.025  0.00  0.00    -0.180 N 
ATOM      8  N   UNL     1      36.861 -20.077 -20.202  0.00  0.00    -0.306 NA
ATOM      9  N   UNL     1      35.701 -21.376 -18.681  0.00  0.00    -0.332 N 
ATOM     10  C   UNL     1      34.548 -19.480 -21.592  0.00  0.00    +0.087 C 
ATOM     11  C   UNL     1      36.942 -19.261 -21.315  0.00  0.00    +0.275 C 
ATOM     12  C   UNL     1      34.446 -20.269 -20.519  0.00  0.00    +0.102 C 
ATOM     13  C   UNL     1      35.717 -20.569 -19.796  0.00  0.00    +0.196 C 
ATOM     14  H   UNL     1      36.540 -21.573 -18.204  0.00  0.00    +0.145 HD
ATOM     15  H   UNL     1      34.851 -21.755 -18.361  0.00  0.00    +0.145 HD
BRANCH  12  17
ATOM     16  O   UNL     1      32.916 -21.914 -19.794  0.00  0.00    -0.283 OA
ATOM     17  C   UNL     1      33.117 -20.761 -20.157  0.00  0.00    +0.239 C 
ENDBRANCH  12  17
ENDBRANCH   5   7
BRANCH   2  18
ATOM     18  O   UNL     1      35.292 -16.743 -25.791  0.00  0.00    -0.382 OA
ATOM     19  H   UNL     1      36.129 -16.366 -25.475  0.00  0.00    +0.210 HD
ENDBRANCH   2  18
BRANCH   3  20
ATOM     20  C   UNL     1      33.648 -15.688 -22.612  0.00  0.00    +0.186 C 
BRANCH  20  21
ATOM     21  O   UNL     1      33.649 -14.292 -22.359  0.00  0.00    -0.271 OA
BRANCH  21  22
ATOM     22  P   UNL     1      33.006 -13.306 -23.469  0.00  0.00    +0.473 P 
ATOM     23  O   UNL     1      32.586 -13.974 -24.745  0.00  0.00    -0.227 OA
BRANCH  22  24
ATOM     24  O   UNL     1      34.113 -12.139 -23.632  0.00  0.00    -0.303 OA
ATOM     25  H   UNL     1      34.527 -12.204 -24.507  0.00  0.00    +0.222 HD
ENDBRANCH  22  24
BRANCH  22  26
ATOM     26  O   UNL     1      31.814 -12.577 -22.656  0.00  0.00    -0.303 OA
ATOM     27  H   UNL     1      31.485 -11.823 -23.170  0.00  0.00    +0.222 HD
ENDBRANCH  22  26
ENDBRANCH  21  22
ENDBRANCH  20  21
ENDBRANCH   3  20
TORSDOF 8
ENDMDL
MODEL 9
REMARK VINA RESULT:      -7.8      2.201      4.359
REMARK  Name = 15081829
REMARK  8 active torsions:
REMARK  status: ('A' for Active; 'I' for Inactive)
REMARK    1  A    between atoms: C_2  and  O_18
REMARK    2  A    between atoms: C_3  and  C_20
REMARK    3  A    between atoms: C_5  and  N_7
REMARK    4  A    between atoms: C_12  and  C_17
REMARK    5  A    between atoms: C_20  and  O_21
REMARK    6  A    between atoms: O_21  and  P_22
REMARK    7  A    between atoms: P_22  and  O_24
REMARK    8  A    between atoms: P_22  and  O_26
REMARK                            x       y       z     vdW  Elec       q    Type
REMARK                         _______ _______ _______ _____ _____    ______ ____
ROOT
ATOM      1  O   UNL     1      36.085 -23.008 -12.894  0.00  0.00    -0.334 OA
ATOM      2  C   UNL     1      36.604 -25.209 -12.181  0.00  0.00    +0.144 C 
ATOM      3  C   UNL     1      37.116 -23.776 -12.245  0.00  0.00    +0.174 C 
ATOM      4  C   UNL     1      35.705 -25.306 -13.391  0.00  0.00    +0.084 C 
ATOM      5  C   UNL     1      35.131 -23.901 -13.487  0.00  0.00    +0.209 C 
ENDROOT
BRANCH   5   7
ATOM      6  O   UNL     1      32.702 -24.255 -14.789  0.00  0.00    -0.193 OA
ATOM      7  N   UNL     1      34.880 -23.496 -14.840  0.00  0.00    -0.180 N 
ATOM      8  N   UNL     1      33.400 -23.313 -16.731  0.00  0.00    -0.306 NA
ATOM      9  N   UNL     1      34.076 -22.360 -18.725  0.00  0.00    -0.332 N 
ATOM     10  C   UNL     1      35.878 -22.886 -15.583  0.00  0.00    +0.087 C 
ATOM     11  C   UNL     1      33.610 -23.716 -15.424  0.00  0.00    +0.275 C 
ATOM     12  C   UNL     1      35.697 -22.489 -16.845  0.00  0.00    +0.102 C 
ATOM     13  C   UNL     1      34.346 -22.737 -17.429  0.00  0.00    +0.196 C 
ATOM     14  H   UNL     1      33.185 -22.524 -19.110  0.00  0.00    +0.145 HD
ATOM     15  H   UNL     1      34.774 -21.926 -19.266  0.00  0.00    +0.145 HD
BRANCH  12  17
ATOM     16  O   UNL     1      36.676 -20.992 -18.386  0.00  0.00    -0.283 OA
ATOM     17  C   UNL     1      36.824 -21.856 -17.529  0.00  0.00    +0.239 C 
ENDBRANCH  12  17
ENDBRANCH   5   7
BRANCH   2  18
ATOM     18  O   UNL     1      35.835 -25.395 -10.994  0.00  0.00    -0.382 OA
ATOM     19  H   UNL     1      35.399 -24.561 -10.757  0.00  0.00    +0.210 HD
ENDBRANCH   2  18
BRANCH   3  20
ATOM     20  C   UNL     1      38.390 -23.639 -13.069  0.00  0.00    +0.186 C 
BRANCH  20  21
ATOM     21  O   UNL     1      39.073 -24.882 -13.067  0.00  0.00    -0.271 OA
BRANCH  21  22
ATOM     22  P   UNL     1      39.659 -25.443 -14.467  0.00  0.00    +0.473 P 
ATOM     23  O   UNL     1      41.133 -25.722 -14.471  0.00  0.00    -0.227 OA
BRANCH  22  24
ATOM     24  O   UNL     1      39.157 -24.357 -15.554  0.00  0.00    -0.303 OA
ATOM     25  H   UNL     1      38.860 -23.554 -15.098  0.00  0.00    +0.222 HD
ENDBRANCH  22  24
BRANCH  22  26
ATOM     26  O   UNL     1      38.720 -26.726 -14.762  0.00  0.00    -0.303 OA
ATOM     27  H   UNL     1      37.888 -26.432 -15.166  0.00  0.00    +0.222 HD
ENDBRANCH  22  26
ENDBRANCH  21  22
ENDBRANCH  20  21
ENDBRANCH   3  20
TORSDOF 8
ENDMDL
