MODEL 1
REMARK VINA RESULT:      -6.6      0.000      0.000
REMARK  Name = 3516
REMARK  7 active torsions:
REMARK  status: ('A' for Active; 'I' for Inactive)
REMARK    1  A    between atoms: O_1  and  C_2
REMARK    2  A    between atoms: O_1  and  C_10
REMARK    3  A    between atoms: C_3  and  O_8
REMARK    4  A    between atoms: C_10  and  C_11
REMARK    5  A    between atoms: C_11  and  O_12
REMARK    6  A    between atoms: C_11  and  C_14
REMARK    7  A    between atoms: C_14  and  O_15
REMARK                            x       y       z     vdW  Elec       q    Type
REMARK                         _______ _______ _______ _____ _____    ______ ____
ROOT
ATOM      1  O   UNL     1      34.789 -19.350 -20.635  0.00  0.00    -0.470 OA
ENDROOT
BRANCH   1   2
ATOM      2  C   UNL     1      34.849 -18.613 -21.788  0.00  0.00    +0.172 C 
ATOM      3  C   UNL     1      35.007 -17.232 -21.731  0.00  0.00    +0.172 C 
ATOM      4  C   UNL     1      34.750 -19.262 -23.014  0.00  0.00    +0.040 C 
ATOM      5  C   UNL     1      35.067 -16.492 -22.912  0.00  0.00    +0.040 C 
ATOM      6  C   UNL     1      34.809 -18.523 -24.195  0.00  0.00    +0.003 C 
ATOM      7  C   UNL     1      34.968 -17.138 -24.145  0.00  0.00    +0.003 C 
BRANCH   3   8
ATOM      8  O   UNL     1      35.104 -16.590 -20.532  0.00  0.00    -0.468 OA
ATOM      9  C   UNL     1      34.540 -15.283 -20.450  0.00  0.00    +0.253 C 
ENDBRANCH   3   8
ENDBRANCH   1   2
BRANCH   1  10
ATOM     10  C   UNL     1      33.639 -20.170 -20.459  0.00  0.00    +0.237 C 
BRANCH  10  11
ATOM     11  C   UNL     1      33.943 -21.280 -19.458  0.00  0.00    +0.183 C 
BRANCH  11  12
ATOM     12  O   UNL     1      33.042 -22.365 -19.691  0.00  0.00    -0.378 OA
ATOM     13  H   UNL     1      33.544 -23.154 -19.946  0.00  0.00    +0.211 HD
ENDBRANCH  11  12
BRANCH  11  14
ATOM     14  C   UNL     1      35.364 -21.805 -19.624  0.00  0.00    +0.170 C 
BRANCH  14  15
ATOM     15  O   UNL     1      36.248 -20.993 -18.858  0.00  0.00    -0.379 OA
ATOM     16  H   UNL     1      36.861 -21.560 -18.365  0.00  0.00    +0.211 HD
ENDBRANCH  14  15
ENDBRANCH  11  14
ENDBRANCH  10  11
ENDBRANCH   1  10
TORSDOF 7
ENDMDL
MODEL 2
REMARK VINA RESULT:      -6.5      5.096      8.307
REMARK  Name = 3516
REMARK  7 active torsions:
REMARK  status: ('A' for Active; 'I' for Inactive)
REMARK    1  A    between atoms: O_1  and  C_2
REMARK    2  A    between atoms: O_1  and  C_10
REMARK    3  A    between atoms: C_3  and  O_8
REMARK    4  A    between atoms: C_10  and  C_11
REMARK    5  A    between atoms: C_11  and  O_12
REMARK    6  A    between atoms: C_11  and  C_14
REMARK    7  A    between atoms: C_14  and  O_15
REMARK                            x       y       z     vdW  Elec       q    Type
REMARK                         _______ _______ _______ _____ _____    ______ ____
ROOT
ATOM      1  O   UNL     1      30.443 -22.593 -17.039  0.00  0.00    -0.470 OA
ENDROOT
BRANCH   1   2
ATOM      2  C   UNL     1      31.687 -22.907 -16.562  0.00  0.00    +0.172 C 
ATOM      3  C   UNL     1      32.792 -22.872 -17.407  0.00  0.00    +0.172 C 
ATOM      4  C   UNL     1      31.832 -23.261 -15.224  0.00  0.00    +0.040 C 
ATOM      5  C   UNL     1      34.055 -23.194 -16.909  0.00  0.00    +0.040 C 
ATOM      6  C   UNL     1      33.094 -23.584 -14.727  0.00  0.00    +0.003 C 
ATOM      7  C   UNL     1      34.206 -23.550 -15.568  0.00  0.00    +0.003 C 
BRANCH   3   8
ATOM      8  O   UNL     1      32.656 -22.528 -18.718  0.00  0.00    -0.468 OA
ATOM      9  C   UNL     1      33.713 -21.768 -19.301  0.00  0.00    +0.253 C 
ENDBRANCH   3   8
ENDBRANCH   1   2
BRANCH   1  10
ATOM     10  C   UNL     1      29.334 -23.203 -16.387  0.00  0.00    +0.237 C 
BRANCH  10  11
ATOM     11  C   UNL     1      28.031 -22.662 -16.966  0.00  0.00    +0.183 C 
BRANCH  11  12
ATOM     12  O   UNL     1      27.412 -23.693 -17.739  0.00  0.00    -0.378 OA
ATOM     13  H   UNL     1      26.615 -24.005 -17.284  0.00  0.00    +0.211 HD
ENDBRANCH  11  12
BRANCH  11  14
ATOM     14  C   UNL     1      27.061 -22.253 -15.865  0.00  0.00    +0.170 C 
BRANCH  14  15
ATOM     15  O   UNL     1      25.812 -21.908 -16.456  0.00  0.00    -0.379 OA
ATOM     16  H   UNL     1      25.218 -22.674 -16.425  0.00  0.00    +0.211 HD
ENDBRANCH  14  15
ENDBRANCH  11  14
ENDBRANCH  10  11
ENDBRANCH   1  10
TORSDOF 7
ENDMDL
MODEL 3
REMARK VINA RESULT:      -6.4      3.994      6.081
REMARK  Name = 3516
REMARK  7 active torsions:
REMARK  status: ('A' for Active; 'I' for Inactive)
REMARK    1  A    between atoms: O_1  and  C_2
REMARK    2  A    between atoms: O_1  and  C_10
REMARK    3  A    between atoms: C_3  and  O_8
REMARK    4  A    between atoms: C_10  and  C_11
REMARK    5  A    between atoms: C_11  and  O_12
REMARK    6  A    between atoms: C_11  and  C_14
REMARK    7  A    between atoms: C_14  and  O_15
REMARK                            x       y       z     vdW  Elec       q    Type
REMARK                         _______ _______ _______ _____ _____    ______ ____
ROOT
ATOM      1  O   UNL     1      35.041 -15.062 -23.417  0.00  0.00    -0.470 OA
ENDROOT
BRANCH   1   2
ATOM      2  C   UNL     1      34.919 -16.405 -23.653  0.00  0.00    +0.172 C 
ATOM      3  C   UNL     1      34.593 -16.867 -24.925  0.00  0.00    +0.172 C 
ATOM      4  C   UNL     1      35.124 -17.299 -22.608  0.00  0.00    +0.040 C 
ATOM      5  C   UNL     1      34.472 -18.237 -25.153  0.00  0.00    +0.040 C 
ATOM      6  C   UNL     1      35.002 -18.670 -22.836  0.00  0.00    +0.003 C 
ATOM      7  C   UNL     1      34.677 -19.139 -24.108  0.00  0.00    +0.003 C 
BRANCH   3   8
ATOM      8  O   UNL     1      34.390 -15.995 -25.952  0.00  0.00    -0.468 OA
ATOM      9  C   UNL     1      33.059 -15.519 -26.143  0.00  0.00    +0.253 C 
ENDBRANCH   3   8
ENDBRANCH   1   2
BRANCH   1  10
ATOM     10  C   UNL     1      34.240 -14.520 -22.373  0.00  0.00    +0.237 C 
BRANCH  10  11
ATOM     11  C   UNL     1      32.933 -13.983 -22.948  0.00  0.00    +0.183 C 
BRANCH  11  12
ATOM     12  O   UNL     1      31.915 -14.090 -21.949  0.00  0.00    -0.378 OA
ATOM     13  H   UNL     1      32.288 -13.864 -21.082  0.00  0.00    +0.211 HD
ENDBRANCH  11  12
BRANCH  11  14
ATOM     14  C   UNL     1      33.057 -12.516 -23.337  0.00  0.00    +0.170 C 
BRANCH  14  15
ATOM     15  O   UNL     1      34.235 -12.343 -24.118  0.00  0.00    -0.379 OA
ATOM     16  H   UNL     1      34.990 -12.744 -23.658  0.00  0.00    +0.211 HD
ENDBRANCH  14  15
ENDBRANCH  11  14
ENDBRANCH  10  11
ENDBRANCH   1  10
TORSDOF 7
ENDMDL
MODEL 4
REMARK VINA RESULT:      -6.4      3.747      5.695
REMARK  Name = 3516
REMARK  7 active torsions:
REMARK  status: ('A' for Active; 'I' for Inactive)
REMARK    1  A    between atoms: O_1  and  C_2
REMARK    2  A    between atoms: O_1  and  C_10
REMARK    3  A    between atoms: C_3  and  O_8
REMARK    4  A    between atoms: C_10  and  C_11
REMARK    5  A    between atoms: C_11  and  O_12
REMARK    6  A    between atoms: C_11  and  C_14
REMARK    7  A    between atoms: C_14  and  O_15
REMARK                            x       y       z     vdW  Elec       q    Type
REMARK                         _______ _______ _______ _____ _____    ______ ____
ROOT
ATOM      1  O   UNL     1      36.776 -22.394 -17.714  0.00  0.00    -0.470 OA
ENDROOT
BRANCH   1   2
ATOM      2  C   UNL     1      35.825 -21.881 -18.555  0.00  0.00    +0.172 C 
ATOM      3  C   UNL     1      34.502 -22.302 -18.457  0.00  0.00    +0.172 C 
ATOM      4  C   UNL     1      36.197 -20.935 -19.504  0.00  0.00    +0.040 C 
ATOM      5  C   UNL     1      33.542 -21.772 -19.319  0.00  0.00    +0.040 C 
ATOM      6  C   UNL     1      35.237 -20.406 -20.366  0.00  0.00    +0.003 C 
ATOM      7  C   UNL     1      33.909 -20.823 -20.273  0.00  0.00    +0.003 C 
BRANCH   3   8
ATOM      8  O   UNL     1      34.132 -23.230 -17.530  0.00  0.00    -0.468 OA
ATOM      9  C   UNL     1      32.768 -23.220 -17.113  0.00  0.00    +0.253 C 
ENDBRANCH   3   8
ENDBRANCH   1   2
BRANCH   1  10
ATOM     10  C   UNL     1      37.154 -21.585 -16.605  0.00  0.00    +0.237 C 
BRANCH  10  11
ATOM     11  C   UNL     1      36.923 -22.347 -15.305  0.00  0.00    +0.183 C 
BRANCH  11  12
ATOM     12  O   UNL     1      35.517 -22.411 -15.054  0.00  0.00    -0.378 OA
ATOM     13  H   UNL     1      35.333 -22.087 -14.159  0.00  0.00    +0.211 HD
ENDBRANCH  11  12
BRANCH  11  14
ATOM     14  C   UNL     1      37.450 -23.774 -15.395  0.00  0.00    +0.170 C 
BRANCH  14  15
ATOM     15  O   UNL     1      38.817 -23.737 -15.790  0.00  0.00    -0.379 OA
ATOM     16  H   UNL     1      39.373 -23.567 -15.014  0.00  0.00    +0.211 HD
ENDBRANCH  14  15
ENDBRANCH  11  14
ENDBRANCH  10  11
ENDBRANCH   1  10
TORSDOF 7
ENDMDL
MODEL 5
REMARK VINA RESULT:      -6.4      3.223      5.729
REMARK  Name = 3516
REMARK  7 active torsions:
REMARK  status: ('A' for Active; 'I' for Inactive)
REMARK    1  A    between atoms: O_1  and  C_2
REMARK    2  A    between atoms: O_1  and  C_10
REMARK    3  A    between atoms: C_3  and  O_8
REMARK    4  A    between atoms: C_10  and  C_11
REMARK    5  A    between atoms: C_11  and  O_12
REMARK    6  A    between atoms: C_11  and  C_14
REMARK    7  A    between atoms: C_14  and  O_15
REMARK                            x       y       z     vdW  Elec       q    Type
REMARK                         _______ _______ _______ _____ _____    ______ ____
ROOT
ATOM      1  O   UNL     1      34.895 -16.085 -24.468  0.00  0.00    -0.470 OA
ENDROOT
BRANCH   1   2
ATOM      2  C   UNL     1      34.888 -17.060 -23.506  0.00  0.00    +0.172 C 
ATOM      3  C   UNL     1      34.894 -16.715 -22.158  0.00  0.00    +0.172 C 
ATOM      4  C   UNL     1      34.873 -18.396 -23.894  0.00  0.00    +0.040 C 
ATOM      5  C   UNL     1      34.886 -17.717 -21.188  0.00  0.00    +0.040 C 
ATOM      6  C   UNL     1      34.866 -19.397 -22.924  0.00  0.00    +0.003 C 
ATOM      7  C   UNL     1      34.872 -19.059 -21.571  0.00  0.00    +0.003 C 
BRANCH   3   8
ATOM      8  O   UNL     1      34.910 -15.409 -21.773  0.00  0.00    -0.468 OA
ATOM      9  C   UNL     1      34.203 -15.077 -20.579  0.00  0.00    +0.253 C 
ENDBRANCH   3   8
ENDBRANCH   1   2
BRANCH   1  10
ATOM     10  C   UNL     1      33.758 -16.020 -25.322  0.00  0.00    +0.237 C 
BRANCH  10  11
ATOM     11  C   UNL     1      33.365 -14.564 -25.550  0.00  0.00    +0.183 C 
BRANCH  11  12
ATOM     12  O   UNL     1      32.204 -14.529 -26.384  0.00  0.00    -0.378 OA
ATOM     13  H   UNL     1      31.920 -15.435 -26.582  0.00  0.00    +0.211 HD
ENDBRANCH  11  12
BRANCH  11  14
ATOM     14  C   UNL     1      33.024 -13.867 -24.240  0.00  0.00    +0.170 C 
BRANCH  14  15
ATOM     15  O   UNL     1      34.215 -13.318 -23.685  0.00  0.00    -0.379 OA
ATOM     16  H   UNL     1      34.051 -13.048 -22.769  0.00  0.00    +0.211 HD
ENDBRANCH  14  15
ENDBRANCH  11  14
ENDBRANCH  10  11
ENDBRANCH   1  10
TORSDOF 7
ENDMDL
MODEL 6
REMARK VINA RESULT:      -6.2      2.764      4.362
REMARK  Name = 3516
REMARK  7 active torsions:
REMARK  status: ('A' for Active; 'I' for Inactive)
REMARK    1  A    between atoms: O_1  and  C_2
REMARK    2  A    between atoms: O_1  and  C_10
REMARK    3  A    between atoms: C_3  and  O_8
REMARK    4  A    between atoms: C_10  and  C_11
REMARK    5  A    between atoms: C_11  and  O_12
REMARK    6  A    between atoms: C_11  and  C_14
REMARK    7  A    between atoms: C_14  and  O_15
REMARK                            x       y       z     vdW  Elec       q    Type
REMARK                         _______ _______ _______ _____ _____    ______ ____
ROOT
ATOM      1  O   UNL     1      35.490 -22.445 -18.806  0.00  0.00    -0.470 OA
ENDROOT
BRANCH   1   2
ATOM      2  C   UNL     1      34.763 -21.503 -19.484  0.00  0.00    +0.172 C 
ATOM      3  C   UNL     1      35.409 -20.516 -20.223  0.00  0.00    +0.172 C 
ATOM      4  C   UNL     1      33.374 -21.546 -19.426  0.00  0.00    +0.040 C 
ATOM      5  C   UNL     1      34.657 -19.563 -20.910  0.00  0.00    +0.040 C 
ATOM      6  C   UNL     1      32.623 -20.593 -20.112  0.00  0.00    +0.003 C 
ATOM      7  C   UNL     1      33.264 -19.602 -20.855  0.00  0.00    +0.003 C 
BRANCH   3   8
ATOM      8  O   UNL     1      36.769 -20.468 -20.283  0.00  0.00    -0.468 OA
ATOM      9  C   UNL     1      37.350 -19.321 -20.900  0.00  0.00    +0.253 C 
ENDBRANCH   3   8
ENDBRANCH   1   2
BRANCH   1  10
ATOM     10  C   UNL     1      35.623 -22.260 -17.401  0.00  0.00    +0.237 C 
BRANCH  10  11
ATOM     11  C   UNL     1      37.093 -22.075 -17.040  0.00  0.00    +0.183 C 
BRANCH  11  12
ATOM     12  O   UNL     1      37.362 -20.675 -16.919  0.00  0.00    -0.378 OA
ATOM     13  H   UNL     1      38.104 -20.437 -17.497  0.00  0.00    +0.211 HD
ENDBRANCH  11  12
BRANCH  11  14
ATOM     14  C   UNL     1      37.427 -22.735 -15.709  0.00  0.00    +0.170 C 
BRANCH  14  15
ATOM     15  O   UNL     1      38.659 -23.437 -15.838  0.00  0.00    -0.379 OA
ATOM     16  H   UNL     1      39.139 -23.108 -16.614  0.00  0.00    +0.211 HD
ENDBRANCH  14  15
ENDBRANCH  11  14
ENDBRANCH  10  11
ENDBRANCH   1  10
TORSDOF 7
ENDMDL
MODEL 7
REMARK VINA RESULT:      -6.2      3.667      5.404
REMARK  Name = 3516
REMARK  7 active torsions:
REMARK  status: ('A' for Active; 'I' for Inactive)
REMARK    1  A    between atoms: O_1  and  C_2
REMARK    2  A    between atoms: O_1  and  C_10
REMARK    3  A    between atoms: C_3  and  O_8
REMARK    4  A    between atoms: C_10  and  C_11
REMARK    5  A    between atoms: C_11  and  O_12
REMARK    6  A    between atoms: C_11  and  C_14
REMARK    7  A    between atoms: C_14  and  O_15
REMARK                            x       y       z     vdW  Elec       q    Type
REMARK                         _______ _______ _______ _____ _____    ______ ____
ROOT
ATOM      1  O   UNL     1      34.195 -23.449 -17.703  0.00  0.00    -0.470 OA
ENDROOT
BRANCH   1   2
ATOM      2  C   UNL     1      34.426 -22.416 -18.572  0.00  0.00    +0.172 C 
ATOM      3  C   UNL     1      35.700 -21.870 -18.690  0.00  0.00    +0.172 C 
ATOM      4  C   UNL     1      33.372 -21.922 -19.334  0.00  0.00    +0.040 C 
ATOM      5  C   UNL     1      35.923 -20.819 -19.580  0.00  0.00    +0.040 C 
ATOM      6  C   UNL     1      33.595 -20.870 -20.222  0.00  0.00    +0.003 C 
ATOM      7  C   UNL     1      34.870 -20.319 -20.346  0.00  0.00    +0.003 C 
BRANCH   3   8
ATOM      8  O   UNL     1      36.736 -22.350 -17.946  0.00  0.00    -0.468 OA
ATOM      9  C   UNL     1      37.176 -21.545 -16.854  0.00  0.00    +0.253 C 
ENDBRANCH   3   8
ENDBRANCH   1   2
BRANCH   1  10
ATOM     10  C   UNL     1      33.309 -23.187 -16.620  0.00  0.00    +0.237 C 
BRANCH  10  11
ATOM     11  C   UNL     1      34.093 -23.127 -15.313  0.00  0.00    +0.183 C 
BRANCH  11  12
ATOM     12  O   UNL     1      33.180 -22.869 -14.243  0.00  0.00    -0.378 OA
ATOM     13  H   UNL     1      32.982 -23.698 -13.779  0.00  0.00    +0.211 HD
ENDBRANCH  11  12
BRANCH  11  14
ATOM     14  C   UNL     1      34.794 -24.448 -15.024  0.00  0.00    +0.170 C 
BRANCH  14  15
ATOM     15  O   UNL     1      35.977 -24.525 -15.812  0.00  0.00    -0.379 OA
ATOM     16  H   UNL     1      35.799 -24.174 -16.698  0.00  0.00    +0.211 HD
ENDBRANCH  14  15
ENDBRANCH  11  14
ENDBRANCH  10  11
ENDBRANCH   1  10
TORSDOF 7
ENDMDL
MODEL 8
REMARK VINA RESULT:      -6.2      7.278      9.298
REMARK  Name = 3516
REMARK  7 active torsions:
REMARK  status: ('A' for Active; 'I' for Inactive)
REMARK    1  A    between atoms: O_1  and  C_2
REMARK    2  A    between atoms: O_1  and  C_10
REMARK    3  A    between atoms: C_3  and  O_8
REMARK    4  A    between atoms: C_10  and  C_11
REMARK    5  A    between atoms: C_11  and  O_12
REMARK    6  A    between atoms: C_11  and  C_14
REMARK    7  A    between atoms: C_14  and  O_15
REMARK                            x       y       z     vdW  Elec       q    Type
REMARK                         _______ _______ _______ _____ _____    ______ ____
ROOT
ATOM      1  O   UNL     1      35.933 -24.921 -13.811  0.00  0.00    -0.470 OA
ENDROOT
BRANCH   1   2
ATOM      2  C   UNL     1      36.177 -24.030 -14.821  0.00  0.00    +0.172 C 
ATOM      3  C   UNL     1      37.475 -23.602 -15.080  0.00  0.00    +0.172 C 
ATOM      4  C   UNL     1      35.113 -23.560 -15.584  0.00  0.00    +0.040 C 
ATOM      5  C   UNL     1      37.712 -22.694 -16.112  0.00  0.00    +0.040 C 
ATOM      6  C   UNL     1      35.349 -22.651 -16.615  0.00  0.00    +0.003 C 
ATOM      7  C   UNL     1      36.648 -22.219 -16.880  0.00  0.00    +0.003 C 
BRANCH   3   8
ATOM      8  O   UNL     1      38.521 -24.058 -14.336  0.00  0.00    -0.468 OA
ATOM      9  C   UNL     1      39.261 -25.158 -14.863  0.00  0.00    +0.253 C 
ENDBRANCH   3   8
ENDBRANCH   1   2
BRANCH   1  10
ATOM     10  C   UNL     1      35.320 -24.403 -12.635  0.00  0.00    +0.237 C 
BRANCH  10  11
ATOM     11  C   UNL     1      36.346 -24.319 -11.510  0.00  0.00    +0.183 C 
BRANCH  11  12
ATOM     12  O   UNL     1      37.377 -25.278 -11.758  0.00  0.00    -0.378 OA
ATOM     13  H   UNL     1      38.189 -24.819 -12.022  0.00  0.00    +0.211 HD
ENDBRANCH  11  12
BRANCH  11  14
ATOM     14  C   UNL     1      36.991 -22.940 -11.448  0.00  0.00    +0.170 C 
BRANCH  14  15
ATOM     15  O   UNL     1      38.397 -23.080 -11.628  0.00  0.00    -0.379 OA
ATOM     16  H   UNL     1      38.832 -22.235 -11.436  0.00  0.00    +0.211 HD
ENDBRANCH  14  15
ENDBRANCH  11  14
ENDBRANCH  10  11
ENDBRANCH   1  10
TORSDOF 7
ENDMDL
MODEL 9
REMARK VINA RESULT:      -6.2      1.571      2.692
REMARK  Name = 3516
REMARK  7 active torsions:
REMARK  status: ('A' for Active; 'I' for Inactive)
REMARK    1  A    between atoms: O_1  and  C_2
REMARK    2  A    between atoms: O_1  and  C_10
REMARK    3  A    between atoms: C_3  and  O_8
REMARK    4  A    between atoms: C_10  and  C_11
REMARK    5  A    between atoms: C_11  and  O_12
REMARK    6  A    between atoms: C_11  and  C_14
REMARK    7  A    between atoms: C_14  and  O_15
REMARK                            x       y       z     vdW  Elec       q    Type
REMARK                         _______ _______ _______ _____ _____    ______ ____
ROOT
ATOM      1  O   UNL     1      35.605 -18.249 -23.012  0.00  0.00    -0.470 OA
ENDROOT
BRANCH   1   2
ATOM      2  C   UNL     1      34.946 -17.166 -23.529  0.00  0.00    +0.172 C 
ATOM      3  C   UNL     1      34.627 -16.085 -22.714  0.00  0.00    +0.172 C 
ATOM      4  C   UNL     1      34.603 -17.160 -24.877  0.00  0.00    +0.040 C 
ATOM      5  C   UNL     1      33.956 -14.986 -23.252  0.00  0.00    +0.040 C 
ATOM      6  C   UNL     1      33.932 -16.062 -25.415  0.00  0.00    +0.003 C 
ATOM      7  C   UNL     1      33.609 -14.975 -24.603  0.00  0.00    +0.003 C 
BRANCH   3   8
ATOM      8  O   UNL     1      34.959 -16.086 -21.392  0.00  0.00    -0.468 OA
ATOM      9  C   UNL     1      34.316 -15.121 -20.562  0.00  0.00    +0.253 C 
ENDBRANCH   3   8
ENDBRANCH   1   2
BRANCH   1  10
ATOM     10  C   UNL     1      34.834 -19.430 -22.811  0.00  0.00    +0.237 C 
BRANCH  10  11
ATOM     11  C   UNL     1      34.704 -19.715 -21.319  0.00  0.00    +0.183 C 
BRANCH  11  12
ATOM     12  O   UNL     1      35.584 -18.841 -20.607  0.00  0.00    -0.378 OA
ATOM     13  H   UNL     1      35.822 -18.090 -21.172  0.00  0.00    +0.211 HD
ENDBRANCH  11  12
BRANCH  11  14
ATOM     14  C   UNL     1      33.286 -19.457 -20.825  0.00  0.00    +0.170 C 
BRANCH  14  15
ATOM     15  O   UNL     1      32.805 -20.627 -20.171  0.00  0.00    -0.379 OA
ATOM     16  H   UNL     1      32.384 -20.379 -19.333  0.00  0.00    +0.211 HD
ENDBRANCH  14  15
ENDBRANCH  11  14
ENDBRANCH  10  11
ENDBRANCH   1  10
TORSDOF 7
ENDMDL
