MODEL 1
REMARK VINA RESULT:      -5.3      0.000      0.000
REMARK  Name = 445279
REMARK  4 active torsions:
REMARK  status: ('A' for Active; 'I' for Inactive)
REMARK    1  A    between atoms: C_1  and  C_4
REMARK    2  A    between atoms: C_1  and  N_7
REMARK    3  A    between atoms: C_1  and  C_11
REMARK    4  A    between atoms: C_11  and  O_13
REMARK                            x       y       z     vdW  Elec       q    Type
REMARK                         _______ _______ _______ _____ _____    ______ ____
ROOT
ATOM      1  C   UNL     1      34.638 -17.919 -21.625  0.00  0.00    +0.010 C 
ENDROOT
BRANCH   1   4
ATOM      2  S   UNL     1      33.015 -19.936 -20.679  0.00  0.00    -0.072 S 
ATOM      3  N   UNL     1      35.585 -19.863 -20.425  0.00  0.00    -0.243 NA
ATOM      4  C   UNL     1      34.549 -19.252 -20.887  0.00  0.00    +0.070 C 
ATOM      5  C   UNL     1      33.777 -21.236 -19.861  0.00  0.00    +0.057 C 
ATOM      6  C   UNL     1      35.139 -21.023 -19.824  0.00  0.00    +0.106 C 
ENDBRANCH   1   4
BRANCH   1   7
ATOM      7  N   UNL     1      35.068 -16.865 -20.699  0.00  0.00    +0.387 N 
ATOM      8  H   UNL     1      35.648 -17.272 -19.966  0.00  0.00    -0.089 HD
ATOM      9  H   UNL     1      34.248 -16.426 -20.280  0.00  0.00    -0.089 HD
ATOM     10  H   UNL     1      35.606 -16.163 -21.209  0.00  0.00    -0.089 HD
ENDBRANCH   1   7
BRANCH   1  11
ATOM     11  C   UNL     1      35.545 -18.017 -22.875  0.00  0.00    +0.097 C 
ATOM     12  C   UNL     1      34.896 -18.765 -24.037  0.00  0.00    +0.030 C 
BRANCH  11  13
ATOM     13  O   UNL     1      35.829 -16.688 -23.325  0.00  0.00    -0.386 OA
ATOM     14  H   UNL     1      35.108 -16.380 -23.896  0.00  0.00    +0.210 HD
ENDBRANCH  11  13
ENDBRANCH   1  11
TORSDOF 4
ENDMDL
MODEL 2
REMARK VINA RESULT:      -5.3      8.210     10.011
REMARK  Name = 445279
REMARK  4 active torsions:
REMARK  status: ('A' for Active; 'I' for Inactive)
REMARK    1  A    between atoms: C_1  and  C_4
REMARK    2  A    between atoms: C_1  and  N_7
REMARK    3  A    between atoms: C_1  and  C_11
REMARK    4  A    between atoms: C_11  and  O_13
REMARK                            x       y       z     vdW  Elec       q    Type
REMARK                         _______ _______ _______ _____ _____    ______ ____
ROOT
ATOM      1  C   UNL     1      38.664 -25.517 -14.230  0.00  0.00    +0.010 C 
ENDROOT
BRANCH   1   4
ATOM      2  S   UNL     1      36.165 -24.568 -14.905  0.00  0.00    -0.072 S 
ATOM      3  N   UNL     1      38.398 -23.405 -15.489  0.00  0.00    -0.243 NA
ATOM      4  C   UNL     1      37.852 -24.421 -14.915  0.00  0.00    +0.070 C 
ATOM      5  C   UNL     1      36.098 -23.093 -15.779  0.00  0.00    +0.057 C 
ATOM      6  C   UNL     1      37.377 -22.627 -15.997  0.00  0.00    +0.106 C 
ENDBRANCH   1   4
BRANCH   1   7
ATOM      7  N   UNL     1      38.006 -26.815 -14.418  0.00  0.00    +0.387 N 
ATOM      8  H   UNL     1      37.859 -27.257 -13.511  0.00  0.00    -0.089 HD
ATOM      9  H   UNL     1      38.597 -27.414 -14.996  0.00  0.00    -0.089 HD
ATOM     10  H   UNL     1      37.107 -26.677 -14.880  0.00  0.00    -0.089 HD
ENDBRANCH   1   7
BRANCH   1  11
ATOM     11  C   UNL     1      40.135 -25.522 -14.708  0.00  0.00    +0.097 C 
ATOM     12  C   UNL     1      40.987 -26.593 -14.033  0.00  0.00    +0.030 C 
BRANCH  11  13
ATOM     13  O   UNL     1      40.145 -25.788 -16.114  0.00  0.00    -0.386 OA
ATOM     14  H   UNL     1      39.305 -26.198 -16.371  0.00  0.00    +0.210 HD
ENDBRANCH  11  13
ENDBRANCH   1  11
TORSDOF 4
ENDMDL
MODEL 3
REMARK VINA RESULT:      -5.2     10.390     10.872
REMARK  Name = 445279
REMARK  4 active torsions:
REMARK  status: ('A' for Active; 'I' for Inactive)
REMARK    1  A    between atoms: C_1  and  C_4
REMARK    2  A    between atoms: C_1  and  N_7
REMARK    3  A    between atoms: C_1  and  C_11
REMARK    4  A    between atoms: C_11  and  O_13
REMARK                            x       y       z     vdW  Elec       q    Type
REMARK                         _______ _______ _______ _____ _____    ______ ____
ROOT
ATOM      1  C   UNL     1      37.880 -26.154 -13.915  0.00  0.00    +0.010 C 
ENDROOT
BRANCH   1   4
ATOM      2  S   UNL     1      35.758 -24.396 -13.967  0.00  0.00    -0.072 S 
ATOM      3  N   UNL     1      36.697 -25.520 -11.838  0.00  0.00    -0.243 NA
ATOM      4  C   UNL     1      36.815 -25.408 -13.116  0.00  0.00    +0.070 C 
ATOM      5  C   UNL     1      35.010 -24.027 -12.468  0.00  0.00    +0.057 C 
ATOM      6  C   UNL     1      35.644 -24.715 -11.455  0.00  0.00    +0.106 C 
ENDBRANCH   1   4
BRANCH   1   7
ATOM      7  N   UNL     1      37.569 -26.084 -15.347  0.00  0.00    +0.387 N 
ATOM      8  H   UNL     1      37.928 -25.209 -15.731  0.00  0.00    -0.089 HD
ATOM      9  H   UNL     1      36.559 -26.122 -15.477  0.00  0.00    -0.089 HD
ATOM     10  H   UNL     1      38.005 -26.870 -15.829  0.00  0.00    -0.089 HD
ENDBRANCH   1   7
BRANCH   1  11
ATOM     11  C   UNL     1      39.303 -25.640 -13.590  0.00  0.00    +0.097 C 
ATOM     12  C   UNL     1      40.173 -25.446 -14.829  0.00  0.00    +0.030 C 
BRANCH  11  13
ATOM     13  O   UNL     1      39.181 -24.367 -12.948  0.00  0.00    -0.386 OA
ATOM     14  H   UNL     1      38.953 -24.497 -12.014  0.00  0.00    +0.210 HD
ENDBRANCH  11  13
ENDBRANCH   1  11
TORSDOF 4
ENDMDL
MODEL 4
REMARK VINA RESULT:      -5.1      9.647     10.371
REMARK  Name = 445279
REMARK  4 active torsions:
REMARK  status: ('A' for Active; 'I' for Inactive)
REMARK    1  A    between atoms: C_1  and  C_4
REMARK    2  A    between atoms: C_1  and  N_7
REMARK    3  A    between atoms: C_1  and  C_11
REMARK    4  A    between atoms: C_11  and  O_13
REMARK                            x       y       z     vdW  Elec       q    Type
REMARK                         _______ _______ _______ _____ _____    ______ ____
ROOT
ATOM      1  C   UNL     1      37.737 -24.736 -14.839  0.00  0.00    +0.010 C 
ENDROOT
BRANCH   1   4
ATOM      2  S   UNL     1      35.647 -24.524 -13.053  0.00  0.00    -0.072 S 
ATOM      3  N   UNL     1      37.944 -23.369 -12.788  0.00  0.00    -0.243 NA
ATOM      4  C   UNL     1      37.226 -24.140 -13.529  0.00  0.00    +0.070 C 
ATOM      5  C   UNL     1      35.900 -23.550 -11.664  0.00  0.00    +0.057 C 
ATOM      6  C   UNL     1      37.173 -23.021 -11.697  0.00  0.00    +0.106 C 
ENDBRANCH   1   4
BRANCH   1   7
ATOM      7  N   UNL     1      38.182 -23.661 -15.734  0.00  0.00    +0.387 N 
ATOM      8  H   UNL     1      38.012 -23.933 -16.702  0.00  0.00    -0.089 HD
ATOM      9  H   UNL     1      39.180 -23.497 -15.597  0.00  0.00    -0.089 HD
ATOM     10  H   UNL     1      37.665 -22.808 -15.524  0.00  0.00    -0.089 HD
ENDBRANCH   1   7
BRANCH   1  11
ATOM     11  C   UNL     1      38.836 -25.797 -14.594  0.00  0.00    +0.097 C 
ATOM     12  C   UNL     1      40.236 -25.317 -14.967  0.00  0.00    +0.030 C 
BRANCH  11  13
ATOM     13  O   UNL     1      38.848 -26.111 -13.197  0.00  0.00    -0.386 OA
ATOM     14  H   UNL     1      39.509 -26.800 -13.027  0.00  0.00    +0.210 HD
ENDBRANCH  11  13
ENDBRANCH   1  11
TORSDOF 4
ENDMDL
MODEL 5
REMARK VINA RESULT:      -5.1      2.640      4.220
REMARK  Name = 445279
REMARK  4 active torsions:
REMARK  status: ('A' for Active; 'I' for Inactive)
REMARK    1  A    between atoms: C_1  and  C_4
REMARK    2  A    between atoms: C_1  and  N_7
REMARK    3  A    between atoms: C_1  and  C_11
REMARK    4  A    between atoms: C_11  and  O_13
REMARK                            x       y       z     vdW  Elec       q    Type
REMARK                         _______ _______ _______ _____ _____    ______ ____
ROOT
ATOM      1  C   UNL     1      35.626 -18.445 -21.808  0.00  0.00    +0.010 C 
ENDROOT
BRANCH   1   4
ATOM      2  S   UNL     1      34.955 -16.230 -23.306  0.00  0.00    -0.072 S 
ATOM      3  N   UNL     1      34.848 -18.672 -24.144  0.00  0.00    -0.243 NA
ATOM      4  C   UNL     1      35.131 -17.906 -23.148  0.00  0.00    +0.070 C 
ATOM      5  C   UNL     1      34.428 -16.503 -24.915  0.00  0.00    +0.057 C 
ATOM      6  C   UNL     1      34.436 -17.857 -25.179  0.00  0.00    +0.106 C 
ENDBRANCH   1   4
BRANCH   1   7
ATOM      7  N   UNL     1      35.315 -17.487 -20.741  0.00  0.00    +0.387 N 
ATOM      8  H   UNL     1      35.202 -16.556 -21.141  0.00  0.00    -0.089 HD
ATOM      9  H   UNL     1      36.077 -17.476 -20.063  0.00  0.00    -0.089 HD
ATOM     10  H   UNL     1      34.450 -17.765 -20.276  0.00  0.00    -0.089 HD
ENDBRANCH   1   7
BRANCH   1  11
ATOM     11  C   UNL     1      35.067 -19.859 -21.519  0.00  0.00    +0.097 C 
ATOM     12  C   UNL     1      35.614 -20.474 -20.233  0.00  0.00    +0.030 C 
BRANCH  11  13
ATOM     13  O   UNL     1      33.646 -19.755 -21.374  0.00  0.00    -0.386 OA
ATOM     14  H   UNL     1      33.439 -19.314 -20.535  0.00  0.00    +0.210 HD
ENDBRANCH  11  13
ENDBRANCH   1  11
TORSDOF 4
ENDMDL
MODEL 6
REMARK VINA RESULT:      -5.1      9.670     10.456
REMARK  Name = 445279
REMARK  4 active torsions:
REMARK  status: ('A' for Active; 'I' for Inactive)
REMARK    1  A    between atoms: C_1  and  C_4
REMARK    2  A    between atoms: C_1  and  N_7
REMARK    3  A    between atoms: C_1  and  C_11
REMARK    4  A    between atoms: C_11  and  O_13
REMARK                            x       y       z     vdW  Elec       q    Type
REMARK                         _______ _______ _______ _____ _____    ______ ____
ROOT
ATOM      1  C   UNL     1      36.828 -23.123 -13.415  0.00  0.00    +0.010 C 
ENDROOT
BRANCH   1   4
ATOM      2  S   UNL     1      36.504 -25.577 -14.628  0.00  0.00    -0.072 S 
ATOM      3  N   UNL     1      38.761 -24.609 -13.823  0.00  0.00    -0.243 NA
ATOM      4  C   UNL     1      37.494 -24.400 -13.919  0.00  0.00    +0.070 C 
ATOM      5  C   UNL     1      37.914 -26.526 -14.862  0.00  0.00    +0.057 C 
ATOM      6  C   UNL     1      39.012 -25.850 -14.373  0.00  0.00    +0.106 C 
ENDBRANCH   1   4
BRANCH   1   7
ATOM      7  N   UNL     1      35.426 -23.088 -13.847  0.00  0.00    +0.387 N 
ATOM      8  H   UNL     1      35.273 -22.273 -14.441  0.00  0.00    -0.089 HD
ATOM      9  H   UNL     1      34.820 -23.031 -13.029  0.00  0.00    -0.089 HD
ATOM     10  H   UNL     1      35.210 -23.936 -14.372  0.00  0.00    -0.089 HD
ENDBRANCH   1   7
BRANCH   1  11
ATOM     11  C   UNL     1      36.980 -22.964 -11.883  0.00  0.00    +0.097 C 
ATOM     12  C   UNL     1      36.319 -24.087 -11.090  0.00  0.00    +0.030 C 
BRANCH  11  13
ATOM     13  O   UNL     1      38.377 -22.982 -11.571  0.00  0.00    -0.386 OA
ATOM     14  H   UNL     1      38.633 -22.130 -11.186  0.00  0.00    +0.210 HD
ENDBRANCH  11  13
ENDBRANCH   1  11
TORSDOF 4
ENDMDL
MODEL 7
REMARK VINA RESULT:      -5.1      8.553     10.109
REMARK  Name = 445279
REMARK  4 active torsions:
REMARK  status: ('A' for Active; 'I' for Inactive)
REMARK    1  A    between atoms: C_1  and  C_4
REMARK    2  A    between atoms: C_1  and  N_7
REMARK    3  A    between atoms: C_1  and  C_11
REMARK    4  A    between atoms: C_11  and  O_13
REMARK                            x       y       z     vdW  Elec       q    Type
REMARK                         _______ _______ _______ _____ _____    ______ ____
ROOT
ATOM      1  C   UNL     1      37.952 -25.621 -14.672  0.00  0.00    +0.010 C 
ENDROOT
BRANCH   1   4
ATOM      2  S   UNL     1      37.113 -23.146 -15.549  0.00  0.00    -0.072 S 
ATOM      3  N   UNL     1      35.547 -25.103 -14.920  0.00  0.00    -0.243 NA
ATOM      4  C   UNL     1      36.772 -24.717 -15.018  0.00  0.00    +0.070 C 
ATOM      5  C   UNL     1      35.422 -22.895 -15.685  0.00  0.00    +0.057 C 
ATOM      6  C   UNL     1      34.754 -24.041 -15.309  0.00  0.00    +0.106 C 
ENDBRANCH   1   4
BRANCH   1   7
ATOM      7  N   UNL     1      39.193 -25.045 -15.201  0.00  0.00    +0.387 N 
ATOM      8  H   UNL     1      39.157 -24.029 -15.123  0.00  0.00    -0.089 HD
ATOM      9  H   UNL     1      39.298 -25.307 -16.181  0.00  0.00    -0.089 HD
ATOM     10  H   UNL     1      39.987 -25.399 -14.668  0.00  0.00    -0.089 HD
ENDBRANCH   1   7
BRANCH   1  11
ATOM     11  C   UNL     1      38.030 -25.903 -13.152  0.00  0.00    +0.097 C 
ATOM     12  C   UNL     1      38.096 -24.636 -12.304  0.00  0.00    +0.030 C 
BRANCH  11  13
ATOM     13  O   UNL     1      36.847 -26.614 -12.771  0.00  0.00    -0.386 OA
ATOM     14  H   UNL     1      36.986 -27.565 -12.899  0.00  0.00    +0.210 HD
ENDBRANCH  11  13
ENDBRANCH   1  11
TORSDOF 4
ENDMDL
MODEL 8
REMARK VINA RESULT:      -5.0      4.289      5.194
REMARK  Name = 445279
REMARK  4 active torsions:
REMARK  status: ('A' for Active; 'I' for Inactive)
REMARK    1  A    between atoms: C_1  and  C_4
REMARK    2  A    between atoms: C_1  and  N_7
REMARK    3  A    between atoms: C_1  and  C_11
REMARK    4  A    between atoms: C_11  and  O_13
REMARK                            x       y       z     vdW  Elec       q    Type
REMARK                         _______ _______ _______ _____ _____    ______ ____
ROOT
ATOM      1  C   UNL     1      34.024 -14.421 -22.731  0.00  0.00    +0.010 C 
ENDROOT
BRANCH   1   4
ATOM      2  S   UNL     1      35.111 -16.954 -22.697  0.00  0.00    -0.072 S 
ATOM      3  N   UNL     1      34.031 -15.834 -24.760  0.00  0.00    -0.243 NA
ATOM      4  C   UNL     1      34.335 -15.693 -23.516  0.00  0.00    +0.070 C 
ATOM      5  C   UNL     1      35.062 -17.847 -24.160  0.00  0.00    +0.057 C 
ATOM      6  C   UNL     1      34.454 -17.092 -25.141  0.00  0.00    +0.106 C 
ENDBRANCH   1   4
BRANCH   1   7
ATOM      7  N   UNL     1      34.132 -13.253 -23.612  0.00  0.00    +0.387 N 
ATOM      8  H   UNL     1      34.953 -13.351 -24.208  0.00  0.00    -0.089 HD
ATOM      9  H   UNL     1      34.222 -12.409 -23.046  0.00  0.00    -0.089 HD
ATOM     10  H   UNL     1      33.296 -13.186 -24.192  0.00  0.00    -0.089 HD
ENDBRANCH   1   7
BRANCH   1  11
ATOM     11  C   UNL     1      32.650 -14.507 -22.024  0.00  0.00    +0.097 C 
ATOM     12  C   UNL     1      32.757 -14.629 -20.506  0.00  0.00    +0.030 C 
BRANCH  11  13
ATOM     13  O   UNL     1      31.928 -13.304 -22.308  0.00  0.00    -0.386 OA
ATOM     14  H   UNL     1      32.320 -12.866 -23.079  0.00  0.00    +0.210 HD
ENDBRANCH  11  13
ENDBRANCH   1  11
TORSDOF 4
ENDMDL
MODEL 9
REMARK VINA RESULT:      -5.0      8.645     10.107
REMARK  Name = 445279
REMARK  4 active torsions:
REMARK  status: ('A' for Active; 'I' for Inactive)
REMARK    1  A    between atoms: C_1  and  C_4
REMARK    2  A    between atoms: C_1  and  N_7
REMARK    3  A    between atoms: C_1  and  C_11
REMARK    4  A    between atoms: C_11  and  O_13
REMARK                            x       y       z     vdW  Elec       q    Type
REMARK                         _______ _______ _______ _____ _____    ______ ____
ROOT
ATOM      1  C   UNL     1      37.366 -25.505 -13.637  0.00  0.00    +0.010 C 
ENDROOT
BRANCH   1   4
ATOM      2  S   UNL     1      34.999 -24.211 -13.070  0.00  0.00    -0.072 S 
ATOM      3  N   UNL     1      35.872 -24.726 -15.447  0.00  0.00    -0.243 NA
ATOM      4  C   UNL     1      36.110 -24.833 -14.185  0.00  0.00    +0.070 C 
ATOM      5  C   UNL     1      34.040 -23.713 -14.402  0.00  0.00    +0.057 C 
ATOM      6  C   UNL     1      34.664 -24.073 -15.579  0.00  0.00    +0.106 C 
ENDBRANCH   1   4
BRANCH   1   7
ATOM      7  N   UNL     1      37.090 -26.917 -13.348  0.00  0.00    +0.387 N 
ATOM      8  H   UNL     1      36.237 -26.990 -12.793  0.00  0.00    -0.089 HD
ATOM      9  H   UNL     1      37.870 -27.316 -12.827  0.00  0.00    -0.089 HD
ATOM     10  H   UNL     1      36.970 -27.426 -14.224  0.00  0.00    -0.089 HD
ENDBRANCH   1   7
BRANCH   1  11
ATOM     11  C   UNL     1      38.575 -25.319 -14.584  0.00  0.00    +0.097 C 
ATOM     12  C   UNL     1      39.920 -25.560 -13.904  0.00  0.00    +0.030 C 
BRANCH  11  13
ATOM     13  O   UNL     1      38.456 -26.268 -15.649  0.00  0.00    -0.386 OA
ATOM     14  H   UNL     1      38.682 -27.152 -15.320  0.00  0.00    +0.210 HD
ENDBRANCH  11  13
ENDBRANCH   1  11
TORSDOF 4
ENDMDL
