MODEL 1
REMARK VINA RESULT:     -10.2      0.000      0.000
REMARK  Name = 5334
REMARK  5 active torsions:
REMARK  status: ('A' for Active; 'I' for Inactive)
REMARK    1  A    between atoms: S_1  and  C_4
REMARK    2  A    between atoms: S_1  and  N_15
REMARK    3  A    between atoms: C_7  and  N_11
REMARK    4  A    between atoms: N_15  and  C_17
REMARK    5  A    between atoms: C_20  and  N_25
REMARK                            x       y       z     vdW  Elec       q    Type
REMARK                         _______ _______ _______ _____ _____    ______ ____
ROOT
ATOM      1  S   UNL     1      35.295 -17.843 -21.869  0.00  0.00    +0.074 S 
ATOM      2  O   UNL     1      35.921 -17.819 -20.553  0.00  0.00    -0.150 OA
ATOM      3  O   UNL     1      36.144 -17.960 -23.049  0.00  0.00    -0.150 OA
ENDROOT
BRANCH   1   4
ATOM      4  C   UNL     1      34.322 -16.401 -22.022  0.00  0.00    +0.125 C 
ATOM      5  C   UNL     1      34.593 -15.480 -23.033  0.00  0.00    +0.021 C 
ATOM      6  C   UNL     1      33.273 -16.172 -21.132  0.00  0.00    +0.021 C 
ATOM      7  C   UNL     1      32.766 -14.099 -22.265  0.00  0.00    +0.050 C 
ATOM      8  C   UNL     1      33.814 -14.328 -23.155  0.00  0.00    +0.016 C 
ATOM      9  C   UNL     1      32.495 -15.020 -21.254  0.00  0.00    +0.016 C 
BRANCH   7  11
ATOM     10  O   UNL     1      31.874 -12.111 -20.187  0.00  0.00    -0.275 OA
ATOM     11  N   UNL     1      31.987 -12.948 -22.388  0.00  0.00    -0.284 N 
ATOM     12  C   UNL     1      31.599 -12.054 -21.382  0.00  0.00    +0.227 C 
ATOM     13  C   UNL     1      30.755 -10.928 -21.927  0.00  0.00    +0.095 C 
ATOM     14  H   UNL     1      31.671 -12.737 -23.297  0.00  0.00    +0.155 HD
ENDBRANCH   7  11
ENDBRANCH   1   4
BRANCH   1  15
ATOM     15  N   UNL     1      34.118 -19.101 -21.880  0.00  0.00    -0.215 N 
ATOM     16  H   UNL     1      33.421 -19.136 -22.574  0.00  0.00    +0.174 HD
BRANCH  15  17
ATOM     17  C   UNL     1      34.184 -20.099 -20.847  0.00  0.00    +0.065 C 
ATOM     18  C   UNL     1      35.405 -20.683 -20.533  0.00  0.00    +0.018 C 
ATOM     19  C   UNL     1      33.026 -20.468 -20.172  0.00  0.00    +0.018 C 
ATOM     20  C   UNL     1      34.313 -22.027 -18.849  0.00  0.00    +0.143 C 
ATOM     21  C   UNL     1      35.470 -21.650 -19.531  0.00  0.00    +0.025 C 
ATOM     22  C   UNL     1      33.091 -21.436 -19.170  0.00  0.00    +0.025 C 
BRANCH  20  25
ATOM     23  O   UNL     1      33.501 -23.911 -17.795  0.00  0.00    -0.126 OA
ATOM     24  O   UNL     1      35.310 -22.960 -16.990  0.00  0.00    -0.126 OA
ATOM     25  N   UNL     1      34.378 -23.013 -17.829  0.00  0.00    +0.058 N 
ENDBRANCH  20  25
ENDBRANCH  15  17
ENDBRANCH   1  15
TORSDOF 5
ENDMDL
MODEL 2
REMARK VINA RESULT:     -10.1      3.496      6.418
REMARK  Name = 5334
REMARK  5 active torsions:
REMARK  status: ('A' for Active; 'I' for Inactive)
REMARK    1  A    between atoms: S_1  and  C_4
REMARK    2  A    between atoms: S_1  and  N_15
REMARK    3  A    between atoms: C_7  and  N_11
REMARK    4  A    between atoms: N_15  and  C_17
REMARK    5  A    between atoms: C_20  and  N_25
REMARK                            x       y       z     vdW  Elec       q    Type
REMARK                         _______ _______ _______ _____ _____    ______ ____
ROOT
ATOM      1  S   UNL     1      33.397 -23.001 -17.864  0.00  0.00    +0.074 S 
ATOM      2  O   UNL     1      34.048 -24.230 -18.298  0.00  0.00    -0.150 OA
ATOM      3  O   UNL     1      31.955 -23.009 -17.646  0.00  0.00    -0.150 OA
ENDROOT
BRANCH   1   4
ATOM      4  C   UNL     1      33.778 -21.756 -19.027  0.00  0.00    +0.125 C 
ATOM      5  C   UNL     1      32.758 -20.987 -19.586  0.00  0.00    +0.021 C 
ATOM      6  C   UNL     1      35.104 -21.531 -19.397  0.00  0.00    +0.021 C 
ATOM      7  C   UNL     1      34.390 -19.767 -20.885  0.00  0.00    +0.050 C 
ATOM      8  C   UNL     1      33.064 -19.991 -20.515  0.00  0.00    +0.016 C 
ATOM      9  C   UNL     1      35.409 -20.536 -20.326  0.00  0.00    +0.016 C 
BRANCH   7  11
ATOM     10  O   UNL     1      35.293 -16.923 -20.477  0.00  0.00    -0.275 OA
ATOM     11  N   UNL     1      34.695 -18.772 -21.813  0.00  0.00    -0.284 N 
ATOM     12  C   UNL     1      35.112 -17.457 -21.567  0.00  0.00    +0.227 C 
ATOM     13  C   UNL     1      35.341 -16.693 -22.848  0.00  0.00    +0.095 C 
ATOM     14  H   UNL     1      34.606 -19.025 -22.761  0.00  0.00    +0.155 HD
ENDBRANCH   7  11
ENDBRANCH   1   4
BRANCH   1  15
ATOM     15  N   UNL     1      34.191 -22.448 -16.438  0.00  0.00    -0.215 N 
ATOM     16  H   UNL     1      33.886 -21.637 -15.971  0.00  0.00    +0.174 HD
BRANCH  15  17
ATOM     17  C   UNL     1      35.312 -23.206 -15.951  0.00  0.00    +0.065 C 
ATOM     18  C   UNL     1      35.095 -24.429 -15.327  0.00  0.00    +0.018 C 
ATOM     19  C   UNL     1      36.600 -22.708 -16.110  0.00  0.00    +0.018 C 
ATOM     20  C   UNL     1      37.478 -24.671 -15.009  0.00  0.00    +0.143 C 
ATOM     21  C   UNL     1      36.182 -25.164 -14.855  0.00  0.00    +0.025 C 
ATOM     22  C   UNL     1      37.687 -23.443 -15.636  0.00  0.00    +0.025 C 
BRANCH  20  25
ATOM     23  O   UNL     1      39.536 -24.811 -13.979  0.00  0.00    -0.126 OA
ATOM     24  O   UNL     1      38.581 -26.667 -14.662  0.00  0.00    -0.126 OA
ATOM     25  N   UNL     1      38.585 -25.420 -14.527  0.00  0.00    +0.058 N 
ENDBRANCH  20  25
ENDBRANCH  15  17
ENDBRANCH   1  15
TORSDOF 5
ENDMDL
MODEL 3
REMARK VINA RESULT:     -10.1      3.500      6.347
REMARK  Name = 5334
REMARK  5 active torsions:
REMARK  status: ('A' for Active; 'I' for Inactive)
REMARK    1  A    between atoms: S_1  and  C_4
REMARK    2  A    between atoms: S_1  and  N_15
REMARK    3  A    between atoms: C_7  and  N_11
REMARK    4  A    between atoms: N_15  and  C_17
REMARK    5  A    between atoms: C_20  and  N_25
REMARK                            x       y       z     vdW  Elec       q    Type
REMARK                         _______ _______ _______ _____ _____    ______ ____
ROOT
ATOM      1  S   UNL     1      33.395 -23.002 -17.853  0.00  0.00    +0.074 S 
ATOM      2  O   UNL     1      34.041 -24.235 -18.286  0.00  0.00    -0.150 OA
ATOM      3  O   UNL     1      31.954 -23.003 -17.633  0.00  0.00    -0.150 OA
ENDROOT
BRANCH   1   4
ATOM      4  C   UNL     1      33.780 -21.760 -19.019  0.00  0.00    +0.125 C 
ATOM      5  C   UNL     1      35.106 -21.534 -19.385  0.00  0.00    +0.021 C 
ATOM      6  C   UNL     1      32.760 -20.995 -19.583  0.00  0.00    +0.021 C 
ATOM      7  C   UNL     1      34.394 -19.777 -20.882  0.00  0.00    +0.050 C 
ATOM      8  C   UNL     1      35.414 -20.543 -20.318  0.00  0.00    +0.016 C 
ATOM      9  C   UNL     1      33.067 -20.003 -20.515  0.00  0.00    +0.016 C 
BRANCH   7  11
ATOM     10  O   UNL     1      35.288 -16.929 -20.486  0.00  0.00    -0.275 OA
ATOM     11  N   UNL     1      34.701 -18.786 -21.814  0.00  0.00    -0.284 N 
ATOM     12  C   UNL     1      35.113 -17.469 -21.574  0.00  0.00    +0.227 C 
ATOM     13  C   UNL     1      35.347 -16.712 -22.858  0.00  0.00    +0.095 C 
ATOM     14  H   UNL     1      34.618 -19.045 -22.761  0.00  0.00    +0.155 HD
ENDBRANCH   7  11
ENDBRANCH   1   4
BRANCH   1  15
ATOM     15  N   UNL     1      34.194 -22.450 -16.430  0.00  0.00    -0.215 N 
ATOM     16  H   UNL     1      33.891 -21.639 -15.962  0.00  0.00    +0.174 HD
BRANCH  15  17
ATOM     17  C   UNL     1      35.315 -23.210 -15.945  0.00  0.00    +0.065 C 
ATOM     18  C   UNL     1      36.603 -22.715 -16.110  0.00  0.00    +0.018 C 
ATOM     19  C   UNL     1      35.098 -24.430 -15.316  0.00  0.00    +0.018 C 
ATOM     20  C   UNL     1      37.481 -24.677 -15.008  0.00  0.00    +0.143 C 
ATOM     21  C   UNL     1      37.690 -23.451 -15.640  0.00  0.00    +0.025 C 
ATOM     22  C   UNL     1      36.185 -25.167 -14.846  0.00  0.00    +0.025 C 
BRANCH  20  25
ATOM     23  O   UNL     1      39.553 -24.819 -14.006  0.00  0.00    -0.126 OA
ATOM     24  O   UNL     1      38.570 -26.677 -14.642  0.00  0.00    -0.126 OA
ATOM     25  N   UNL     1      38.588 -25.427 -14.529  0.00  0.00    +0.058 N 
ENDBRANCH  20  25
ENDBRANCH  15  17
ENDBRANCH   1  15
TORSDOF 5
ENDMDL
MODEL 4
REMARK VINA RESULT:     -10.0      3.414      5.496
REMARK  Name = 5334
REMARK  5 active torsions:
REMARK  status: ('A' for Active; 'I' for Inactive)
REMARK    1  A    between atoms: S_1  and  C_4
REMARK    2  A    between atoms: S_1  and  N_15
REMARK    3  A    between atoms: C_7  and  N_11
REMARK    4  A    between atoms: N_15  and  C_17
REMARK    5  A    between atoms: C_20  and  N_25
REMARK                            x       y       z     vdW  Elec       q    Type
REMARK                         _______ _______ _______ _____ _____    ______ ____
ROOT
ATOM      1  S   UNL     1      34.013 -22.532 -18.899  0.00  0.00    +0.074 S 
ATOM      2  O   UNL     1      34.909 -22.397 -17.757  0.00  0.00    -0.150 OA
ATOM      3  O   UNL     1      34.143 -23.702 -19.759  0.00  0.00    -0.150 OA
ENDROOT
BRANCH   1   4
ATOM      4  C   UNL     1      34.180 -21.097 -19.880  0.00  0.00    +0.125 C 
ATOM      5  C   UNL     1      35.445 -20.669 -20.281  0.00  0.00    +0.021 C 
ATOM      6  C   UNL     1      33.047 -20.380 -20.263  0.00  0.00    +0.021 C 
ATOM      7  C   UNL     1      34.445 -18.805 -21.448  0.00  0.00    +0.050 C 
ATOM      8  C   UNL     1      35.578 -19.523 -21.066  0.00  0.00    +0.016 C 
ATOM      9  C   UNL     1      33.180 -19.234 -21.047  0.00  0.00    +0.016 C 
BRANCH   7  11
ATOM     10  O   UNL     1      34.936 -15.941 -20.659  0.00  0.00    -0.275 OA
ATOM     11  N   UNL     1      34.578 -17.660 -22.233  0.00  0.00    -0.284 N 
ATOM     12  C   UNL     1      34.806 -16.343 -21.811  0.00  0.00    +0.227 C 
ATOM     13  C   UNL     1      34.888 -15.388 -22.976  0.00  0.00    +0.095 C 
ATOM     14  H   UNL     1      34.502 -17.793 -23.206  0.00  0.00    +0.155 HD
ENDBRANCH   7  11
ENDBRANCH   1   4
BRANCH   1  15
ATOM     15  N   UNL     1      32.393 -22.416 -18.325  0.00  0.00    -0.215 N 
ATOM     16  H   UNL     1      31.685 -22.022 -18.885  0.00  0.00    +0.174 HD
BRANCH  15  17
ATOM     17  C   UNL     1      32.104 -22.912 -17.007  0.00  0.00    +0.065 C 
ATOM     18  C   UNL     1      33.121 -23.482 -16.250  0.00  0.00    +0.018 C 
ATOM     19  C   UNL     1      30.812 -22.815 -16.504  0.00  0.00    +0.018 C 
ATOM     20  C   UNL     1      31.548 -23.870 -14.458  0.00  0.00    +0.143 C 
ATOM     21  C   UNL     1      32.841 -23.962 -14.971  0.00  0.00    +0.025 C 
ATOM     22  C   UNL     1      30.533 -23.297 -15.225  0.00  0.00    +0.025 C 
BRANCH  20  25
ATOM     23  O   UNL     1      30.555 -23.664 -12.387  0.00  0.00    -0.126 OA
ATOM     24  O   UNL     1      31.724 -25.474 -12.811  0.00  0.00    -0.126 OA
ATOM     25  N   UNL     1      31.262 -24.360 -13.155  0.00  0.00    +0.058 N 
ENDBRANCH  20  25
ENDBRANCH  15  17
ENDBRANCH   1  15
TORSDOF 5
ENDMDL
MODEL 5
REMARK VINA RESULT:     -10.0      3.378      5.697
REMARK  Name = 5334
REMARK  5 active torsions:
REMARK  status: ('A' for Active; 'I' for Inactive)
REMARK    1  A    between atoms: S_1  and  C_4
REMARK    2  A    between atoms: S_1  and  N_15
REMARK    3  A    between atoms: C_7  and  N_11
REMARK    4  A    between atoms: N_15  and  C_17
REMARK    5  A    between atoms: C_20  and  N_25
REMARK                            x       y       z     vdW  Elec       q    Type
REMARK                         _______ _______ _______ _____ _____    ______ ____
ROOT
ATOM      1  S   UNL     1      34.048 -22.557 -18.668  0.00  0.00    +0.074 S 
ATOM      2  O   UNL     1      34.152 -23.741 -19.512  0.00  0.00    -0.150 OA
ATOM      3  O   UNL     1      32.886 -22.413 -17.799  0.00  0.00    -0.150 OA
ENDROOT
BRANCH   1   4
ATOM      4  C   UNL     1      34.147 -21.155 -19.704  0.00  0.00    +0.125 C 
ATOM      5  C   UNL     1      32.986 -20.479 -20.078  0.00  0.00    +0.021 C 
ATOM      6  C   UNL     1      35.389 -20.711 -20.158  0.00  0.00    +0.021 C 
ATOM      7  C   UNL     1      34.307 -18.915 -21.359  0.00  0.00    +0.050 C 
ATOM      8  C   UNL     1      33.066 -19.358 -20.905  0.00  0.00    +0.016 C 
ATOM      9  C   UNL     1      35.469 -19.591 -20.985  0.00  0.00    +0.016 C 
BRANCH   7  11
ATOM     10  O   UNL     1      35.004 -16.056 -20.716  0.00  0.00    -0.275 OA
ATOM     11  N   UNL     1      34.387 -17.794 -22.185  0.00  0.00    -0.284 N 
ATOM     12  C   UNL     1      34.717 -16.479 -21.832  0.00  0.00    +0.227 C 
ATOM     13  C   UNL     1      34.691 -15.555 -23.024  0.00  0.00    +0.095 C 
ATOM     14  H   UNL     1      34.186 -17.947 -23.137  0.00  0.00    +0.155 HD
ENDBRANCH   7  11
ENDBRANCH   1   4
BRANCH   1  15
ATOM     15  N   UNL     1      35.487 -22.440 -17.729  0.00  0.00    -0.215 N 
ATOM     16  H   UNL     1      36.296 -22.015 -18.094  0.00  0.00    +0.174 HD
BRANCH  15  17
ATOM     17  C   UNL     1      35.471 -22.980 -16.396  0.00  0.00    +0.065 C 
ATOM     18  C   UNL     1      36.557 -22.766 -15.555  0.00  0.00    +0.018 C 
ATOM     19  C   UNL     1      34.371 -23.711 -15.964  0.00  0.00    +0.018 C 
ATOM     20  C   UNL     1      35.442 -24.024 -13.820  0.00  0.00    +0.143 C 
ATOM     21  C   UNL     1      36.542 -23.289 -14.263  0.00  0.00    +0.025 C 
ATOM     22  C   UNL     1      34.357 -24.235 -14.671  0.00  0.00    +0.025 C 
BRANCH  20  25
ATOM     23  O   UNL     1      36.195 -25.511 -12.227  0.00  0.00    -0.126 OA
ATOM     24  O   UNL     1      34.647 -24.061 -11.655  0.00  0.00    -0.126 OA
ATOM     25  N   UNL     1      35.427 -24.558 -12.504  0.00  0.00    +0.058 N 
ENDBRANCH  20  25
ENDBRANCH  15  17
ENDBRANCH   1  15
TORSDOF 5
ENDMDL
MODEL 6
REMARK VINA RESULT:     -10.0      1.346      1.730
REMARK  Name = 5334
REMARK  5 active torsions:
REMARK  status: ('A' for Active; 'I' for Inactive)
REMARK    1  A    between atoms: S_1  and  C_4
REMARK    2  A    between atoms: S_1  and  N_15
REMARK    3  A    between atoms: C_7  and  N_11
REMARK    4  A    between atoms: N_15  and  C_17
REMARK    5  A    between atoms: C_20  and  N_25
REMARK                            x       y       z     vdW  Elec       q    Type
REMARK                         _______ _______ _______ _____ _____    ______ ____
ROOT
ATOM      1  S   UNL     1      34.882 -16.704 -21.659  0.00  0.00    +0.074 S 
ATOM      2  O   UNL     1      35.370 -16.745 -20.286  0.00  0.00    -0.150 OA
ATOM      3  O   UNL     1      35.847 -16.762 -22.750  0.00  0.00    -0.150 OA
ENDROOT
BRANCH   1   4
ATOM      4  C   UNL     1      33.920 -15.258 -21.840  0.00  0.00    +0.125 C 
ATOM      5  C   UNL     1      33.196 -14.761 -20.757  0.00  0.00    +0.021 C 
ATOM      6  C   UNL     1      33.877 -14.600 -23.069  0.00  0.00    +0.021 C 
ATOM      7  C   UNL     1      32.385 -12.947 -22.130  0.00  0.00    +0.050 C 
ATOM      8  C   UNL     1      32.428 -13.605 -20.902  0.00  0.00    +0.016 C 
ATOM      9  C   UNL     1      33.110 -13.444 -23.214  0.00  0.00    +0.016 C 
BRANCH   7  11
ATOM     10  O   UNL     1      33.181 -10.163 -22.958  0.00  0.00    -0.275 OA
ATOM     11  N   UNL     1      31.618 -11.791 -22.275  0.00  0.00    -0.284 N 
ATOM     12  C   UNL     1      32.042 -10.513 -22.664  0.00  0.00    +0.227 C 
ATOM     13  C   UNL     1      30.899  -9.530 -22.698  0.00  0.00    +0.095 C 
ATOM     14  H   UNL     1      30.658 -11.884 -22.079  0.00  0.00    +0.155 HD
ENDBRANCH   7  11
ENDBRANCH   1   4
BRANCH   1  15
ATOM     15  N   UNL     1      33.720 -17.962 -21.851  0.00  0.00    -0.215 N 
ATOM     16  H   UNL     1      32.958 -17.857 -22.466  0.00  0.00    +0.174 HD
BRANCH  15  17
ATOM     17  C   UNL     1      33.896 -19.169 -21.090  0.00  0.00    +0.065 C 
ATOM     18  C   UNL     1      35.167 -19.712 -20.948  0.00  0.00    +0.018 C 
ATOM     19  C   UNL     1      32.794 -19.778 -20.504  0.00  0.00    +0.018 C 
ATOM     20  C   UNL     1      34.238 -21.501 -19.618  0.00  0.00    +0.143 C 
ATOM     21  C   UNL     1      35.339 -20.882 -20.209  0.00  0.00    +0.025 C 
ATOM     22  C   UNL     1      32.965 -20.950 -19.765  0.00  0.00    +0.025 C 
BRANCH  20  25
ATOM     23  O   UNL     1      33.924 -23.764 -19.304  0.00  0.00    -0.126 OA
ATOM     24  O   UNL     1      35.049 -22.644 -17.786  0.00  0.00    -0.126 OA
ATOM     25  N   UNL     1      34.412 -22.694 -18.866  0.00  0.00    +0.058 N 
ENDBRANCH  20  25
ENDBRANCH  15  17
ENDBRANCH   1  15
TORSDOF 5
ENDMDL
MODEL 7
REMARK VINA RESULT:      -9.9      3.615      5.831
REMARK  Name = 5334
REMARK  5 active torsions:
REMARK  status: ('A' for Active; 'I' for Inactive)
REMARK    1  A    between atoms: S_1  and  C_4
REMARK    2  A    between atoms: S_1  and  N_15
REMARK    3  A    between atoms: C_7  and  N_11
REMARK    4  A    between atoms: N_15  and  C_17
REMARK    5  A    between atoms: C_20  and  N_25
REMARK                            x       y       z     vdW  Elec       q    Type
REMARK                         _______ _______ _______ _____ _____    ______ ____
ROOT
ATOM      1  S   UNL     1      34.073 -22.542 -18.934  0.00  0.00    +0.074 S 
ATOM      2  O   UNL     1      34.961 -22.440 -17.782  0.00  0.00    -0.150 OA
ATOM      3  O   UNL     1      34.187 -23.703 -19.808  0.00  0.00    -0.150 OA
ENDROOT
BRANCH   1   4
ATOM      4  C   UNL     1      34.278 -21.098 -19.894  0.00  0.00    +0.125 C 
ATOM      5  C   UNL     1      35.555 -20.684 -20.269  0.00  0.00    +0.021 C 
ATOM      6  C   UNL     1      33.162 -20.359 -20.286  0.00  0.00    +0.021 C 
ATOM      7  C   UNL     1      34.603 -18.791 -21.428  0.00  0.00    +0.050 C 
ATOM      8  C   UNL     1      35.718 -19.530 -21.036  0.00  0.00    +0.016 C 
ATOM      9  C   UNL     1      33.325 -19.205 -21.053  0.00  0.00    +0.016 C 
BRANCH   7  11
ATOM     10  O   UNL     1      34.839 -18.446 -24.410  0.00  0.00    -0.275 OA
ATOM     11  N   UNL     1      34.765 -17.639 -22.196  0.00  0.00    -0.284 N 
ATOM     12  C   UNL     1      34.872 -17.534 -23.590  0.00  0.00    +0.227 C 
ATOM     13  C   UNL     1      35.039 -16.102 -24.033  0.00  0.00    +0.095 C 
ATOM     14  H   UNL     1      34.812 -16.791 -21.696  0.00  0.00    +0.155 HD
ENDBRANCH   7  11
ENDBRANCH   1   4
BRANCH   1  15
ATOM     15  N   UNL     1      32.451 -22.401 -18.372  0.00  0.00    -0.215 N 
ATOM     16  H   UNL     1      31.751 -22.004 -18.941  0.00  0.00    +0.174 HD
BRANCH  15  17
ATOM     17  C   UNL     1      32.147 -22.880 -17.051  0.00  0.00    +0.065 C 
ATOM     18  C   UNL     1      30.841 -22.817 -16.580  0.00  0.00    +0.018 C 
ATOM     19  C   UNL     1      33.163 -23.400 -16.258  0.00  0.00    +0.018 C 
ATOM     20  C   UNL     1      31.560 -23.805 -14.497  0.00  0.00    +0.143 C 
ATOM     21  C   UNL     1      30.546 -23.282 -15.299  0.00  0.00    +0.025 C 
ATOM     22  C   UNL     1      32.868 -23.864 -14.976  0.00  0.00    +0.025 C 
BRANCH  20  25
ATOM     23  O   UNL     1      31.519 -25.472 -12.903  0.00  0.00    -0.126 OA
ATOM     24  O   UNL     1      30.746 -23.489 -12.362  0.00  0.00    -0.126 OA
ATOM     25  N   UNL     1      31.260 -24.278 -13.191  0.00  0.00    +0.058 N 
ENDBRANCH  20  25
ENDBRANCH  15  17
ENDBRANCH   1  15
TORSDOF 5
ENDMDL
MODEL 8
REMARK VINA RESULT:      -9.9      2.937      9.303
REMARK  Name = 5334
REMARK  5 active torsions:
REMARK  status: ('A' for Active; 'I' for Inactive)
REMARK    1  A    between atoms: S_1  and  C_4
REMARK    2  A    between atoms: S_1  and  N_15
REMARK    3  A    between atoms: C_7  and  N_11
REMARK    4  A    between atoms: N_15  and  C_17
REMARK    5  A    between atoms: C_20  and  N_25
REMARK                            x       y       z     vdW  Elec       q    Type
REMARK                         _______ _______ _______ _____ _____    ______ ____
ROOT
ATOM      1  S   UNL     1      33.254 -13.675 -23.809  0.00  0.00    +0.074 S 
ATOM      2  O   UNL     1      32.686 -14.155 -25.063  0.00  0.00    -0.150 OA
ATOM      3  O   UNL     1      34.215 -12.579 -23.847  0.00  0.00    -0.150 OA
ENDROOT
BRANCH   1   4
ATOM      4  C   UNL     1      33.991 -15.037 -23.003  0.00  0.00    +0.125 C 
ATOM      5  C   UNL     1      34.011 -15.096 -21.610  0.00  0.00    +0.021 C 
ATOM      6  C   UNL     1      34.561 -16.065 -23.753  0.00  0.00    +0.021 C 
ATOM      7  C   UNL     1      35.170 -17.214 -21.716  0.00  0.00    +0.050 C 
ATOM      8  C   UNL     1      34.600 -16.185 -20.966  0.00  0.00    +0.016 C 
ATOM      9  C   UNL     1      35.150 -17.154 -23.109  0.00  0.00    +0.016 C 
BRANCH   7  11
ATOM     10  O   UNL     1      34.110 -19.984 -21.197  0.00  0.00    -0.275 OA
ATOM     11  N   UNL     1      35.758 -18.302 -21.072  0.00  0.00    -0.284 N 
ATOM     12  C   UNL     1      35.216 -19.576 -20.855  0.00  0.00    +0.227 C 
ATOM     13  C   UNL     1      36.177 -20.475 -20.117  0.00  0.00    +0.095 C 
ATOM     14  H   UNL     1      36.668 -18.157 -20.726  0.00  0.00    +0.155 HD
ENDBRANCH   7  11
ENDBRANCH   1   4
BRANCH   1  15
ATOM     15  N   UNL     1      31.954 -13.265 -22.755  0.00  0.00    -0.215 N 
ATOM     16  H   UNL     1      31.235 -13.910 -22.565  0.00  0.00    +0.174 HD
BRANCH  15  17
ATOM     17  C   UNL     1      31.951 -11.956 -22.161  0.00  0.00    +0.065 C 
ATOM     18  C   UNL     1      32.280 -10.849 -22.935  0.00  0.00    +0.018 C 
ATOM     19  C   UNL     1      31.620 -11.810 -20.819  0.00  0.00    +0.018 C 
ATOM     20  C   UNL     1      31.946  -9.424 -21.014  0.00  0.00    +0.143 C 
ATOM     21  C   UNL     1      32.277  -9.579 -22.360  0.00  0.00    +0.025 C 
ATOM     22  C   UNL     1      31.618 -10.539 -20.243  0.00  0.00    +0.025 C 
BRANCH  20  25
ATOM     23  O   UNL     1      31.995  -8.031 -19.177  0.00  0.00    -0.126 OA
ATOM     24  O   UNL     1      31.892  -7.124 -21.174  0.00  0.00    -0.126 OA
ATOM     25  N   UNL     1      31.944  -8.130 -20.427  0.00  0.00    +0.058 N 
ENDBRANCH  20  25
ENDBRANCH  15  17
ENDBRANCH   1  15
TORSDOF 5
ENDMDL
MODEL 9
REMARK VINA RESULT:      -9.5      3.847      9.493
REMARK  Name = 5334
REMARK  5 active torsions:
REMARK  status: ('A' for Active; 'I' for Inactive)
REMARK    1  A    between atoms: S_1  and  C_4
REMARK    2  A    between atoms: S_1  and  N_15
REMARK    3  A    between atoms: C_7  and  N_11
REMARK    4  A    between atoms: N_15  and  C_17
REMARK    5  A    between atoms: C_20  and  N_25
REMARK                            x       y       z     vdW  Elec       q    Type
REMARK                         _______ _______ _______ _____ _____    ______ ____
ROOT
ATOM      1  S   UNL     1      33.924 -22.779 -18.786  0.00  0.00    +0.074 S 
ATOM      2  O   UNL     1      32.811 -21.848 -18.929  0.00  0.00    -0.150 OA
ATOM      3  O   UNL     1      33.833 -24.087 -19.422  0.00  0.00    -0.150 OA
ENDROOT
BRANCH   1   4
ATOM      4  C   UNL     1      34.212 -23.007 -17.079  0.00  0.00    +0.125 C 
ATOM      5  C   UNL     1      35.479 -22.773 -16.546  0.00  0.00    +0.021 C 
ATOM      6  C   UNL     1      33.172 -23.423 -16.247  0.00  0.00    +0.021 C 
ATOM      7  C   UNL     1      34.669 -23.371 -14.351  0.00  0.00    +0.050 C 
ATOM      8  C   UNL     1      35.708 -22.955 -15.182  0.00  0.00    +0.016 C 
ATOM      9  C   UNL     1      33.401 -23.605 -14.883  0.00  0.00    +0.016 C 
BRANCH   7  11
ATOM     10  O   UNL     1      36.344 -25.412 -12.904  0.00  0.00    -0.275 OA
ATOM     11  N   UNL     1      34.897 -23.553 -12.987  0.00  0.00    -0.284 N 
ATOM     12  C   UNL     1      35.690 -24.526 -12.364  0.00  0.00    +0.227 C 
ATOM     13  C   UNL     1      35.677 -24.381 -10.862  0.00  0.00    +0.095 C 
ATOM     14  H   UNL     1      34.445 -22.916 -12.387  0.00  0.00    +0.155 HD
ENDBRANCH   7  11
ENDBRANCH   1   4
BRANCH   1  15
ATOM     15  N   UNL     1      35.359 -21.982 -19.311  0.00  0.00    -0.215 N 
ATOM     16  H   UNL     1      36.248 -22.350 -19.102  0.00  0.00    +0.174 HD
BRANCH  15  17
ATOM     17  C   UNL     1      35.220 -20.765 -20.064  0.00  0.00    +0.065 C 
ATOM     18  C   UNL     1      36.348 -20.012 -20.367  0.00  0.00    +0.018 C 
ATOM     19  C   UNL     1      33.960 -20.355 -20.482  0.00  0.00    +0.018 C 
ATOM     20  C   UNL     1      34.953 -18.413 -21.520  0.00  0.00    +0.143 C 
ATOM     21  C   UNL     1      36.214 -18.832 -21.098  0.00  0.00    +0.025 C 
ATOM     22  C   UNL     1      33.826 -19.173 -21.212  0.00  0.00    +0.025 C 
BRANCH  20  25
ATOM     23  O   UNL     1      34.535 -17.280 -23.485  0.00  0.00    -0.126 OA
ATOM     24  O   UNL     1      34.978 -16.112 -21.679  0.00  0.00    -0.126 OA
ATOM     25  N   UNL     1      34.816 -17.210 -22.264  0.00  0.00    +0.058 N 
ENDBRANCH  20  25
ENDBRANCH  15  17
ENDBRANCH   1  15
TORSDOF 5
ENDMDL
