MODEL 1
REMARK VINA RESULT:      -9.9      0.000      0.000
REMARK  Name = 11473003
REMARK  8 active torsions:
REMARK  status: ('A' for Active; 'I' for Inactive)
REMARK    1  A    between atoms: S_1  and  C_4
REMARK    2  A    between atoms: S_1  and  N_14
REMARK    3  A    between atoms: N_14  and  C_16
REMARK    4  A    between atoms: C_16  and  C_17
REMARK    5  A    between atoms: C_17  and  O_18
REMARK    6  A    between atoms: O_18  and  P_19
REMARK    7  A    between atoms: P_19  and  O_21
REMARK    8  A    between atoms: P_19  and  O_23
REMARK                            x       y       z     vdW  Elec       q    Type
REMARK                         _______ _______ _______ _____ _____    ______ ____
ROOT
ATOM      1  S   UNL     1      33.768 -23.009 -18.325  0.00  0.00    +0.060 S 
ATOM      2  O   UNL     1      33.774 -24.211 -19.150  0.00  0.00    -0.153 OA
ATOM      3  O   UNL     1      34.747 -22.875 -17.254  0.00  0.00    -0.153 OA
ENDROOT
BRANCH   1   4
ATOM      4  C   UNL     1      33.919 -21.613 -19.363  0.00  0.00    +0.122 C 
ATOM      5  C   UNL     1      35.320 -20.043 -20.582  0.00  0.00    +0.001 C 
ATOM      6  C   UNL     1      35.182 -21.165 -19.748  0.00  0.00    +0.020 C 
ATOM      7  C   UNL     1      34.160 -19.368 -21.032  0.00  0.00    +0.000 C 
ATOM      8  C   UNL     1      32.778 -20.950 -19.804  0.00  0.00    +0.020 C 
ATOM      9  C   UNL     1      32.897 -19.835 -20.634  0.00  0.00    +0.001 C 
ATOM     10  C   UNL     1      36.583 -19.578 -20.980  0.00  0.00    +0.000 C 
ATOM     11  C   UNL     1      34.298 -18.247 -21.866  0.00  0.00    +0.000 C 
ATOM     12  C   UNL     1      36.702 -18.462 -21.809  0.00  0.00    +0.000 C 
ATOM     13  C   UNL     1      35.562 -17.798 -22.252  0.00  0.00    +0.000 C 
ENDBRANCH   1   4
BRANCH   1  14
ATOM     14  N   UNL     1      32.205 -22.810 -17.662  0.00  0.00    -0.177 NA
ATOM     15  H   UNL     1      31.572 -23.380 -18.223  0.00  0.00    +0.149 HD
BRANCH  14  16
ATOM     16  C   UNL     1      31.956 -23.158 -16.256  0.00  0.00    +0.124 C 
BRANCH  16  17
ATOM     17  C   UNL     1      30.492 -23.515 -16.072  0.00  0.00    +0.172 C 
BRANCH  17  18
ATOM     18  O   UNL     1      29.700 -22.728 -16.953  0.00  0.00    -0.272 OA
BRANCH  18  19
ATOM     19  P   UNL     1      28.092 -22.777 -16.789  0.00  0.00    +0.473 P 
ATOM     20  O   UNL     1      27.378 -21.505 -17.142  0.00  0.00    -0.227 OA
BRANCH  19  21
ATOM     21  O   UNL     1      27.875 -23.295 -15.273  0.00  0.00    -0.303 OA
ATOM     22  H   UNL     1      28.272 -22.663 -14.655  0.00  0.00    +0.222 HD
ENDBRANCH  19  21
BRANCH  19  23
ATOM     23  O   UNL     1      27.681 -24.061 -17.682  0.00  0.00    -0.303 OA
ATOM     24  H   UNL     1      28.477 -24.445 -18.082  0.00  0.00    +0.222 HD
ENDBRANCH  19  23
ENDBRANCH  18  19
ENDBRANCH  17  18
ENDBRANCH  16  17
ENDBRANCH  14  16
ENDBRANCH   1  14
TORSDOF 8
ENDMDL
MODEL 2
REMARK VINA RESULT:      -9.7      3.303      5.330
REMARK  Name = 11473003
REMARK  8 active torsions:
REMARK  status: ('A' for Active; 'I' for Inactive)
REMARK    1  A    between atoms: S_1  and  C_4
REMARK    2  A    between atoms: S_1  and  N_14
REMARK    3  A    between atoms: N_14  and  C_16
REMARK    4  A    between atoms: C_16  and  C_17
REMARK    5  A    between atoms: C_17  and  O_18
REMARK    6  A    between atoms: O_18  and  P_19
REMARK    7  A    between atoms: P_19  and  O_21
REMARK    8  A    between atoms: P_19  and  O_23
REMARK                            x       y       z     vdW  Elec       q    Type
REMARK                         _______ _______ _______ _____ _____    ______ ____
ROOT
ATOM      1  S   UNL     1      33.742 -23.067 -18.229  0.00  0.00    +0.060 S 
ATOM      2  O   UNL     1      32.484 -22.526 -17.727  0.00  0.00    -0.153 OA
ATOM      3  O   UNL     1      33.724 -24.282 -19.034  0.00  0.00    -0.153 OA
ENDROOT
BRANCH   1   4
ATOM      4  C   UNL     1      34.558 -21.829 -19.151  0.00  0.00    +0.122 C 
ATOM      5  C   UNL     1      34.461 -19.934 -20.672  0.00  0.00    +0.001 C 
ATOM      6  C   UNL     1      33.819 -20.934 -19.924  0.00  0.00    +0.020 C 
ATOM      7  C   UNL     1      35.873 -19.839 -20.633  0.00  0.00    +0.000 C 
ATOM      8  C   UNL     1      35.946 -21.737 -19.113  0.00  0.00    +0.020 C 
ATOM      9  C   UNL     1      36.600 -20.749 -19.849  0.00  0.00    +0.001 C 
ATOM     10  C   UNL     1      33.733 -19.024 -21.455  0.00  0.00    +0.000 C 
ATOM     11  C   UNL     1      36.514 -18.839 -21.380  0.00  0.00    +0.000 C 
ATOM     12  C   UNL     1      34.387 -18.036 -22.192  0.00  0.00    +0.000 C 
ATOM     13  C   UNL     1      35.776 -17.943 -22.154  0.00  0.00    +0.000 C 
ENDBRANCH   1   4
BRANCH   1  14
ATOM     14  N   UNL     1      34.801 -23.303 -16.908  0.00  0.00    -0.177 NA
ATOM     15  H   UNL     1      35.353 -22.451 -16.819  0.00  0.00    +0.149 HD
BRANCH  14  16
ATOM     16  C   UNL     1      34.254 -23.596 -15.576  0.00  0.00    +0.124 C 
BRANCH  16  17
ATOM     17  C   UNL     1      34.911 -24.847 -15.021  0.00  0.00    +0.172 C 
BRANCH  17  18
ATOM     18  O   UNL     1      36.275 -24.881 -15.422  0.00  0.00    -0.272 OA
BRANCH  18  19
ATOM     19  P   UNL     1      37.155 -26.183 -15.041  0.00  0.00    +0.473 P 
ATOM     20  O   UNL     1      36.984 -26.676 -13.633  0.00  0.00    -0.227 OA
BRANCH  19  21
ATOM     21  O   UNL     1      38.662 -25.762 -15.448  0.00  0.00    -0.303 OA
ATOM     22  H   UNL     1      39.235 -26.543 -15.419  0.00  0.00    +0.222 HD
ENDBRANCH  19  21
BRANCH  19  23
ATOM     23  O   UNL     1      36.742 -27.243 -16.191  0.00  0.00    -0.303 OA
ATOM     24  H   UNL     1      36.576 -26.770 -17.022  0.00  0.00    +0.222 HD
ENDBRANCH  19  23
ENDBRANCH  18  19
ENDBRANCH  17  18
ENDBRANCH  16  17
ENDBRANCH  14  16
ENDBRANCH   1  14
TORSDOF 8
ENDMDL
MODEL 3
REMARK VINA RESULT:      -9.7      5.279      7.643
REMARK  Name = 11473003
REMARK  8 active torsions:
REMARK  status: ('A' for Active; 'I' for Inactive)
REMARK    1  A    between atoms: S_1  and  C_4
REMARK    2  A    between atoms: S_1  and  N_14
REMARK    3  A    between atoms: N_14  and  C_16
REMARK    4  A    between atoms: C_16  and  C_17
REMARK    5  A    between atoms: C_17  and  O_18
REMARK    6  A    between atoms: O_18  and  P_19
REMARK    7  A    between atoms: P_19  and  O_21
REMARK    8  A    between atoms: P_19  and  O_23
REMARK                            x       y       z     vdW  Elec       q    Type
REMARK                         _______ _______ _______ _____ _____    ______ ____
ROOT
ATOM      1  S   UNL     1      35.001 -23.910 -13.714  0.00  0.00    +0.060 S 
ATOM      2  O   UNL     1      36.076 -23.134 -13.108  0.00  0.00    -0.153 OA
ATOM      3  O   UNL     1      33.698 -23.951 -13.064  0.00  0.00    -0.153 OA
ENDROOT
BRANCH   1   4
ATOM      4  C   UNL     1      34.762 -23.355 -15.352  0.00  0.00    +0.122 C 
ATOM      5  C   UNL     1      35.632 -22.289 -17.358  0.00  0.00    +0.001 C 
ATOM      6  C   UNL     1      35.809 -22.742 -16.040  0.00  0.00    +0.020 C 
ATOM      7  C   UNL     1      34.376 -22.463 -17.987  0.00  0.00    +0.000 C 
ATOM      8  C   UNL     1      33.527 -23.526 -15.970  0.00  0.00    +0.020 C 
ATOM      9  C   UNL     1      33.334 -23.084 -17.279  0.00  0.00    +0.001 C 
ATOM     10  C   UNL     1      36.674 -21.669 -18.066  0.00  0.00    +0.000 C 
ATOM     11  C   UNL     1      34.199 -22.011 -19.304  0.00  0.00    +0.000 C 
ATOM     12  C   UNL     1      36.481 -21.226 -19.374  0.00  0.00    +0.000 C 
ATOM     13  C   UNL     1      35.246 -21.397 -19.993  0.00  0.00    +0.000 C 
ENDBRANCH   1   4
BRANCH   1  14
ATOM     14  N   UNL     1      35.548 -25.514 -13.943  0.00  0.00    -0.177 NA
ATOM     15  H   UNL     1      35.426 -25.727 -14.933  0.00  0.00    +0.149 HD
BRANCH  14  16
ATOM     16  C   UNL     1      36.930 -25.872 -13.597  0.00  0.00    +0.124 C 
BRANCH  16  17
ATOM     17  C   UNL     1      37.647 -26.383 -14.834  0.00  0.00    +0.172 C 
BRANCH  17  18
ATOM     18  O   UNL     1      38.917 -26.904 -14.461  0.00  0.00    -0.272 OA
BRANCH  18  19
ATOM     19  P   UNL     1      40.206 -25.933 -14.570  0.00  0.00    +0.473 P 
ATOM     20  O   UNL     1      40.066 -24.610 -13.875  0.00  0.00    -0.227 OA
BRANCH  19  21
ATOM     21  O   UNL     1      40.495 -25.854 -16.158  0.00  0.00    -0.303 OA
ATOM     22  H   UNL     1      41.377 -25.483 -16.309  0.00  0.00    +0.222 HD
ENDBRANCH  19  21
BRANCH  19  23
ATOM     23  O   UNL     1      41.405 -26.870 -14.021  0.00  0.00    -0.303 OA
ATOM     24  H   UNL     1      41.572 -27.586 -14.654  0.00  0.00    +0.222 HD
ENDBRANCH  19  23
ENDBRANCH  18  19
ENDBRANCH  17  18
ENDBRANCH  16  17
ENDBRANCH  14  16
ENDBRANCH   1  14
TORSDOF 8
ENDMDL
MODEL 4
REMARK VINA RESULT:      -9.6      3.286      5.054
REMARK  Name = 11473003
REMARK  8 active torsions:
REMARK  status: ('A' for Active; 'I' for Inactive)
REMARK    1  A    between atoms: S_1  and  C_4
REMARK    2  A    between atoms: S_1  and  N_14
REMARK    3  A    between atoms: N_14  and  C_16
REMARK    4  A    between atoms: C_16  and  C_17
REMARK    5  A    between atoms: C_17  and  O_18
REMARK    6  A    between atoms: O_18  and  P_19
REMARK    7  A    between atoms: P_19  and  O_21
REMARK    8  A    between atoms: P_19  and  O_23
REMARK                            x       y       z     vdW  Elec       q    Type
REMARK                         _______ _______ _______ _____ _____    ______ ____
ROOT
ATOM      1  S   UNL     1      33.617 -22.945 -18.306  0.00  0.00    +0.060 S 
ATOM      2  O   UNL     1      32.374 -22.744 -17.573  0.00  0.00    -0.153 OA
ATOM      3  O   UNL     1      33.793 -24.160 -19.092  0.00  0.00    -0.153 OA
ENDROOT
BRANCH   1   4
ATOM      4  C   UNL     1      33.872 -21.583 -19.368  0.00  0.00    +0.122 C 
ATOM      5  C   UNL     1      35.389 -20.093 -20.548  0.00  0.00    +0.001 C 
ATOM      6  C   UNL     1      35.168 -21.188 -19.697  0.00  0.00    +0.020 C 
ATOM      7  C   UNL     1      34.279 -19.390 -21.076  0.00  0.00    +0.000 C 
ATOM      8  C   UNL     1      32.780 -20.892 -19.885  0.00  0.00    +0.020 C 
ATOM      9  C   UNL     1      32.981 -19.803 -20.733  0.00  0.00    +0.001 C 
ATOM     10  C   UNL     1      36.688 -19.681 -20.890  0.00  0.00    +0.000 C 
ATOM     11  C   UNL     1      34.500 -18.296 -21.927  0.00  0.00    +0.000 C 
ATOM     12  C   UNL     1      36.889 -18.592 -21.738  0.00  0.00    +0.000 C 
ATOM     13  C   UNL     1      35.797 -17.901 -22.256  0.00  0.00    +0.000 C 
ENDBRANCH   1   4
BRANCH   1  14
ATOM     14  N   UNL     1      34.925 -22.810 -17.212  0.00  0.00    -0.177 NA
ATOM     15  H   UNL     1      35.197 -21.827 -17.200  0.00  0.00    +0.149 HD
BRANCH  14  16
ATOM     16  C   UNL     1      34.752 -23.222 -15.813  0.00  0.00    +0.124 C 
BRANCH  16  17
ATOM     17  C   UNL     1      36.009 -23.923 -15.330  0.00  0.00    +0.172 C 
BRANCH  17  18
ATOM     18  O   UNL     1      35.692 -25.259 -14.961  0.00  0.00    -0.272 OA
BRANCH  18  19
ATOM     19  P   UNL     1      36.839 -26.389 -15.111  0.00  0.00    +0.473 P 
ATOM     20  O   UNL     1      36.642 -27.346 -16.251  0.00  0.00    -0.227 OA
BRANCH  19  21
ATOM     21  O   UNL     1      36.908 -27.064 -13.644  0.00  0.00    -0.303 OA
ATOM     22  H   UNL     1      36.575 -27.974 -13.690  0.00  0.00    +0.222 HD
ENDBRANCH  19  21
BRANCH  19  23
ATOM     23  O   UNL     1      38.197 -25.513 -15.182  0.00  0.00    -0.303 OA
ATOM     24  H   UNL     1      38.815 -25.924 -15.806  0.00  0.00    +0.222 HD
ENDBRANCH  19  23
ENDBRANCH  18  19
ENDBRANCH  17  18
ENDBRANCH  16  17
ENDBRANCH  14  16
ENDBRANCH   1  14
TORSDOF 8
ENDMDL
MODEL 5
REMARK VINA RESULT:      -9.2      6.703      8.787
REMARK  Name = 11473003
REMARK  8 active torsions:
REMARK  status: ('A' for Active; 'I' for Inactive)
REMARK    1  A    between atoms: S_1  and  C_4
REMARK    2  A    between atoms: S_1  and  N_14
REMARK    3  A    between atoms: N_14  and  C_16
REMARK    4  A    between atoms: C_16  and  C_17
REMARK    5  A    between atoms: C_17  and  O_18
REMARK    6  A    between atoms: O_18  and  P_19
REMARK    7  A    between atoms: P_19  and  O_21
REMARK    8  A    between atoms: P_19  and  O_23
REMARK                            x       y       z     vdW  Elec       q    Type
REMARK                         _______ _______ _______ _____ _____    ______ ____
ROOT
ATOM      1  S   UNL     1      35.384 -24.251 -14.500  0.00  0.00    +0.060 S 
ATOM      2  O   UNL     1      35.900 -25.106 -15.562  0.00  0.00    -0.153 OA
ATOM      3  O   UNL     1      35.816 -22.861 -14.431  0.00  0.00    -0.153 OA
ENDROOT
BRANCH   1   4
ATOM      4  C   UNL     1      33.639 -24.264 -14.567  0.00  0.00    +0.122 C 
ATOM      5  C   UNL     1      31.570 -23.510 -15.601  0.00  0.00    +0.001 C 
ATOM      6  C   UNL     1      32.973 -23.512 -15.535  0.00  0.00    +0.020 C 
ATOM      7  C   UNL     1      30.833 -24.285 -14.673  0.00  0.00    +0.000 C 
ATOM      8  C   UNL     1      32.915 -25.024 -13.654  0.00  0.00    +0.020 C 
ATOM      9  C   UNL     1      31.521 -25.035 -13.706  0.00  0.00    +0.001 C 
ATOM     10  C   UNL     1      30.883 -22.760 -16.568  0.00  0.00    +0.000 C 
ATOM     11  C   UNL     1      29.430 -24.283 -14.739  0.00  0.00    +0.000 C 
ATOM     12  C   UNL     1      29.489 -22.771 -16.620  0.00  0.00    +0.000 C 
ATOM     13  C   UNL     1      28.764 -23.531 -15.707  0.00  0.00    +0.000 C 
ENDBRANCH   1   4
BRANCH   1  14
ATOM     14  N   UNL     1      35.701 -24.997 -12.995  0.00  0.00    -0.177 NA
ATOM     15  H   UNL     1      35.830 -25.991 -13.182  0.00  0.00    +0.149 HD
BRANCH  14  16
ATOM     16  C   UNL     1      36.853 -24.563 -12.192  0.00  0.00    +0.124 C 
BRANCH  16  17
ATOM     17  C   UNL     1      38.023 -25.500 -12.433  0.00  0.00    +0.172 C 
BRANCH  17  18
ATOM     18  O   UNL     1      39.059 -24.797 -13.106  0.00  0.00    -0.272 OA
BRANCH  18  19
ATOM     19  P   UNL     1      39.513 -25.315 -14.569  0.00  0.00    +0.473 P 
ATOM     20  O   UNL     1      40.984 -25.569 -14.725  0.00  0.00    -0.227 OA
BRANCH  19  21
ATOM     21  O   UNL     1      38.891 -24.215 -15.577  0.00  0.00    -0.303 OA
ATOM     22  H   UNL     1      39.567 -23.940 -16.216  0.00  0.00    +0.222 HD
ENDBRANCH  19  21
BRANCH  19  23
ATOM     23  O   UNL     1      38.568 -26.607 -14.800  0.00  0.00    -0.303 OA
ATOM     24  H   UNL     1      38.428 -27.060 -13.953  0.00  0.00    +0.222 HD
ENDBRANCH  19  23
ENDBRANCH  18  19
ENDBRANCH  17  18
ENDBRANCH  16  17
ENDBRANCH  14  16
ENDBRANCH   1  14
TORSDOF 8
ENDMDL
MODEL 6
REMARK VINA RESULT:      -9.2      2.080      2.478
REMARK  Name = 11473003
REMARK  8 active torsions:
REMARK  status: ('A' for Active; 'I' for Inactive)
REMARK    1  A    between atoms: S_1  and  C_4
REMARK    2  A    between atoms: S_1  and  N_14
REMARK    3  A    between atoms: N_14  and  C_16
REMARK    4  A    between atoms: C_16  and  C_17
REMARK    5  A    between atoms: C_17  and  O_18
REMARK    6  A    between atoms: O_18  and  P_19
REMARK    7  A    between atoms: P_19  and  O_21
REMARK    8  A    between atoms: P_19  and  O_23
REMARK                            x       y       z     vdW  Elec       q    Type
REMARK                         _______ _______ _______ _____ _____    ______ ____
ROOT
ATOM      1  S   UNL     1      33.802 -22.882 -18.374  0.00  0.00    +0.060 S 
ATOM      2  O   UNL     1      33.751 -24.104 -19.168  0.00  0.00    -0.153 OA
ATOM      3  O   UNL     1      34.802 -22.758 -17.321  0.00  0.00    -0.153 OA
ENDROOT
BRANCH   1   4
ATOM      4  C   UNL     1      33.989 -21.520 -19.449  0.00  0.00    +0.122 C 
ATOM      5  C   UNL     1      35.432 -19.988 -20.669  0.00  0.00    +0.001 C 
ATOM      6  C   UNL     1      35.265 -21.083 -19.806  0.00  0.00    +0.020 C 
ATOM      7  C   UNL     1      34.289 -19.327 -21.179  0.00  0.00    +0.000 C 
ATOM      8  C   UNL     1      32.865 -20.870 -19.949  0.00  0.00    +0.020 C 
ATOM      9  C   UNL     1      33.012 -19.781 -20.809  0.00  0.00    +0.001 C 
ATOM     10  C   UNL     1      36.709 -19.535 -21.039  0.00  0.00    +0.000 C 
ATOM     11  C   UNL     1      34.456 -18.233 -22.042  0.00  0.00    +0.000 C 
ATOM     12  C   UNL     1      36.856 -18.446 -21.898  0.00  0.00    +0.000 C 
ATOM     13  C   UNL     1      35.732 -17.796 -22.399  0.00  0.00    +0.000 C 
ENDBRANCH   1   4
BRANCH   1  14
ATOM     14  N   UNL     1      32.257 -22.607 -17.694  0.00  0.00    -0.177 NA
ATOM     15  H   UNL     1      31.590 -22.628 -18.465  0.00  0.00    +0.149 HD
BRANCH  14  16
ATOM     16  C   UNL     1      31.742 -23.514 -16.660  0.00  0.00    +0.124 C 
BRANCH  16  17
ATOM     17  C   UNL     1      32.213 -23.048 -15.294  0.00  0.00    +0.172 C 
BRANCH  17  18
ATOM     18  O   UNL     1      31.203 -23.317 -14.329  0.00  0.00    -0.272 OA
BRANCH  18  19
ATOM     19  P   UNL     1      31.041 -24.833 -13.790  0.00  0.00    +0.473 P 
ATOM     20  O   UNL     1      30.411 -25.789 -14.761  0.00  0.00    -0.227 OA
BRANCH  19  21
ATOM     21  O   UNL     1      30.261 -24.660 -12.384  0.00  0.00    -0.303 OA
ATOM     22  H   UNL     1      29.348 -24.382 -12.552  0.00  0.00    +0.222 HD
ENDBRANCH  19  21
BRANCH  19  23
ATOM     23  O   UNL     1      32.546 -25.213 -13.336  0.00  0.00    -0.303 OA
ATOM     24  H   UNL     1      33.147 -24.488 -13.570  0.00  0.00    +0.222 HD
ENDBRANCH  19  23
ENDBRANCH  18  19
ENDBRANCH  17  18
ENDBRANCH  16  17
ENDBRANCH  14  16
ENDBRANCH   1  14
TORSDOF 8
ENDMDL
MODEL 7
REMARK VINA RESULT:      -9.1      3.321      4.903
REMARK  Name = 11473003
REMARK  8 active torsions:
REMARK  status: ('A' for Active; 'I' for Inactive)
REMARK    1  A    between atoms: S_1  and  C_4
REMARK    2  A    between atoms: S_1  and  N_14
REMARK    3  A    between atoms: N_14  and  C_16
REMARK    4  A    between atoms: C_16  and  C_17
REMARK    5  A    between atoms: C_17  and  O_18
REMARK    6  A    between atoms: O_18  and  P_19
REMARK    7  A    between atoms: P_19  and  O_21
REMARK    8  A    between atoms: P_19  and  O_23
REMARK                            x       y       z     vdW  Elec       q    Type
REMARK                         _______ _______ _______ _____ _____    ______ ____
ROOT
ATOM      1  S   UNL     1      33.820 -22.966 -18.342  0.00  0.00    +0.060 S 
ATOM      2  O   UNL     1      32.586 -22.439 -17.774  0.00  0.00    -0.153 OA
ATOM      3  O   UNL     1      33.771 -24.166 -19.167  0.00  0.00    -0.153 OA
ENDROOT
BRANCH   1   4
ATOM      4  C   UNL     1      34.590 -21.709 -19.278  0.00  0.00    +0.122 C 
ATOM      5  C   UNL     1      34.417 -19.782 -20.753  0.00  0.00    +0.001 C 
ATOM      6  C   UNL     1      33.813 -20.799 -19.994  0.00  0.00    +0.020 C 
ATOM      7  C   UNL     1      35.829 -19.687 -20.783  0.00  0.00    +0.000 C 
ATOM      8  C   UNL     1      35.978 -21.616 -19.308  0.00  0.00    +0.020 C 
ATOM      9  C   UNL     1      36.595 -20.612 -20.055  0.00  0.00    +0.001 C 
ATOM     10  C   UNL     1      33.651 -18.857 -21.480  0.00  0.00    +0.000 C 
ATOM     11  C   UNL     1      36.432 -18.671 -21.541  0.00  0.00    +0.000 C 
ATOM     12  C   UNL     1      34.267 -17.854 -22.228  0.00  0.00    +0.000 C 
ATOM     13  C   UNL     1      35.655 -17.760 -22.258  0.00  0.00    +0.000 C 
ENDBRANCH   1   4
BRANCH   1  14
ATOM     14  N   UNL     1      34.940 -23.221 -17.075  0.00  0.00    -0.177 NA
ATOM     15  H   UNL     1      35.344 -22.312 -16.853  0.00  0.00    +0.149 HD
BRANCH  14  16
ATOM     16  C   UNL     1      34.486 -23.806 -15.806  0.00  0.00    +0.124 C 
BRANCH  16  17
ATOM     17  C   UNL     1      35.681 -24.047 -14.902  0.00  0.00    +0.172 C 
BRANCH  17  18
ATOM     18  O   UNL     1      35.288 -24.866 -13.808  0.00  0.00    -0.272 OA
BRANCH  18  19
ATOM     19  P   UNL     1      35.433 -24.270 -12.311  0.00  0.00    +0.473 P 
ATOM     20  O   UNL     1      35.716 -25.289 -11.246  0.00  0.00    -0.227 OA
BRANCH  19  21
ATOM     21  O   UNL     1      34.079 -23.411 -12.106  0.00  0.00    -0.303 OA
ATOM     22  H   UNL     1      33.655 -23.265 -12.965  0.00  0.00    +0.222 HD
ENDBRANCH  19  21
BRANCH  19  23
ATOM     23  O   UNL     1      36.570 -23.133 -12.489  0.00  0.00    -0.303 OA
ATOM     24  H   UNL     1      37.267 -23.266 -11.827  0.00  0.00    +0.222 HD
ENDBRANCH  19  23
ENDBRANCH  18  19
ENDBRANCH  17  18
ENDBRANCH  16  17
ENDBRANCH  14  16
ENDBRANCH   1  14
TORSDOF 8
ENDMDL
MODEL 8
REMARK VINA RESULT:      -8.9      6.481      8.723
REMARK  Name = 11473003
REMARK  8 active torsions:
REMARK  status: ('A' for Active; 'I' for Inactive)
REMARK    1  A    between atoms: S_1  and  C_4
REMARK    2  A    between atoms: S_1  and  N_14
REMARK    3  A    between atoms: N_14  and  C_16
REMARK    4  A    between atoms: C_16  and  C_17
REMARK    5  A    between atoms: C_17  and  O_18
REMARK    6  A    between atoms: O_18  and  P_19
REMARK    7  A    between atoms: P_19  and  O_21
REMARK    8  A    between atoms: P_19  and  O_23
REMARK                            x       y       z     vdW  Elec       q    Type
REMARK                         _______ _______ _______ _____ _____    ______ ____
ROOT
ATOM      1  S   UNL     1      36.800 -23.163 -15.402  0.00  0.00    +0.060 S 
ATOM      2  O   UNL     1      37.465 -22.333 -16.400  0.00  0.00    -0.153 OA
ATOM      3  O   UNL     1      36.994 -22.870 -13.988  0.00  0.00    -0.153 OA
ENDROOT
BRANCH   1   4
ATOM      4  C   UNL     1      35.083 -23.155 -15.718  0.00  0.00    +0.122 C 
ATOM      5  C   UNL     1      32.795 -23.248 -14.897  0.00  0.00    +0.001 C 
ATOM      6  C   UNL     1      34.180 -23.251 -14.659  0.00  0.00    +0.020 C 
ATOM      7  C   UNL     1      32.321 -23.142 -16.226  0.00  0.00    +0.000 C 
ATOM      8  C   UNL     1      34.618 -23.053 -17.025  0.00  0.00    +0.020 C 
ATOM      9  C   UNL     1      33.246 -23.046 -17.279  0.00  0.00    +0.001 C 
ATOM     10  C   UNL     1      31.871 -23.344 -13.844  0.00  0.00    +0.000 C 
ATOM     11  C   UNL     1      30.938 -23.138 -16.464  0.00  0.00    +0.000 C 
ATOM     12  C   UNL     1      30.500 -23.338 -14.098  0.00  0.00    +0.000 C 
ATOM     13  C   UNL     1      30.033 -23.235 -15.405  0.00  0.00    +0.000 C 
ENDBRANCH   1   4
BRANCH   1  14
ATOM     14  N   UNL     1      37.220 -24.796 -15.683  0.00  0.00    -0.177 NA
ATOM     15  H   UNL     1      38.238 -24.835 -15.729  0.00  0.00    +0.149 HD
BRANCH  14  16
ATOM     16  C   UNL     1      36.798 -25.834 -14.733  0.00  0.00    +0.124 C 
BRANCH  16  17
ATOM     17  C   UNL     1      37.935 -26.814 -14.511  0.00  0.00    +0.172 C 
BRANCH  17  18
ATOM     18  O   UNL     1      38.981 -26.169 -13.795  0.00  0.00    -0.272 OA
BRANCH  18  19
ATOM     19  P   UNL     1      40.387 -25.916 -14.552  0.00  0.00    +0.473 P 
ATOM     20  O   UNL     1      40.311 -25.916 -16.051  0.00  0.00    -0.227 OA
BRANCH  19  21
ATOM     21  O   UNL     1      41.375 -27.023 -13.909  0.00  0.00    -0.303 OA
ATOM     22  H   UNL     1      40.861 -27.638 -13.364  0.00  0.00    +0.222 HD
ENDBRANCH  19  21
BRANCH  19  23
ATOM     23  O   UNL     1      40.903 -24.531 -13.895  0.00  0.00    -0.303 OA
ATOM     24  H   UNL     1      40.637 -23.787 -14.458  0.00  0.00    +0.222 HD
ENDBRANCH  19  23
ENDBRANCH  18  19
ENDBRANCH  17  18
ENDBRANCH  16  17
ENDBRANCH  14  16
ENDBRANCH   1  14
TORSDOF 8
ENDMDL
MODEL 9
REMARK VINA RESULT:      -8.9      4.239      6.202
REMARK  Name = 11473003
REMARK  8 active torsions:
REMARK  status: ('A' for Active; 'I' for Inactive)
REMARK    1  A    between atoms: S_1  and  C_4
REMARK    2  A    between atoms: S_1  and  N_14
REMARK    3  A    between atoms: N_14  and  C_16
REMARK    4  A    between atoms: C_16  and  C_17
REMARK    5  A    between atoms: C_17  and  O_18
REMARK    6  A    between atoms: O_18  and  P_19
REMARK    7  A    between atoms: P_19  and  O_21
REMARK    8  A    between atoms: P_19  and  O_23
REMARK                            x       y       z     vdW  Elec       q    Type
REMARK                         _______ _______ _______ _____ _____    ______ ____
ROOT
ATOM      1  S   UNL     1      35.834 -18.231 -21.697  0.00  0.00    +0.060 S 
ATOM      2  O   UNL     1      37.230 -18.494 -22.024  0.00  0.00    -0.153 OA
ATOM      3  O   UNL     1      35.512 -17.520 -20.467  0.00  0.00    -0.153 OA
ENDROOT
BRANCH   1   4
ATOM      4  C   UNL     1      35.099 -17.363 -23.022  0.00  0.00    +0.122 C 
ATOM      5  C   UNL     1      34.205 -15.296 -23.941  0.00  0.00    +0.001 C 
ATOM      6  C   UNL     1      34.797 -16.008 -22.885  0.00  0.00    +0.020 C 
ATOM      7  C   UNL     1      33.917 -15.967 -25.153  0.00  0.00    +0.000 C 
ATOM      8  C   UNL     1      34.815 -18.024 -24.212  0.00  0.00    +0.020 C 
ATOM      9  C   UNL     1      34.228 -17.332 -25.272  0.00  0.00    +0.001 C 
ATOM     10  C   UNL     1      33.895 -13.932 -23.821  0.00  0.00    +0.000 C 
ATOM     11  C   UNL     1      33.326 -15.256 -26.209  0.00  0.00    +0.000 C 
ATOM     12  C   UNL     1      33.308 -13.240 -24.881  0.00  0.00    +0.000 C 
ATOM     13  C   UNL     1      33.023 -13.900 -26.073  0.00  0.00    +0.000 C 
ENDBRANCH   1   4
BRANCH   1  14
ATOM     14  N   UNL     1      34.981 -19.713 -21.709  0.00  0.00    -0.177 NA
ATOM     15  H   UNL     1      35.458 -20.332 -21.053  0.00  0.00    +0.149 HD
BRANCH  14  16
ATOM     16  C   UNL     1      33.555 -19.740 -21.357  0.00  0.00    +0.124 C 
BRANCH  16  17
ATOM     17  C   UNL     1      33.373 -20.442 -20.024  0.00  0.00    +0.172 C 
BRANCH  17  18
ATOM     18  O   UNL     1      34.300 -21.516 -19.925  0.00  0.00    -0.272 OA
BRANCH  18  19
ATOM     19  P   UNL     1      34.047 -22.647 -18.798  0.00  0.00    +0.473 P 
ATOM     20  O   UNL     1      35.027 -22.641 -17.661  0.00  0.00    -0.227 OA
BRANCH  19  21
ATOM     21  O   UNL     1      33.974 -24.023 -19.643  0.00  0.00    -0.303 OA
ATOM     22  H   UNL     1      34.188 -23.845 -20.571  0.00  0.00    +0.222 HD
ENDBRANCH  19  21
BRANCH  19  23
ATOM     23  O   UNL     1      32.507 -22.390 -18.373  0.00  0.00    -0.303 OA
ATOM     24  H   UNL     1      32.402 -21.472 -18.077  0.00  0.00    +0.222 HD
ENDBRANCH  19  23
ENDBRANCH  18  19
ENDBRANCH  17  18
ENDBRANCH  16  17
ENDBRANCH  14  16
ENDBRANCH   1  14
TORSDOF 8
ENDMDL
