MODEL 1
REMARK VINA RESULT:      -5.4      0.000      0.000
REMARK  Name = 447569
REMARK  5 active torsions:
REMARK  status: ('A' for Active; 'I' for Inactive)
REMARK    1  A    between atoms: CA_1  and  N_2
REMARK    2  A    between atoms: CA_1  and  C_7
REMARK    3  A    between atoms: CA_1  and  C_10
REMARK    4  A    between atoms: C_7  and  O_8
REMARK    5  A    between atoms: C_10  and  C_12
REMARK                            x       y       z     vdW  Elec       q    Type
REMARK                         _______ _______ _______ _____ _____    ______ ____
ROOT
ATOM      1  CA  UNL     1      38.742 -25.692 -14.281  0.00  0.00    +0.038 C 
ENDROOT
BRANCH   1   2
ATOM      2  N   UNL     1      37.952 -26.920 -14.382  0.00  0.00    +0.389 N 
ATOM      3  H1  UNL     1      38.528 -27.662 -14.780  0.00  0.00    -0.088 HD
ATOM      4  H2  UNL     1      37.145 -26.756 -14.983  0.00  0.00    -0.088 HD
ATOM      5  H3  UNL     1      37.634 -27.197 -13.454  0.00  0.00    -0.088 HD
ENDBRANCH   1   2
BRANCH   1   7
ATOM      6  OXT UNL     1      41.031 -26.462 -13.917  0.00  0.00    -0.253 OA
ATOM      7  C   UNL     1      40.161 -26.053 -14.673  0.00  0.00    +0.293 C 
BRANCH   7   8
ATOM      8  O   UNL     1      40.362 -25.834 -15.998  0.00  0.00    -0.482 OA
ATOM      9  H   UNL     1      39.701 -26.073 -16.618  0.00  0.00    +0.295 HD
ENDBRANCH   7   8
ENDBRANCH   1   7
BRANCH   1  10
ATOM     10  C   UNL     1      38.684 -25.154 -12.849  0.00  0.00    +0.021 C 
BRANCH  10  12
ATOM     11  O   UNL     1      38.359 -23.027 -11.668  0.00  0.00    -0.351 OA
ATOM     12  C   UNL     1      37.930 -23.861 -12.741  0.00  0.00    +0.143 C 
ATOM     13  C   UNL     1      37.046 -23.593 -11.571  0.00  0.00    +0.171 C 
ENDBRANCH  10  12
ENDBRANCH   1  10
TORSDOF 5
ENDMDL
MODEL 2
REMARK VINA RESULT:      -5.2      8.919      9.851
REMARK  Name = 447569
REMARK  5 active torsions:
REMARK  status: ('A' for Active; 'I' for Inactive)
REMARK    1  A    between atoms: CA_1  and  N_2
REMARK    2  A    between atoms: CA_1  and  C_7
REMARK    3  A    between atoms: CA_1  and  C_10
REMARK    4  A    between atoms: C_7  and  O_8
REMARK    5  A    between atoms: C_10  and  C_12
REMARK                            x       y       z     vdW  Elec       q    Type
REMARK                         _______ _______ _______ _____ _____    ______ ____
ROOT
ATOM      1  CA  UNL     1      30.144 -25.156 -14.925  0.00  0.00    +0.038 C 
ENDROOT
BRANCH   1   2
ATOM      2  N   UNL     1      28.884 -25.660 -14.380  0.00  0.00    +0.389 N 
ATOM      3  H1  UNL     1      28.524 -26.399 -14.984  0.00  0.00    -0.088 HD
ATOM      4  H2  UNL     1      28.206 -24.900 -14.332  0.00  0.00    -0.088 HD
ATOM      5  H3  UNL     1      29.043 -26.033 -13.444  0.00  0.00    -0.088 HD
ENDBRANCH   1   2
BRANCH   1   7
ATOM      6  OXT UNL     1      30.766 -24.024 -12.852  0.00  0.00    -0.253 OA
ATOM      7  C   UNL     1      31.029 -24.821 -13.742  0.00  0.00    +0.293 C 
BRANCH   7   8
ATOM      8  O   UNL     1      32.196 -25.514 -13.805  0.00  0.00    -0.482 OA
ATOM      9  H   UNL     1      32.636 -25.617 -14.626  0.00  0.00    +0.295 HD
ENDBRANCH   7   8
ENDBRANCH   1   7
BRANCH   1  10
ATOM     10  C   UNL     1      29.879 -23.916 -15.784  0.00  0.00    +0.021 C 
BRANCH  10  12
ATOM     11  O   UNL     1      27.925 -24.309 -17.216  0.00  0.00    -0.351 OA
ATOM     12  C   UNL     1      28.418 -23.682 -16.035  0.00  0.00    +0.143 C 
ATOM     13  C   UNL     1      27.968 -22.876 -17.206  0.00  0.00    +0.171 C 
ENDBRANCH  10  12
ENDBRANCH   1  10
TORSDOF 5
ENDMDL
MODEL 3
REMARK VINA RESULT:      -5.2      1.942      4.336
REMARK  Name = 447569
REMARK  5 active torsions:
REMARK  status: ('A' for Active; 'I' for Inactive)
REMARK    1  A    between atoms: CA_1  and  N_2
REMARK    2  A    between atoms: CA_1  and  C_7
REMARK    3  A    between atoms: CA_1  and  C_10
REMARK    4  A    between atoms: C_7  and  O_8
REMARK    5  A    between atoms: C_10  and  C_12
REMARK                            x       y       z     vdW  Elec       q    Type
REMARK                         _______ _______ _______ _____ _____    ______ ____
ROOT
ATOM      1  CA  UNL     1      37.053 -25.775 -12.602  0.00  0.00    +0.038 C 
ENDROOT
BRANCH   1   2
ATOM      2  N   UNL     1      36.293 -25.850 -13.850  0.00  0.00    +0.389 N 
ATOM      3  H1  UNL     1      36.922 -25.700 -14.640  0.00  0.00    -0.088 HD
ATOM      4  H2  UNL     1      35.570 -25.131 -13.851  0.00  0.00    -0.088 HD
ATOM      5  H3  UNL     1      35.859 -26.769 -13.930  0.00  0.00    -0.088 HD
ENDBRANCH   1   2
BRANCH   1   7
ATOM      6  OXT UNL     1      36.745 -24.167 -10.790  0.00  0.00    -0.253 OA
ATOM      7  C   UNL     1      36.271 -24.873 -11.669  0.00  0.00    +0.293 C 
BRANCH   7   8
ATOM      8  O   UNL     1      34.939 -24.968 -11.916  0.00  0.00    -0.482 OA
ATOM      9  H   UNL     1      34.635 -25.165 -12.780  0.00  0.00    +0.295 HD
ENDBRANCH   7   8
ENDBRANCH   1   7
BRANCH   1  10
ATOM     10  C   UNL     1      38.449 -25.208 -12.877  0.00  0.00    +0.021 C 
BRANCH  10  12
ATOM     11  O   UNL     1      39.158 -26.709 -14.684  0.00  0.00    -0.351 OA
ATOM     12  C   UNL     1      38.870 -25.364 -14.309  0.00  0.00    +0.143 C 
ATOM     13  C   UNL     1      40.258 -25.790 -14.649  0.00  0.00    +0.171 C 
ENDBRANCH  10  12
ENDBRANCH   1  10
TORSDOF 5
ENDMDL
MODEL 4
REMARK VINA RESULT:      -5.1      2.416      2.650
REMARK  Name = 447569
REMARK  5 active torsions:
REMARK  status: ('A' for Active; 'I' for Inactive)
REMARK    1  A    between atoms: CA_1  and  N_2
REMARK    2  A    between atoms: CA_1  and  C_7
REMARK    3  A    between atoms: CA_1  and  C_10
REMARK    4  A    between atoms: C_7  and  O_8
REMARK    5  A    between atoms: C_10  and  C_12
REMARK                            x       y       z     vdW  Elec       q    Type
REMARK                         _______ _______ _______ _____ _____    ______ ____
ROOT
ATOM      1  CA  UNL     1      38.728 -25.858 -14.477  0.00  0.00    +0.038 C 
ENDROOT
BRANCH   1   2
ATOM      2  N   UNL     1      38.728 -25.976 -13.018  0.00  0.00    +0.389 N 
ATOM      3  H1  UNL     1      38.336 -26.879 -12.751  0.00  0.00    -0.088 HD
ATOM      4  H2  UNL     1      38.162 -25.228 -12.617  0.00  0.00    -0.088 HD
ATOM      5  H3  UNL     1      39.683 -25.904 -12.670  0.00  0.00    -0.088 HD
ENDBRANCH   1   2
BRANCH   1   7
ATOM      6  OXT UNL     1      40.886 -24.741 -14.229  0.00  0.00    -0.253 OA
ATOM      7  C   UNL     1      40.130 -25.448 -14.880  0.00  0.00    +0.293 C 
BRANCH   7   8
ATOM      8  O   UNL     1      40.444 -25.953 -16.102  0.00  0.00    -0.482 OA
ATOM      9  H   UNL     1      41.195 -26.505 -16.202  0.00  0.00    +0.295 HD
ENDBRANCH   7   8
ENDBRANCH   1   7
BRANCH   1  10
ATOM     10  C   UNL     1      37.699 -24.812 -14.913  0.00  0.00    +0.021 C 
BRANCH  10  12
ATOM     11  O   UNL     1      35.429 -24.637 -15.830  0.00  0.00    -0.351 OA
ATOM     12  C   UNL     1      36.300 -25.352 -14.956  0.00  0.00    +0.143 C 
ATOM     13  C   UNL     1      35.160 -24.551 -14.424  0.00  0.00    +0.171 C 
ENDBRANCH  10  12
ENDBRANCH   1  10
TORSDOF 5
ENDMDL
MODEL 5
REMARK VINA RESULT:      -5.1      2.443      2.782
REMARK  Name = 447569
REMARK  5 active torsions:
REMARK  status: ('A' for Active; 'I' for Inactive)
REMARK    1  A    between atoms: CA_1  and  N_2
REMARK    2  A    between atoms: CA_1  and  C_7
REMARK    3  A    between atoms: CA_1  and  C_10
REMARK    4  A    between atoms: C_7  and  O_8
REMARK    5  A    between atoms: C_10  and  C_12
REMARK                            x       y       z     vdW  Elec       q    Type
REMARK                         _______ _______ _______ _____ _____    ______ ____
ROOT
ATOM      1  CA  UNL     1      37.331 -26.655 -14.010  0.00  0.00    +0.038 C 
ENDROOT
BRANCH   1   2
ATOM      2  N   UNL     1      38.747 -26.415 -14.290  0.00  0.00    +0.389 N 
ATOM      3  H1  UNL     1      38.957 -26.699 -15.247  0.00  0.00    -0.088 HD
ATOM      4  H2  UNL     1      39.318 -26.957 -13.642  0.00  0.00    -0.088 HD
ATOM      5  H3  UNL     1      38.953 -25.423 -14.177  0.00  0.00    -0.088 HD
ENDBRANCH   1   2
BRANCH   1   7
ATOM      6  OXT UNL     1      35.792 -25.455 -15.478  0.00  0.00    -0.253 OA
ATOM      7  C   UNL     1      36.578 -26.373 -15.295  0.00  0.00    +0.293 C 
BRANCH   7   8
ATOM      8  O   UNL     1      36.871 -27.308 -16.236  0.00  0.00    -0.482 OA
ATOM      9  H   UNL     1      37.760 -27.448 -16.497  0.00  0.00    +0.295 HD
ENDBRANCH   7   8
ENDBRANCH   1   7
BRANCH   1  10
ATOM     10  C   UNL     1      36.861 -25.733 -12.881  0.00  0.00    +0.021 C 
BRANCH  10  12
ATOM     11  O   UNL     1      37.881 -24.343 -11.135  0.00  0.00    -0.351 OA
ATOM     12  C   UNL     1      37.880 -24.692 -12.517  0.00  0.00    +0.143 C 
ATOM     13  C   UNL     1      37.451 -23.338 -12.062  0.00  0.00    +0.171 C 
ENDBRANCH  10  12
ENDBRANCH   1  10
TORSDOF 5
ENDMDL
MODEL 6
REMARK VINA RESULT:      -5.1      2.635      4.687
REMARK  Name = 447569
REMARK  5 active torsions:
REMARK  status: ('A' for Active; 'I' for Inactive)
REMARK    1  A    between atoms: CA_1  and  N_2
REMARK    2  A    between atoms: CA_1  and  C_7
REMARK    3  A    between atoms: CA_1  and  C_10
REMARK    4  A    between atoms: C_7  and  O_8
REMARK    5  A    between atoms: C_10  and  C_12
REMARK                            x       y       z     vdW  Elec       q    Type
REMARK                         _______ _______ _______ _____ _____    ______ ____
ROOT
ATOM      1  CA  UNL     1      36.490 -23.486 -12.129  0.00  0.00    +0.038 C 
ENDROOT
BRANCH   1   2
ATOM      2  N   UNL     1      37.633 -22.827 -11.497  0.00  0.00    +0.389 N 
ATOM      3  H1  UNL     1      37.325 -22.354 -10.647  0.00  0.00    -0.088 HD
ATOM      4  H2  UNL     1      38.029 -22.143 -12.141  0.00  0.00    -0.088 HD
ATOM      5  H3  UNL     1      38.341 -23.522 -11.262  0.00  0.00    -0.088 HD
ENDBRANCH   1   2
BRANCH   1   7
ATOM      6  OXT UNL     1      36.062 -24.258  -9.852  0.00  0.00    -0.253 OA
ATOM      7  C   UNL     1      35.787 -24.275 -11.043  0.00  0.00    +0.293 C 
BRANCH   7   8
ATOM      8  O   UNL     1      34.803 -25.047 -11.573  0.00  0.00    -0.482 OA
ATOM      9  H   UNL     1      34.845 -25.309 -12.472  0.00  0.00    +0.295 HD
ENDBRANCH   7   8
ENDBRANCH   1   7
BRANCH   1  10
ATOM     10  C   UNL     1      36.978 -24.406 -13.252  0.00  0.00    +0.021 C 
BRANCH  10  12
ATOM     11  O   UNL     1      39.428 -24.503 -13.158  0.00  0.00    -0.351 OA
ATOM     12  C   UNL     1      38.206 -25.183 -12.878  0.00  0.00    +0.143 C 
ATOM     13  C   UNL     1      39.141 -25.677 -13.930  0.00  0.00    +0.171 C 
ENDBRANCH  10  12
ENDBRANCH   1  10
TORSDOF 5
ENDMDL
MODEL 7
REMARK VINA RESULT:      -5.0      2.051      2.177
REMARK  Name = 447569
REMARK  5 active torsions:
REMARK  status: ('A' for Active; 'I' for Inactive)
REMARK    1  A    between atoms: CA_1  and  N_2
REMARK    2  A    between atoms: CA_1  and  C_7
REMARK    3  A    between atoms: CA_1  and  C_10
REMARK    4  A    between atoms: C_7  and  O_8
REMARK    5  A    between atoms: C_10  and  C_12
REMARK                            x       y       z     vdW  Elec       q    Type
REMARK                         _______ _______ _______ _____ _____    ______ ____
ROOT
ATOM      1  CA  UNL     1      36.980 -25.263 -14.447  0.00  0.00    +0.038 C 
ENDROOT
BRANCH   1   2
ATOM      2  N   UNL     1      35.559 -25.449 -14.150  0.00  0.00    +0.389 N 
ATOM      3  H1  UNL     1      35.062 -25.693 -15.008  0.00  0.00    -0.088 HD
ATOM      4  H2  UNL     1      35.176 -24.584 -13.770  0.00  0.00    -0.088 HD
ATOM      5  H3  UNL     1      35.449 -26.199 -13.469  0.00  0.00    -0.088 HD
ENDBRANCH   1   2
BRANCH   1   7
ATOM      6  OXT UNL     1      38.450 -27.209 -14.586  0.00  0.00    -0.253 OA
ATOM      7  C   UNL     1      37.486 -26.580 -15.000  0.00  0.00    +0.293 C 
BRANCH   7   8
ATOM      8  O   UNL     1      36.733 -26.976 -16.060  0.00  0.00    -0.482 OA
ATOM      9  H   UNL     1      35.993 -26.465 -16.326  0.00  0.00    +0.295 HD
ENDBRANCH   7   8
ENDBRANCH   1   7
BRANCH   1  10
ATOM     10  C   UNL     1      37.730 -24.876 -13.170  0.00  0.00    +0.021 C 
BRANCH  10  12
ATOM     11  O   UNL     1      38.329 -23.010 -11.693  0.00  0.00    -0.351 OA
ATOM     12  C   UNL     1      37.510 -23.445 -12.775  0.00  0.00    +0.143 C 
ATOM     13  C   UNL     1      36.920 -23.106 -11.448  0.00  0.00    +0.171 C 
ENDBRANCH  10  12
ENDBRANCH   1  10
TORSDOF 5
ENDMDL
MODEL 8
REMARK VINA RESULT:      -4.9      3.302      3.622
REMARK  Name = 447569
REMARK  5 active torsions:
REMARK  status: ('A' for Active; 'I' for Inactive)
REMARK    1  A    between atoms: CA_1  and  N_2
REMARK    2  A    between atoms: CA_1  and  C_7
REMARK    3  A    between atoms: CA_1  and  C_10
REMARK    4  A    between atoms: C_7  and  O_8
REMARK    5  A    between atoms: C_10  and  C_12
REMARK                            x       y       z     vdW  Elec       q    Type
REMARK                         _______ _______ _______ _____ _____    ______ ____
ROOT
ATOM      1  CA  UNL     1      36.551 -25.402 -14.806  0.00  0.00    +0.038 C 
ENDROOT
BRANCH   1   2
ATOM      2  N   UNL     1      36.175 -25.522 -13.397  0.00  0.00    +0.389 N 
ATOM      3  H1  UNL     1      35.919 -24.604 -13.035  0.00  0.00    -0.088 HD
ATOM      4  H2  UNL     1      36.964 -25.890 -12.866  0.00  0.00    -0.088 HD
ATOM      5  H3  UNL     1      35.382 -26.156 -13.309  0.00  0.00    -0.088 HD
ENDBRANCH   1   2
BRANCH   1   7
ATOM      6  OXT UNL     1      38.214 -27.178 -14.589  0.00  0.00    -0.253 OA
ATOM      7  C   UNL     1      37.262 -26.688 -15.179  0.00  0.00    +0.293 C 
BRANCH   7   8
ATOM      8  O   UNL     1      36.712 -27.232 -16.296  0.00  0.00    -0.482 OA
ATOM      9  H   UNL     1      37.192 -27.866 -16.793  0.00  0.00    +0.295 HD
ENDBRANCH   7   8
ENDBRANCH   1   7
BRANCH   1  10
ATOM     10  C   UNL     1      37.468 -24.190 -14.998  0.00  0.00    +0.021 C 
BRANCH  10  12
ATOM     11  O   UNL     1      35.993 -23.063 -16.602  0.00  0.00    -0.351 OA
ATOM     12  C   UNL     1      36.719 -22.948 -15.381  0.00  0.00    +0.143 C 
ATOM     13  C   UNL     1      37.112 -22.167 -16.589  0.00  0.00    +0.171 C 
ENDBRANCH  10  12
ENDBRANCH   1  10
TORSDOF 5
ENDMDL
MODEL 9
REMARK VINA RESULT:      -4.9     10.328     11.575
REMARK  Name = 447569
REMARK  5 active torsions:
REMARK  status: ('A' for Active; 'I' for Inactive)
REMARK    1  A    between atoms: CA_1  and  N_2
REMARK    2  A    between atoms: CA_1  and  C_7
REMARK    3  A    between atoms: CA_1  and  C_10
REMARK    4  A    between atoms: C_7  and  O_8
REMARK    5  A    between atoms: C_10  and  C_12
REMARK                            x       y       z     vdW  Elec       q    Type
REMARK                         _______ _______ _______ _____ _____    ______ ____
ROOT
ATOM      1  CA  UNL     1      27.813 -23.094 -15.934  0.00  0.00    +0.038 C 
ENDROOT
BRANCH   1   2
ATOM      2  N   UNL     1      28.062 -23.954 -17.091  0.00  0.00    +0.389 N 
ATOM      3  H1  UNL     1      28.608 -23.441 -17.784  0.00  0.00    -0.088 HD
ATOM      4  H2  UNL     1      27.172 -24.237 -17.501  0.00  0.00    -0.088 HD
ATOM      5  H3  UNL     1      28.579 -24.781 -16.795  0.00  0.00    -0.088 HD
ENDBRANCH   1   2
BRANCH   1   7
ATOM      6  OXT UNL     1      26.938 -21.267 -17.298  0.00  0.00    -0.253 OA
ATOM      7  C   UNL     1      26.801 -22.054 -16.373  0.00  0.00    +0.293 C 
BRANCH   7   8
ATOM      8  O   UNL     1      25.704 -22.086 -15.573  0.00  0.00    -0.482 OA
ATOM      9  H   UNL     1      25.638 -22.728 -14.892  0.00  0.00    +0.295 HD
ENDBRANCH   7   8
ENDBRANCH   1   7
BRANCH   1  10
ATOM     10  C   UNL     1      29.121 -22.435 -15.485  0.00  0.00    +0.021 C 
BRANCH  10  12
ATOM     11  O   UNL     1      30.720 -24.260 -15.852  0.00  0.00    -0.351 OA
ATOM     12  C   UNL     1      30.318 -22.947 -16.232  0.00  0.00    +0.143 C 
ATOM     13  C   UNL     1      31.609 -23.184 -15.526  0.00  0.00    +0.171 C 
ENDBRANCH  10  12
ENDBRANCH   1  10
TORSDOF 5
ENDMDL
