MODEL 1
REMARK VINA RESULT:     -10.3      0.000      0.000
REMARK  Name = 11651760
REMARK  3 active torsions:
REMARK  status: ('A' for Active; 'I' for Inactive)
REMARK    1  A    between atoms: C_1  and  C_6
REMARK    2  A    between atoms: C_1  and  C_13
REMARK    3  A    between atoms: C_13  and  C_15
REMARK                            x       y       z     vdW  Elec       q    Type
REMARK                         _______ _______ _______ _____ _____    ______ ____
ROOT
ATOM      1  C   UNL     1      35.445 -18.620 -23.523  0.00  0.00    +0.047 C 
ENDROOT
BRANCH   1   6
ATOM      2  O   UNL     1      33.237 -15.649 -26.632  0.00  0.00    -0.209 OA
ATOM      3  N   UNL     1      34.829 -16.293 -23.046  0.00  0.00    -0.278 N 
ATOM      4  N   UNL     1      33.750 -14.818 -24.544  0.00  0.00    -0.302 NA
ATOM      5  N   UNL     1      34.348 -14.146 -22.370  0.00  0.00    -0.320 N 
ATOM      6  C   UNL     1      34.838 -17.325 -23.952  0.00  0.00    +0.041 C 
ATOM      7  C   UNL     1      34.309 -17.144 -25.171  0.00  0.00    +0.117 C 
ATOM      8  C   UNL     1      34.284 -15.073 -23.377  0.00  0.00    +0.247 C 
ATOM      9  C   UNL     1      33.720 -15.810 -25.513  0.00  0.00    +0.209 C 
ATOM     10  H   UNL     1      35.217 -16.426 -22.152  0.00  0.00    +0.156 HD
ATOM     11  H   UNL     1      34.760 -14.383 -21.507  0.00  0.00    +0.146 HD
ATOM     12  H   UNL     1      33.984 -13.242 -22.509  0.00  0.00    +0.146 HD
ENDBRANCH   1   6
BRANCH   1  13
ATOM     13  C   UNL     1      35.880 -18.625 -22.048  0.00  0.00    +0.032 C 
BRANCH  13  15
ATOM     14  N   UNL     1      35.315 -22.213 -18.603  0.00  0.00    -0.312 N 
ATOM     15  C   UNL     1      35.078 -19.537 -21.179  0.00  0.00    -0.021 C 
ATOM     16  C   UNL     1      34.948 -21.258 -19.524  0.00  0.00    +0.048 C 
ATOM     17  C   UNL     1      35.737 -20.423 -20.322  0.00  0.00    +0.010 C 
ATOM     18  C   UNL     1      33.552 -21.235 -19.558  0.00  0.00    +0.015 C 
ATOM     19  C   UNL     1      33.687 -19.492 -21.235  0.00  0.00    -0.004 C 
ATOM     20  C   UNL     1      32.910 -20.335 -20.431  0.00  0.00    +0.001 C 
ATOM     21  C   UNL     1      33.095 -22.208 -18.626  0.00  0.00    +0.017 C 
ATOM     22  C   UNL     1      34.201 -22.792 -18.054  0.00  0.00    +0.062 C 
ATOM     23  H   UNL     1      36.243 -22.446 -18.370  0.00  0.00    +0.152 HD
ENDBRANCH  13  15
ENDBRANCH   1  13
TORSDOF 3
ENDMDL
MODEL 2
REMARK VINA RESULT:     -10.1      0.822      1.497
REMARK  Name = 11651760
REMARK  3 active torsions:
REMARK  status: ('A' for Active; 'I' for Inactive)
REMARK    1  A    between atoms: C_1  and  C_6
REMARK    2  A    between atoms: C_1  and  C_13
REMARK    3  A    between atoms: C_13  and  C_15
REMARK                            x       y       z     vdW  Elec       q    Type
REMARK                         _______ _______ _______ _____ _____    ______ ____
ROOT
ATOM      1  C   UNL     1      35.344 -18.609 -23.338  0.00  0.00    +0.047 C 
ENDROOT
BRANCH   1   6
ATOM      2  O   UNL     1      33.351 -15.679 -26.627  0.00  0.00    -0.209 OA
ATOM      3  N   UNL     1      34.737 -16.262 -22.947  0.00  0.00    -0.278 N 
ATOM      4  N   UNL     1      33.763 -14.808 -24.534  0.00  0.00    -0.302 NA
ATOM      5  N   UNL     1      34.253 -14.094 -22.346  0.00  0.00    -0.320 N 
ATOM      6  C   UNL     1      34.780 -17.315 -23.828  0.00  0.00    +0.041 C 
ATOM      7  C   UNL     1      34.320 -17.155 -25.078  0.00  0.00    +0.117 C 
ATOM      8  C   UNL     1      34.229 -15.043 -23.334  0.00  0.00    +0.247 C 
ATOM      9  C   UNL     1      33.771 -15.821 -25.481  0.00  0.00    +0.209 C 
ATOM     10  H   UNL     1      35.075 -16.381 -22.031  0.00  0.00    +0.156 HD
ATOM     11  H   UNL     1      34.614 -14.317 -21.457  0.00  0.00    +0.146 HD
ATOM     12  H   UNL     1      33.911 -13.189 -22.525  0.00  0.00    +0.146 HD
ENDBRANCH   1   6
BRANCH   1  13
ATOM     13  C   UNL     1      36.069 -18.479 -21.988  0.00  0.00    +0.032 C 
BRANCH  13  15
ATOM     14  N   UNL     1      32.905 -21.421 -19.460  0.00  0.00    -0.312 N 
ATOM     15  C   UNL     1      35.727 -19.552 -21.008  0.00  0.00    -0.021 C 
ATOM     16  C   UNL     1      34.110 -20.895 -19.867  0.00  0.00    +0.048 C 
ATOM     17  C   UNL     1      34.386 -19.882 -20.793  0.00  0.00    +0.010 C 
ATOM     18  C   UNL     1      35.111 -21.571 -19.168  0.00  0.00    +0.015 C 
ATOM     19  C   UNL     1      36.748 -20.209 -20.324  0.00  0.00    -0.004 C 
ATOM     20  C   UNL     1      36.456 -21.220 -19.401  0.00  0.00    +0.001 C 
ATOM     21  C   UNL     1      34.465 -22.520 -18.327  0.00  0.00    +0.017 C 
ATOM     22  C   UNL     1      33.110 -22.404 -18.529  0.00  0.00    +0.062 C 
ATOM     23  H   UNL     1      32.022 -21.133 -19.790  0.00  0.00    +0.152 HD
ENDBRANCH  13  15
ENDBRANCH   1  13
TORSDOF 3
ENDMDL
MODEL 3
REMARK VINA RESULT:      -9.9      5.106      9.476
REMARK  Name = 11651760
REMARK  3 active torsions:
REMARK  status: ('A' for Active; 'I' for Inactive)
REMARK    1  A    between atoms: C_1  and  C_6
REMARK    2  A    between atoms: C_1  and  C_13
REMARK    3  A    between atoms: C_13  and  C_15
REMARK                            x       y       z     vdW  Elec       q    Type
REMARK                         _______ _______ _______ _____ _____    ______ ____
ROOT
ATOM      1  C   UNL     1      32.159 -22.891 -17.204  0.00  0.00    +0.047 C 
ENDROOT
BRANCH   1   6
ATOM      2  O   UNL     1      33.906 -24.249 -12.906  0.00  0.00    -0.209 OA
ATOM      3  N   UNL     1      30.951 -24.262 -15.565  0.00  0.00    -0.278 N 
ATOM      4  N   UNL     1      31.779 -24.941 -13.459  0.00  0.00    -0.302 NA
ATOM      5  N   UNL     1      29.628 -25.550 -14.192  0.00  0.00    -0.320 N 
ATOM      6  C   UNL     1      32.101 -23.581 -15.881  0.00  0.00    +0.041 C 
ATOM      7  C   UNL     1      33.119 -23.555 -15.008  0.00  0.00    +0.117 C 
ATOM      8  C   UNL     1      30.832 -24.919 -14.362  0.00  0.00    +0.247 C 
ATOM      9  C   UNL     1      32.971 -24.276 -13.703  0.00  0.00    +0.209 C 
ATOM     10  H   UNL     1      30.206 -24.281 -16.207  0.00  0.00    +0.156 HD
ATOM     11  H   UNL     1      28.944 -25.507 -14.901  0.00  0.00    +0.146 HD
ATOM     12  H   UNL     1      29.446 -26.048 -13.363  0.00  0.00    +0.146 HD
ENDBRANCH   1   6
BRANCH   1  13
ATOM     13  C   UNL     1      33.496 -23.098 -17.936  0.00  0.00    +0.032 C 
BRANCH  13  15
ATOM     14  N   UNL     1      36.715 -20.045 -20.256  0.00  0.00    -0.312 N 
ATOM     15  C   UNL     1      33.860 -21.987 -18.865  0.00  0.00    -0.021 C 
ATOM     16  C   UNL     1      35.502 -20.594 -19.906  0.00  0.00    +0.048 C 
ATOM     17  C   UNL     1      35.205 -21.640 -19.024  0.00  0.00    +0.010 C 
ATOM     18  C   UNL     1      34.518 -19.903 -20.616  0.00  0.00    +0.015 C 
ATOM     19  C   UNL     1      32.857 -21.315 -19.560  0.00  0.00    -0.004 C 
ATOM     20  C   UNL     1      33.169 -20.271 -20.438  0.00  0.00    +0.001 C 
ATOM     21  C   UNL     1      35.183 -18.921 -21.402  0.00  0.00    +0.017 C 
ATOM     22  C   UNL     1      36.532 -19.033 -21.160  0.00  0.00    +0.062 C 
ATOM     23  H   UNL     1      37.589 -20.337 -19.907  0.00  0.00    +0.152 HD
ENDBRANCH  13  15
ENDBRANCH   1  13
TORSDOF 3
ENDMDL
MODEL 4
REMARK VINA RESULT:      -9.9      4.761      8.749
REMARK  Name = 11651760
REMARK  3 active torsions:
REMARK  status: ('A' for Active; 'I' for Inactive)
REMARK    1  A    between atoms: C_1  and  C_6
REMARK    2  A    between atoms: C_1  and  C_13
REMARK    3  A    between atoms: C_13  and  C_15
REMARK                            x       y       z     vdW  Elec       q    Type
REMARK                         _______ _______ _______ _____ _____    ______ ____
ROOT
ATOM      1  C   UNL     1      33.789 -23.102 -17.089  0.00  0.00    +0.047 C 
ENDROOT
BRANCH   1   6
ATOM      2  O   UNL     1      31.302 -23.473 -12.959  0.00  0.00    -0.209 OA
ATOM      3  N   UNL     1      31.349 -22.912 -16.895  0.00  0.00    -0.278 N 
ATOM      4  N   UNL     1      30.108 -23.088 -14.892  0.00  0.00    -0.302 NA
ATOM      5  N   UNL     1      29.059 -22.695 -16.961  0.00  0.00    -0.320 N 
ATOM      6  C   UNL     1      32.548 -23.112 -16.256  0.00  0.00    +0.041 C 
ATOM      7  C   UNL     1      32.570 -23.304 -14.929  0.00  0.00    +0.117 C 
ATOM      8  C   UNL     1      30.169 -22.908 -16.186  0.00  0.00    +0.247 C 
ATOM      9  C   UNL     1      31.276 -23.297 -14.175  0.00  0.00    +0.209 C 
ATOM     10  H   UNL     1      31.334 -22.771 -17.868  0.00  0.00    +0.156 HD
ATOM     11  H   UNL     1      29.154 -22.564 -17.933  0.00  0.00    +0.146 HD
ATOM     12  H   UNL     1      28.166 -22.674 -16.547  0.00  0.00    +0.146 HD
ENDBRANCH   1   6
BRANCH   1  13
ATOM     13  C   UNL     1      33.504 -22.982 -18.595  0.00  0.00    +0.032 C 
BRANCH  13  15
ATOM     14  N   UNL     1      33.950 -18.820 -21.342  0.00  0.00    -0.312 N 
ATOM     15  C   UNL     1      34.275 -21.899 -19.276  0.00  0.00    -0.021 C 
ATOM     16  C   UNL     1      34.348 -19.907 -20.597  0.00  0.00    +0.048 C 
ATOM     17  C   UNL     1      33.587 -20.904 -19.976  0.00  0.00    +0.010 C 
ATOM     18  C   UNL     1      35.743 -19.877 -20.540  0.00  0.00    +0.015 C 
ATOM     19  C   UNL     1      35.667 -21.896 -19.203  0.00  0.00    -0.004 C 
ATOM     20  C   UNL     1      36.414 -20.892 -19.830  0.00  0.00    +0.001 C 
ATOM     21  C   UNL     1      36.166 -18.736 -21.277  0.00  0.00    +0.017 C 
ATOM     22  C   UNL     1      35.042 -18.106 -21.756  0.00  0.00    +0.062 C 
ATOM     23  H   UNL     1      33.014 -18.589 -21.547  0.00  0.00    +0.152 HD
ENDBRANCH  13  15
ENDBRANCH   1  13
TORSDOF 3
ENDMDL
MODEL 5
REMARK VINA RESULT:      -9.8      2.580      7.251
REMARK  Name = 11651760
REMARK  3 active torsions:
REMARK  status: ('A' for Active; 'I' for Inactive)
REMARK    1  A    between atoms: C_1  and  C_6
REMARK    2  A    between atoms: C_1  and  C_13
REMARK    3  A    between atoms: C_13  and  C_15
REMARK                            x       y       z     vdW  Elec       q    Type
REMARK                         _______ _______ _______ _____ _____    ______ ____
ROOT
ATOM      1  C   UNL     1      36.277 -18.589 -21.581  0.00  0.00    +0.047 C 
ENDROOT
BRANCH   1   6
ATOM      2  O   UNL     1      32.658 -21.457 -20.150  0.00  0.00    -0.209 OA
ATOM      3  N   UNL     1      36.449 -20.303 -19.832  0.00  0.00    -0.278 N 
ATOM      4  N   UNL     1      34.699 -21.717 -19.112  0.00  0.00    -0.302 NA
ATOM      5  N   UNL     1      36.851 -21.841 -18.168  0.00  0.00    -0.320 N 
ATOM      6  C   UNL     1      35.656 -19.669 -20.757  0.00  0.00    +0.041 C 
ATOM      7  C   UNL     1      34.372 -20.033 -20.892  0.00  0.00    +0.117 C 
ATOM      8  C   UNL     1      35.939 -21.306 -19.040  0.00  0.00    +0.247 C 
ATOM      9  C   UNL     1      33.835 -21.127 -20.022  0.00  0.00    +0.209 C 
ATOM     10  H   UNL     1      37.390 -20.035 -19.733  0.00  0.00    +0.156 HD
ATOM     11  H   UNL     1      37.774 -21.499 -18.150  0.00  0.00    +0.146 HD
ATOM     12  H   UNL     1      36.582 -22.566 -17.559  0.00  0.00    +0.146 HD
ENDBRANCH   1   6
BRANCH   1  13
ATOM     13  C   UNL     1      35.736 -18.541 -23.020  0.00  0.00    +0.032 C 
BRANCH  13  15
ATOM     14  N   UNL     1      33.334 -15.424 -26.116  0.00  0.00    -0.312 N 
ATOM     15  C   UNL     1      35.075 -17.251 -23.379  0.00  0.00    -0.021 C 
ATOM     16  C   UNL     1      33.933 -15.862 -24.956  0.00  0.00    +0.048 C 
ATOM     17  C   UNL     1      34.545 -17.086 -24.662  0.00  0.00    +0.010 C 
ATOM     18  C   UNL     1      33.838 -14.824 -24.027  0.00  0.00    +0.015 C 
ATOM     19  C   UNL     1      34.996 -16.232 -22.432  0.00  0.00    -0.004 C 
ATOM     20  C   UNL     1      34.381 -15.013 -22.741  0.00  0.00    +0.001 C 
ATOM     21  C   UNL     1      33.162 -13.750 -24.670  0.00  0.00    +0.017 C 
ATOM     22  C   UNL     1      32.865 -14.148 -25.952  0.00  0.00    +0.062 C 
ATOM     23  H   UNL     1      33.254 -15.952 -26.944  0.00  0.00    +0.152 HD
ENDBRANCH  13  15
ENDBRANCH   1  13
TORSDOF 3
ENDMDL
MODEL 6
REMARK VINA RESULT:      -9.7      2.056      2.773
REMARK  Name = 11651760
REMARK  3 active torsions:
REMARK  status: ('A' for Active; 'I' for Inactive)
REMARK    1  A    between atoms: C_1  and  C_6
REMARK    2  A    between atoms: C_1  and  C_13
REMARK    3  A    between atoms: C_13  and  C_15
REMARK                            x       y       z     vdW  Elec       q    Type
REMARK                         _______ _______ _______ _____ _____    ______ ____
ROOT
ATOM      1  C   UNL     1      35.116 -17.310 -21.614  0.00  0.00    +0.047 C 
ENDROOT
BRANCH   1   6
ATOM      2  O   UNL     1      32.403 -13.418 -20.685  0.00  0.00    -0.209 OA
ATOM      3  N   UNL     1      34.089 -15.873 -23.319  0.00  0.00    -0.278 N 
ATOM      4  N   UNL     1      32.759 -13.966 -22.895  0.00  0.00    -0.302 NA
ATOM      5  N   UNL     1      33.231 -14.677 -25.088  0.00  0.00    -0.320 N 
ATOM      6  C   UNL     1      34.283 -16.127 -21.983  0.00  0.00    +0.041 C 
ATOM      7  C   UNL     1      33.729 -15.319 -21.067  0.00  0.00    +0.117 C 
ATOM      8  C   UNL     1      33.331 -14.799 -23.727  0.00  0.00    +0.247 C 
ATOM      9  C   UNL     1      32.908 -14.155 -21.529  0.00  0.00    +0.209 C 
ATOM     10  H   UNL     1      34.495 -16.466 -23.990  0.00  0.00    +0.156 HD
ATOM     11  H   UNL     1      33.679 -15.328 -25.675  0.00  0.00    +0.146 HD
ATOM     12  H   UNL     1      32.710 -13.939 -25.479  0.00  0.00    +0.146 HD
ENDBRANCH   1   6
BRANCH   1  13
ATOM     13  C   UNL     1      34.484 -18.648 -22.030  0.00  0.00    +0.032 C 
BRANCH  13  15
ATOM     14  N   UNL     1      32.659 -22.019 -18.809  0.00  0.00    -0.312 N 
ATOM     15  C   UNL     1      34.604 -19.724 -21.002  0.00  0.00    -0.021 C 
ATOM     16  C   UNL     1      33.603 -21.295 -19.502  0.00  0.00    +0.048 C 
ATOM     17  C   UNL     1      33.445 -20.289 -20.461  0.00  0.00    +0.010 C 
ATOM     18  C   UNL     1      34.856 -21.742 -19.077  0.00  0.00    +0.015 C 
ATOM     19  C   UNL     1      35.868 -20.150 -20.597  0.00  0.00    -0.004 C 
ATOM     20  C   UNL     1      36.010 -21.157 -19.636  0.00  0.00    +0.001 C 
ATOM     21  C   UNL     1      34.630 -22.758 -18.107  0.00  0.00    +0.017 C 
ATOM     22  C   UNL     1      33.270 -22.906 -17.965  0.00  0.00    +0.062 C 
ATOM     23  H   UNL     1      31.684 -21.914 -18.908  0.00  0.00    +0.152 HD
ENDBRANCH  13  15
ENDBRANCH   1  13
TORSDOF 3
ENDMDL
MODEL 7
REMARK VINA RESULT:      -9.7      4.902      9.236
REMARK  Name = 11651760
REMARK  3 active torsions:
REMARK  status: ('A' for Active; 'I' for Inactive)
REMARK    1  A    between atoms: C_1  and  C_6
REMARK    2  A    between atoms: C_1  and  C_13
REMARK    3  A    between atoms: C_13  and  C_15
REMARK                            x       y       z     vdW  Elec       q    Type
REMARK                         _______ _______ _______ _____ _____    ______ ____
ROOT
ATOM      1  C   UNL     1      32.486 -23.056 -17.314  0.00  0.00    +0.047 C 
ENDROOT
BRANCH   1   6
ATOM      2  O   UNL     1      30.864 -23.540 -12.785  0.00  0.00    -0.209 OA
ATOM      3  N   UNL     1      33.782 -23.988 -15.448  0.00  0.00    -0.278 N 
ATOM      4  N   UNL     1      33.016 -24.236 -13.227  0.00  0.00    -0.302 NA
ATOM      5  N   UNL     1      35.184 -24.893 -13.864  0.00  0.00    -0.320 N 
ATOM      6  C   UNL     1      32.596 -23.442 -15.875  0.00  0.00    +0.041 C 
ATOM      7  C   UNL     1      31.589 -23.277 -15.004  0.00  0.00    +0.117 C 
ATOM      8  C   UNL     1      33.949 -24.365 -14.136  0.00  0.00    +0.247 C 
ATOM      9  C   UNL     1      31.790 -23.694 -13.579  0.00  0.00    +0.209 C 
ATOM     10  H   UNL     1      34.520 -24.108 -16.088  0.00  0.00    +0.156 HD
ATOM     11  H   UNL     1      35.855 -24.970 -14.581  0.00  0.00    +0.146 HD
ATOM     12  H   UNL     1      35.401 -25.194 -12.952  0.00  0.00    +0.146 HD
ENDBRANCH   1   6
BRANCH   1  13
ATOM     13  C   UNL     1      33.835 -23.086 -18.052  0.00  0.00    +0.032 C 
BRANCH  13  15
ATOM     14  N   UNL     1      36.626 -19.719 -20.488  0.00  0.00    -0.312 N 
ATOM     15  C   UNL     1      34.044 -21.938 -18.984  0.00  0.00    -0.021 C 
ATOM     16  C   UNL     1      35.490 -20.385 -20.087  0.00  0.00    +0.048 C 
ATOM     17  C   UNL     1      35.339 -21.461 -19.204  0.00  0.00    +0.010 C 
ATOM     18  C   UNL     1      34.411 -19.787 -20.739  0.00  0.00    +0.015 C 
ATOM     19  C   UNL     1      32.947 -21.360 -19.620  0.00  0.00    -0.004 C 
ATOM     20  C   UNL     1      33.114 -20.285 -20.500  0.00  0.00    +0.001 C 
ATOM     21  C   UNL     1      34.938 -18.740 -21.545  0.00  0.00    +0.017 C 
ATOM     22  C   UNL     1      36.302 -18.723 -21.371  0.00  0.00    +0.062 C 
ATOM     23  H   UNL     1      37.540 -19.928 -20.186  0.00  0.00    +0.152 HD
ENDBRANCH  13  15
ENDBRANCH   1  13
TORSDOF 3
ENDMDL
MODEL 8
REMARK VINA RESULT:      -9.7      4.490      8.803
REMARK  Name = 11651760
REMARK  3 active torsions:
REMARK  status: ('A' for Active; 'I' for Inactive)
REMARK    1  A    between atoms: C_1  and  C_6
REMARK    2  A    between atoms: C_1  and  C_13
REMARK    3  A    between atoms: C_13  and  C_15
REMARK                            x       y       z     vdW  Elec       q    Type
REMARK                         _______ _______ _______ _____ _____    ______ ____
ROOT
ATOM      1  C   UNL     1      33.452 -23.158 -16.544  0.00  0.00    +0.047 C 
ENDROOT
BRANCH   1   6
ATOM      2  O   UNL     1      28.706 -22.352 -16.983  0.00  0.00    -0.209 OA
ATOM      3  N   UNL     1      31.733 -24.010 -15.011  0.00  0.00    -0.278 N 
ATOM      4  N   UNL     1      29.409 -23.632 -15.201  0.00  0.00    -0.302 NA
ATOM      5  N   UNL     1      30.310 -24.917 -13.447  0.00  0.00    -0.320 N 
ATOM      6  C   UNL     1      32.020 -23.278 -16.138  0.00  0.00    +0.041 C 
ATOM      7  C   UNL     1      31.023 -22.704 -16.828  0.00  0.00    +0.117 C 
ATOM      8  C   UNL     1      30.434 -24.160 -14.583  0.00  0.00    +0.247 C 
ATOM      9  C   UNL     1      29.615 -22.879 -16.346  0.00  0.00    +0.209 C 
ATOM     10  H   UNL     1      32.465 -24.430 -14.506  0.00  0.00    +0.156 HD
ATOM     11  H   UNL     1      31.111 -25.294 -13.016  0.00  0.00    +0.146 HD
ATOM     12  H   UNL     1      29.420 -25.083 -13.062  0.00  0.00    +0.146 HD
ENDBRANCH   1   6
BRANCH   1  13
ATOM     13  C   UNL     1      33.689 -23.486 -18.027  0.00  0.00    +0.032 C 
BRANCH  13  15
ATOM     14  N   UNL     1      33.298 -19.535 -21.077  0.00  0.00    -0.312 N 
ATOM     15  C   UNL     1      34.234 -22.346 -18.823  0.00  0.00    -0.021 C 
ATOM     16  C   UNL     1      33.908 -20.479 -20.281  0.00  0.00    +0.048 C 
ATOM     17  C   UNL     1      33.356 -21.537 -19.551  0.00  0.00    +0.010 C 
ATOM     18  C   UNL     1      35.279 -20.211 -20.305  0.00  0.00    +0.015 C 
ATOM     19  C   UNL     1      35.606 -22.104 -18.828  0.00  0.00    -0.004 C 
ATOM     20  C   UNL     1      36.144 -21.041 -19.563  0.00  0.00    +0.001 C 
ATOM     21  C   UNL     1      35.469 -19.076 -21.141  0.00  0.00    +0.017 C 
ATOM     22  C   UNL     1      34.234 -18.682 -21.600  0.00  0.00    +0.062 C 
ATOM     23  H   UNL     1      32.329 -19.479 -21.245  0.00  0.00    +0.152 HD
ENDBRANCH  13  15
ENDBRANCH   1  13
TORSDOF 3
ENDMDL
MODEL 9
REMARK VINA RESULT:      -9.5      2.960      7.422
REMARK  Name = 11651760
REMARK  3 active torsions:
REMARK  status: ('A' for Active; 'I' for Inactive)
REMARK    1  A    between atoms: C_1  and  C_6
REMARK    2  A    between atoms: C_1  and  C_13
REMARK    3  A    between atoms: C_13  and  C_15
REMARK                            x       y       z     vdW  Elec       q    Type
REMARK                         _______ _______ _______ _____ _____    ______ ____
ROOT
ATOM      1  C   UNL     1      36.235 -18.916 -21.508  0.00  0.00    +0.047 C 
ENDROOT
BRANCH   1   6
ATOM      2  O   UNL     1      36.961 -22.173 -18.010  0.00  0.00    -0.209 OA
ATOM      3  N   UNL     1      34.500 -20.371 -20.559  0.00  0.00    -0.278 N 
ATOM      4  N   UNL     1      34.825 -21.970 -18.850  0.00  0.00    -0.302 NA
ATOM      5  N   UNL     1      32.713 -21.623 -19.827  0.00  0.00    -0.320 N 
ATOM      6  C   UNL     1      35.819 -19.987 -20.553  0.00  0.00    +0.041 C 
ATOM      7  C   UNL     1      36.677 -20.574 -19.706  0.00  0.00    +0.117 C 
ATOM      8  C   UNL     1      34.051 -21.352 -19.704  0.00  0.00    +0.247 C 
ATOM      9  C   UNL     1      36.170 -21.639 -18.784  0.00  0.00    +0.209 C 
ATOM     10  H   UNL     1      33.871 -19.941 -21.181  0.00  0.00    +0.156 HD
ATOM     11  H   UNL     1      32.169 -21.132 -20.485  0.00  0.00    +0.146 HD
ATOM     12  H   UNL     1      32.296 -22.310 -19.259  0.00  0.00    +0.146 HD
ENDBRANCH   1   6
BRANCH   1  13
ATOM     13  C   UNL     1      35.414 -17.624 -21.361  0.00  0.00    +0.032 C 
BRANCH  13  15
ATOM     14  N   UNL     1      33.134 -14.195 -24.209  0.00  0.00    -0.312 N 
ATOM     15  C   UNL     1      34.901 -17.079 -22.653  0.00  0.00    -0.021 C 
ATOM     16  C   UNL     1      33.793 -15.364 -23.898  0.00  0.00    +0.048 C 
ATOM     17  C   UNL     1      34.257 -15.838 -22.666  0.00  0.00    +0.010 C 
ATOM     18  C   UNL     1      33.950 -16.076 -25.089  0.00  0.00    +0.015 C 
ATOM     19  C   UNL     1      35.071 -17.812 -23.825  0.00  0.00    -0.004 C 
ATOM     20  C   UNL     1      34.602 -17.325 -25.050  0.00  0.00    +0.001 C 
ATOM     21  C   UNL     1      33.363 -15.295 -26.123  0.00  0.00    +0.017 C 
ATOM     22  C   UNL     1      32.871 -14.145 -25.552  0.00  0.00    +0.062 C 
ATOM     23  H   UNL     1      32.888 -13.496 -23.560  0.00  0.00    +0.152 HD
ENDBRANCH  13  15
ENDBRANCH   1  13
TORSDOF 3
ENDMDL
