MODEL 1
REMARK VINA RESULT:     -10.9      0.000      0.000
REMARK  Name = 16122632
REMARK  4 active torsions:
REMARK  status: ('A' for Active; 'I' for Inactive)
REMARK    1  A    between atoms: C_1  and  C_18
REMARK    2  A    between atoms: C_2  and  C_11
REMARK    3  A    between atoms: C_18  and  C_19
REMARK    4  A    between atoms: C_18  and  N_25
REMARK                            x       y       z     vdW  Elec       q    Type
REMARK                         _______ _______ _______ _____ _____    ______ ____
ROOT
ATOM      1  C   UNL     1      34.782 -17.024 -22.508  0.00  0.00    -0.039 C 
ATOM      2  C   UNL     1      33.581 -14.506 -22.446  0.00  0.00    +0.015 C 
ATOM      3  C   UNL     1      34.237 -16.482 -23.672  0.00  0.00    -0.006 C 
ATOM      4  C   UNL     1      34.727 -16.307 -21.313  0.00  0.00    -0.006 C 
ATOM      5  C   UNL     1      33.637 -15.224 -23.641  0.00  0.00    +0.001 C 
ATOM      6  C   UNL     1      34.126 -15.048 -21.281  0.00  0.00    +0.001 C 
ENDROOT
BRANCH   2  11
ATOM      7  N   UNL     1      34.291 -11.994 -24.195  0.00  0.00    -0.271 NA
ATOM      8  N   UNL     1      31.951 -13.001 -21.543  0.00  0.00    -0.247 NA
ATOM      9  N   UNL     1      33.239 -10.036 -24.034  0.00  0.00    -0.307 N 
ATOM     10  N   UNL     1      31.688 -10.691 -22.282  0.00  0.00    -0.232 NA
ATOM     11  C   UNL     1      32.963 -13.211 -22.413  0.00  0.00    +0.077 C 
ATOM     12  C   UNL     1      33.344 -12.161 -23.225  0.00  0.00    +0.150 C 
ATOM     13  C   UNL     1      32.704 -10.932 -23.144  0.00  0.00    +0.123 C 
ATOM     14  C   UNL     1      34.189 -10.706 -24.650  0.00  0.00    +0.163 C 
ATOM     15  C   UNL     1      31.383 -11.771 -21.530  0.00  0.00    +0.251 C 
ATOM     16  H   UNL     1      34.929 -12.676 -24.509  0.00  0.00    +0.125 HD
ATOM     17  H   UNL     1      32.972  -9.100 -24.181  0.00  0.00    +0.149 HD
ENDBRANCH   2  11
BRANCH   1  18
ATOM     18  C   UNL     1      35.423 -18.369 -22.540  0.00  0.00    -0.019 C 
BRANCH  18  19
ATOM     19  C   UNL     1      34.826 -19.343 -21.518  0.00  0.00    -0.039 C 
ATOM     20  C   UNL     1      35.666 -20.142 -20.742  0.00  0.00    -0.006 C 
ATOM     21  C   UNL     1      33.443 -19.431 -21.362  0.00  0.00    -0.006 C 
ATOM     22  C   UNL     1      35.123 -21.029 -19.813  0.00  0.00    -0.000 C 
ATOM     23  C   UNL     1      32.900 -20.318 -20.433  0.00  0.00    -0.000 C 
ATOM     24  C   UNL     1      33.740 -21.116 -19.658  0.00  0.00    -0.000 C 
ENDBRANCH  18  19
BRANCH  18  25
ATOM     25  N   UNL     1      36.901 -18.301 -22.425  0.00  0.00    +0.387 N 
ATOM     26  H   UNL     1      37.168 -18.338 -21.441  0.00  0.00    -0.088 HD
ATOM     27  H   UNL     1      37.235 -17.429 -22.835  0.00  0.00    -0.088 HD
ATOM     28  H   UNL     1      37.317 -19.091 -22.919  0.00  0.00    -0.088 HD
ENDBRANCH  18  25
ENDBRANCH   1  18
TORSDOF 4
ENDMDL
MODEL 2
REMARK VINA RESULT:     -10.6      3.740      9.062
REMARK  Name = 16122632
REMARK  4 active torsions:
REMARK  status: ('A' for Active; 'I' for Inactive)
REMARK    1  A    between atoms: C_1  and  C_18
REMARK    2  A    between atoms: C_2  and  C_11
REMARK    3  A    between atoms: C_18  and  C_19
REMARK    4  A    between atoms: C_18  and  N_25
REMARK                            x       y       z     vdW  Elec       q    Type
REMARK                         _______ _______ _______ _____ _____    ______ ____
ROOT
ATOM      1  C   UNL     1      35.152 -19.298 -21.735  0.00  0.00    -0.039 C 
ATOM      2  C   UNL     1      34.815 -21.085 -19.620  0.00  0.00    +0.015 C 
ATOM      3  C   UNL     1      36.266 -19.812 -21.072  0.00  0.00    -0.006 C 
ATOM      4  C   UNL     1      33.869 -19.677 -21.341  0.00  0.00    -0.006 C 
ATOM      5  C   UNL     1      36.098 -20.705 -20.015  0.00  0.00    +0.001 C 
ATOM      6  C   UNL     1      33.700 -20.571 -20.283  0.00  0.00    +0.001 C 
ENDROOT
BRANCH   2  11
ATOM      7  N   UNL     1      36.836 -21.718 -17.299  0.00  0.00    -0.271 NA
ATOM      8  N   UNL     1      33.487 -22.703 -18.454  0.00  0.00    -0.247 NA
ATOM      9  N   UNL     1      36.429 -23.179 -15.666  0.00  0.00    -0.307 N 
ATOM     10  N   UNL     1      34.215 -23.837 -16.420  0.00  0.00    -0.232 NA
ATOM     11  C   UNL     1      34.641 -22.004 -18.531  0.00  0.00    +0.077 C 
ATOM     12  C   UNL     1      35.590 -22.218 -17.552  0.00  0.00    +0.150 C 
ATOM     13  C   UNL     1      35.361 -23.123 -16.524  0.00  0.00    +0.123 C 
ATOM     14  C   UNL     1      37.298 -22.323 -16.160  0.00  0.00    +0.163 C 
ATOM     15  C   UNL     1      33.346 -23.564 -17.418  0.00  0.00    +0.251 C 
ATOM     16  H   UNL     1      37.314 -21.046 -17.838  0.00  0.00    +0.125 HD
ATOM     17  H   UNL     1      36.525 -23.735 -14.860  0.00  0.00    +0.149 HD
ENDBRANCH   2  11
BRANCH   1  18
ATOM     18  C   UNL     1      35.331 -18.342 -22.866  0.00  0.00    -0.019 C 
BRANCH  18  19
ATOM     19  C   UNL     1      34.944 -16.904 -22.502  0.00  0.00    -0.039 C 
ATOM     20  C   UNL     1      34.708 -15.970 -23.510  0.00  0.00    -0.006 C 
ATOM     21  C   UNL     1      34.829 -16.529 -21.163  0.00  0.00    -0.006 C 
ATOM     22  C   UNL     1      34.358 -14.660 -23.179  0.00  0.00    -0.000 C 
ATOM     23  C   UNL     1      34.478 -15.220 -20.833  0.00  0.00    -0.000 C 
ATOM     24  C   UNL     1      34.242 -14.286 -21.840  0.00  0.00    -0.000 C 
ENDBRANCH  18  19
BRANCH  18  25
ATOM     25  N   UNL     1      34.651 -18.789 -24.106  0.00  0.00    +0.387 N 
ATOM     26  H   UNL     1      34.161 -18.000 -24.528  0.00  0.00    -0.088 HD
ATOM     27  H   UNL     1      33.981 -19.524 -23.881  0.00  0.00    -0.088 HD
ATOM     28  H   UNL     1      35.344 -19.149 -24.763  0.00  0.00    -0.088 HD
ENDBRANCH  18  25
ENDBRANCH   1  18
TORSDOF 4
ENDMDL
MODEL 3
REMARK VINA RESULT:     -10.5      6.389     11.843
REMARK  Name = 16122632
REMARK  4 active torsions:
REMARK  status: ('A' for Active; 'I' for Inactive)
REMARK    1  A    between atoms: C_1  and  C_18
REMARK    2  A    between atoms: C_2  and  C_11
REMARK    3  A    between atoms: C_18  and  C_19
REMARK    4  A    between atoms: C_18  and  N_25
REMARK                            x       y       z     vdW  Elec       q    Type
REMARK                         _______ _______ _______ _____ _____    ______ ____
ROOT
ATOM      1  C   UNL     1      34.879 -22.440 -17.940  0.00  0.00    -0.039 C 
ATOM      2  C   UNL     1      36.174 -23.121 -15.564  0.00  0.00    +0.015 C 
ATOM      3  C   UNL     1      36.191 -22.024 -17.716  0.00  0.00    -0.006 C 
ATOM      4  C   UNL     1      34.214 -23.197 -16.976  0.00  0.00    -0.006 C 
ATOM      5  C   UNL     1      36.839 -22.363 -16.529  0.00  0.00    +0.001 C 
ATOM      6  C   UNL     1      34.861 -23.538 -15.788  0.00  0.00    +0.001 C 
ENDROOT
BRANCH   2  11
ATOM      7  N   UNL     1      38.400 -25.297 -15.143  0.00  0.00    -0.271 NA
ATOM      8  N   UNL     1      36.500 -22.811 -13.211  0.00  0.00    -0.247 NA
ATOM      9  N   UNL     1      39.348 -25.735 -13.174  0.00  0.00    -0.307 N 
ATOM     10  N   UNL     1      38.098 -24.095 -11.888  0.00  0.00    -0.232 NA
ATOM     11  C   UNL     1      36.839 -23.470 -14.341  0.00  0.00    +0.077 C 
ATOM     12  C   UNL     1      37.811 -24.447 -14.251  0.00  0.00    +0.150 C 
ATOM     13  C   UNL     1      38.416 -24.738 -13.037  0.00  0.00    +0.123 C 
ATOM     14  C   UNL     1      39.313 -26.049 -14.451  0.00  0.00    +0.163 C 
ATOM     15  C   UNL     1      37.141 -23.159 -12.070  0.00  0.00    +0.251 C 
ATOM     16  H   UNL     1      38.203 -25.359 -16.106  0.00  0.00    +0.125 HD
ATOM     17  H   UNL     1      39.916 -26.129 -12.474  0.00  0.00    +0.149 HD
ENDBRANCH   2  11
BRANCH   1  18
ATOM     18  C   UNL     1      34.187 -22.076 -19.210  0.00  0.00    -0.019 C 
BRANCH  18  19
ATOM     19  C   UNL     1      34.834 -20.885 -19.925  0.00  0.00    -0.039 C 
ATOM     20  C   UNL     1      34.033 -19.922 -20.540  0.00  0.00    -0.006 C 
ATOM     21  C   UNL     1      36.223 -20.762 -19.962  0.00  0.00    -0.006 C 
ATOM     22  C   UNL     1      34.622 -18.838 -21.193  0.00  0.00    -0.000 C 
ATOM     23  C   UNL     1      36.811 -19.679 -20.614  0.00  0.00    -0.000 C 
ATOM     24  C   UNL     1      36.011 -18.717 -21.228  0.00  0.00    -0.000 C 
ENDBRANCH  18  19
BRANCH  18  25
ATOM     25  N   UNL     1      32.728 -21.873 -19.028  0.00  0.00    +0.387 N 
ATOM     26  H   UNL     1      32.221 -22.645 -19.461  0.00  0.00    -0.088 HD
ATOM     27  H   UNL     1      32.450 -20.995 -19.466  0.00  0.00    -0.088 HD
ATOM     28  H   UNL     1      32.512 -21.840 -18.031  0.00  0.00    -0.088 HD
ENDBRANCH  18  25
ENDBRANCH   1  18
TORSDOF 4
ENDMDL
MODEL 4
REMARK VINA RESULT:     -10.5      2.889      5.542
REMARK  Name = 16122632
REMARK  4 active torsions:
REMARK  status: ('A' for Active; 'I' for Inactive)
REMARK    1  A    between atoms: C_1  and  C_18
REMARK    2  A    between atoms: C_2  and  C_11
REMARK    3  A    between atoms: C_18  and  C_19
REMARK    4  A    between atoms: C_18  and  N_25
REMARK                            x       y       z     vdW  Elec       q    Type
REMARK                         _______ _______ _______ _____ _____    ______ ____
ROOT
ATOM      1  C   UNL     1      34.092 -21.334 -19.623  0.00  0.00    -0.039 C 
ATOM      2  C   UNL     1      34.395 -19.183 -21.374  0.00  0.00    +0.015 C 
ATOM      3  C   UNL     1      32.980 -20.585 -20.007  0.00  0.00    -0.006 C 
ATOM      4  C   UNL     1      35.356 -21.009 -20.116  0.00  0.00    -0.006 C 
ATOM      5  C   UNL     1      33.131 -19.510 -20.881  0.00  0.00    +0.001 C 
ATOM      6  C   UNL     1      35.508 -19.933 -20.991  0.00  0.00    +0.001 C 
ENDROOT
BRANCH   2  11
ATOM      7  N   UNL     1      34.377 -16.121 -20.673  0.00  0.00    -0.271 NA
ATOM      8  N   UNL     1      34.730 -18.333 -23.589  0.00  0.00    -0.247 NA
ATOM      9  N   UNL     1      34.632 -14.503 -22.184  0.00  0.00    -0.307 N 
ATOM     10  N   UNL     1      34.867 -15.956 -24.118  0.00  0.00    -0.232 NA
ATOM     11  C   UNL     1      34.551 -18.076 -22.274  0.00  0.00    +0.077 C 
ATOM     12  C   UNL     1      34.530 -16.755 -21.873  0.00  0.00    +0.150 C 
ATOM     13  C   UNL     1      34.686 -15.729 -22.795  0.00  0.00    +0.123 C 
ATOM     14  C   UNL     1      34.446 -14.773 -20.910  0.00  0.00    +0.163 C 
ATOM     15  C   UNL     1      34.875 -17.272 -24.418  0.00  0.00    +0.251 C 
ATOM     16  H   UNL     1      34.242 -16.553 -19.798  0.00  0.00    +0.125 HD
ATOM     17  H   UNL     1      34.715 -13.616 -22.605  0.00  0.00    +0.149 HD
ENDBRANCH   2  11
BRANCH   1  18
ATOM     18  C   UNL     1      33.931 -22.484 -18.687  0.00  0.00    -0.019 C 
BRANCH  18  19
ATOM     19  C   UNL     1      34.981 -22.499 -17.571  0.00  0.00    -0.039 C 
ATOM     20  C   UNL     1      34.676 -23.071 -16.335  0.00  0.00    -0.006 C 
ATOM     21  C   UNL     1      36.241 -21.942 -17.788  0.00  0.00    -0.006 C 
ATOM     22  C   UNL     1      35.631 -23.083 -15.318  0.00  0.00    -0.000 C 
ATOM     23  C   UNL     1      37.195 -21.955 -16.772  0.00  0.00    -0.000 C 
ATOM     24  C   UNL     1      36.891 -22.526 -15.537  0.00  0.00    -0.000 C 
ENDBRANCH  18  19
BRANCH  18  25
ATOM     25  N   UNL     1      33.868 -23.789 -19.390  0.00  0.00    +0.387 N 
ATOM     26  H   UNL     1      33.866 -23.632 -20.399  0.00  0.00    -0.088 HD
ATOM     27  H   UNL     1      33.015 -24.280 -19.121  0.00  0.00    -0.088 HD
ATOM     28  H   UNL     1      34.680 -24.352 -19.135  0.00  0.00    -0.088 HD
ENDBRANCH  18  25
ENDBRANCH   1  18
TORSDOF 4
ENDMDL
MODEL 5
REMARK VINA RESULT:     -10.4      3.134      5.611
REMARK  Name = 16122632
REMARK  4 active torsions:
REMARK  status: ('A' for Active; 'I' for Inactive)
REMARK    1  A    between atoms: C_1  and  C_18
REMARK    2  A    between atoms: C_2  and  C_11
REMARK    3  A    between atoms: C_18  and  C_19
REMARK    4  A    between atoms: C_18  and  N_25
REMARK                            x       y       z     vdW  Elec       q    Type
REMARK                         _______ _______ _______ _____ _____    ______ ____
ROOT
ATOM      1  C   UNL     1      33.908 -21.451 -19.654  0.00  0.00    -0.039 C 
ATOM      2  C   UNL     1      34.315 -19.050 -21.014  0.00  0.00    +0.015 C 
ATOM      3  C   UNL     1      32.822 -20.635 -19.969  0.00  0.00    -0.006 C 
ATOM      4  C   UNL     1      35.198 -21.067 -20.019  0.00  0.00    -0.006 C 
ATOM      5  C   UNL     1      33.025 -19.435 -20.649  0.00  0.00    +0.001 C 
ATOM      6  C   UNL     1      35.403 -19.866 -20.699  0.00  0.00    +0.001 C 
ENDROOT
BRANCH   2  11
ATOM      7  N   UNL     1      34.596 -18.620 -24.114  0.00  0.00    -0.271 NA
ATOM      8  N   UNL     1      34.620 -16.674 -20.995  0.00  0.00    -0.247 NA
ATOM      9  N   UNL     1      34.922 -16.631 -25.064  0.00  0.00    -0.307 N 
ATOM     10  N   UNL     1      34.940 -15.335 -23.009  0.00  0.00    -0.232 NA
ATOM     11  C   UNL     1      34.526 -17.814 -21.714  0.00  0.00    +0.077 C 
ATOM     12  C   UNL     1      34.637 -17.721 -23.087  0.00  0.00    +0.150 C 
ATOM     13  C   UNL     1      34.841 -16.494 -23.702  0.00  0.00    +0.123 C 
ATOM     14  C   UNL     1      34.771 -17.920 -25.279  0.00  0.00    +0.163 C 
ATOM     15  C   UNL     1      34.819 -15.520 -21.677  0.00  0.00    +0.251 C 
ATOM     16  H   UNL     1      34.464 -19.593 -24.032  0.00  0.00    +0.125 HD
ATOM     17  H   UNL     1      35.062 -15.923 -25.734  0.00  0.00    +0.149 HD
ENDBRANCH   2  11
BRANCH   1  18
ATOM     18  C   UNL     1      33.691 -22.734 -18.926  0.00  0.00    -0.019 C 
BRANCH  18  19
ATOM     19  C   UNL     1      34.389 -22.775 -17.562  0.00  0.00    -0.039 C 
ATOM     20  C   UNL     1      35.715 -22.358 -17.445  0.00  0.00    -0.006 C 
ATOM     21  C   UNL     1      33.700 -23.230 -16.438  0.00  0.00    -0.006 C 
ATOM     22  C   UNL     1      36.351 -22.397 -16.203  0.00  0.00    -0.000 C 
ATOM     23  C   UNL     1      34.336 -23.268 -15.197  0.00  0.00    -0.000 C 
ATOM     24  C   UNL     1      35.661 -22.851 -15.080  0.00  0.00    -0.000 C 
ENDBRANCH  18  19
BRANCH  18  25
ATOM     25  N   UNL     1      34.035 -23.922 -19.747  0.00  0.00    +0.387 N 
ATOM     26  H   UNL     1      33.177 -24.376 -20.063  0.00  0.00    -0.088 HD
ATOM     27  H   UNL     1      34.579 -24.578 -19.186  0.00  0.00    -0.088 HD
ATOM     28  H   UNL     1      34.583 -23.629 -20.556  0.00  0.00    -0.088 HD
ENDBRANCH  18  25
ENDBRANCH   1  18
TORSDOF 4
ENDMDL
MODEL 6
REMARK VINA RESULT:     -10.2      0.622      2.397
REMARK  Name = 16122632
REMARK  4 active torsions:
REMARK  status: ('A' for Active; 'I' for Inactive)
REMARK    1  A    between atoms: C_1  and  C_18
REMARK    2  A    between atoms: C_2  and  C_11
REMARK    3  A    between atoms: C_18  and  C_19
REMARK    4  A    between atoms: C_18  and  N_25
REMARK                            x       y       z     vdW  Elec       q    Type
REMARK                         _______ _______ _______ _____ _____    ______ ____
ROOT
ATOM      1  C   UNL     1      34.938 -17.025 -22.983  0.00  0.00    -0.039 C 
ATOM      2  C   UNL     1      34.017 -14.401 -23.203  0.00  0.00    +0.015 C 
ATOM      3  C   UNL     1      34.991 -16.172 -21.881  0.00  0.00    -0.006 C 
ATOM      4  C   UNL     1      34.424 -16.566 -24.196  0.00  0.00    -0.006 C 
ATOM      5  C   UNL     1      34.531 -14.861 -21.990  0.00  0.00    +0.001 C 
ATOM      6  C   UNL     1      33.963 -15.254 -24.306  0.00  0.00    +0.001 C 
ENDROOT
BRANCH   2  11
ATOM      7  N   UNL     1      31.862 -12.964 -21.425  0.00  0.00    -0.271 NA
ATOM      8  N   UNL     1      34.057 -12.267 -24.290  0.00  0.00    -0.247 NA
ATOM      9  N   UNL     1      31.221 -10.850 -21.720  0.00  0.00    -0.307 N 
ATOM     10  N   UNL     1      32.668 -10.378 -23.615  0.00  0.00    -0.232 NA
ATOM     11  C   UNL     1      33.543 -13.051 -23.317  0.00  0.00    +0.077 C 
ATOM     12  C   UNL     1      32.588 -12.502 -22.485  0.00  0.00    +0.150 C 
ATOM     13  C   UNL     1      32.172 -11.188 -22.649  0.00  0.00    +0.123 C 
ATOM     14  C   UNL     1      31.058 -11.939 -21.000  0.00  0.00    +0.163 C 
ATOM     15  C   UNL     1      33.595 -10.997 -24.379  0.00  0.00    +0.251 C 
ATOM     16  H   UNL     1      31.908 -13.869 -21.037  0.00  0.00    +0.125 HD
ATOM     17  H   UNL     1      30.763  -9.986 -21.615  0.00  0.00    +0.149 HD
ENDBRANCH   2  11
BRANCH   1  18
ATOM     18  C   UNL     1      35.431 -18.428 -22.866  0.00  0.00    -0.019 C 
BRANCH  18  19
ATOM     19  C   UNL     1      34.697 -19.232 -21.787  0.00  0.00    -0.039 C 
ATOM     20  C   UNL     1      33.316 -19.102 -21.639  0.00  0.00    -0.006 C 
ATOM     21  C   UNL     1      35.409 -20.094 -20.953  0.00  0.00    -0.006 C 
ATOM     22  C   UNL     1      32.648 -19.833 -20.656  0.00  0.00    -0.000 C 
ATOM     23  C   UNL     1      34.741 -20.825 -19.971  0.00  0.00    -0.000 C 
ATOM     24  C   UNL     1      33.361 -20.695 -19.823  0.00  0.00    -0.000 C 
ENDBRANCH  18  19
BRANCH  18  25
ATOM     25  N   UNL     1      36.903 -18.504 -22.693  0.00  0.00    +0.387 N 
ATOM     26  H   UNL     1      37.156 -19.427 -22.339  0.00  0.00    -0.088 HD
ATOM     27  H   UNL     1      37.205 -17.791 -22.029  0.00  0.00    -0.088 HD
ATOM     28  H   UNL     1      37.359 -18.348 -23.592  0.00  0.00    -0.088 HD
ENDBRANCH  18  25
ENDBRANCH   1  18
TORSDOF 4
ENDMDL
MODEL 7
REMARK VINA RESULT:     -10.0      2.968      8.835
REMARK  Name = 16122632
REMARK  4 active torsions:
REMARK  status: ('A' for Active; 'I' for Inactive)
REMARK    1  A    between atoms: C_1  and  C_18
REMARK    2  A    between atoms: C_2  and  C_11
REMARK    3  A    between atoms: C_18  and  C_19
REMARK    4  A    between atoms: C_18  and  N_25
REMARK                            x       y       z     vdW  Elec       q    Type
REMARK                         _______ _______ _______ _____ _____    ______ ____
ROOT
ATOM      1  C   UNL     1      32.183 -10.451 -22.048  0.00  0.00    -0.039 C 
ATOM      2  C   UNL     1      32.910 -12.705 -23.520  0.00  0.00    +0.015 C 
ATOM      3  C   UNL     1      31.634 -11.694 -21.736  0.00  0.00    -0.006 C 
ATOM      4  C   UNL     1      33.095 -10.334 -23.097  0.00  0.00    -0.006 C 
ATOM      5  C   UNL     1      31.998 -12.822 -22.472  0.00  0.00    +0.001 C 
ATOM      6  C   UNL     1      33.459 -11.461 -23.833  0.00  0.00    +0.001 C 
ENDROOT
BRANCH   2  11
ATOM      7  N   UNL     1      34.587 -15.178 -22.548  0.00  0.00    -0.271 NA
ATOM      8  N   UNL     1      32.891 -13.947 -25.569  0.00  0.00    -0.247 NA
ATOM      9  N   UNL     1      35.095 -16.918 -23.845  0.00  0.00    -0.307 N 
ATOM     10  N   UNL     1      33.977 -16.114 -25.847  0.00  0.00    -0.232 NA
ATOM     11  C   UNL     1      33.284 -13.865 -24.279  0.00  0.00    +0.077 C 
ATOM     12  C   UNL     1      34.028 -14.909 -23.764  0.00  0.00    +0.150 C 
ATOM     13  C   UNL     1      34.357 -16.004 -24.552  0.00  0.00    +0.123 C 
ATOM     14  C   UNL     1      35.215 -16.392 -22.645  0.00  0.00    +0.163 C 
ATOM     15  C   UNL     1      33.256 -15.051 -26.264  0.00  0.00    +0.251 C 
ATOM     16  H   UNL     1      34.546 -14.604 -21.748  0.00  0.00    +0.125 HD
ATOM     17  H   UNL     1      35.455 -17.777 -24.163  0.00  0.00    +0.149 HD
ENDBRANCH   2  11
BRANCH   1  18
ATOM     18  C   UNL     1      31.794  -9.245 -21.262  0.00  0.00    -0.019 C 
BRANCH  18  19
ATOM     19  C   UNL     1      31.669  -7.982 -22.123  0.00  0.00    -0.039 C 
ATOM     20  C   UNL     1      32.116  -6.757 -21.631  0.00  0.00    -0.006 C 
ATOM     21  C   UNL     1      31.108  -8.059 -23.397  0.00  0.00    -0.006 C 
ATOM     22  C   UNL     1      32.001  -5.607 -22.413  0.00  0.00    -0.000 C 
ATOM     23  C   UNL     1      30.993  -6.910 -24.179  0.00  0.00    -0.000 C 
ATOM     24  C   UNL     1      31.440  -5.684 -23.688  0.00  0.00    -0.000 C 
ENDBRANCH  18  19
BRANCH  18  25
ATOM     25  N   UNL     1      32.676  -9.017 -20.090  0.00  0.00    +0.387 N 
ATOM     26  H   UNL     1      32.333  -9.559 -19.296  0.00  0.00    -0.088 HD
ATOM     27  H   UNL     1      32.675  -8.026 -19.851  0.00  0.00    -0.088 HD
ATOM     28  H   UNL     1      33.626  -9.312 -20.318  0.00  0.00    -0.088 HD
ENDBRANCH  18  25
ENDBRANCH   1  18
TORSDOF 4
ENDMDL
MODEL 8
REMARK VINA RESULT:     -10.0      3.406      9.278
REMARK  Name = 16122632
REMARK  4 active torsions:
REMARK  status: ('A' for Active; 'I' for Inactive)
REMARK    1  A    between atoms: C_1  and  C_18
REMARK    2  A    between atoms: C_2  and  C_11
REMARK    3  A    between atoms: C_18  and  C_19
REMARK    4  A    between atoms: C_18  and  N_25
REMARK                            x       y       z     vdW  Elec       q    Type
REMARK                         _______ _______ _______ _____ _____    ______ ____
ROOT
ATOM      1  C   UNL     1      34.128  -8.866 -23.860  0.00  0.00    -0.039 C 
ATOM      2  C   UNL     1      33.837 -11.570 -24.481  0.00  0.00    +0.015 C 
ATOM      3  C   UNL     1      33.128  -9.619 -23.245  0.00  0.00    -0.006 C 
ATOM      4  C   UNL     1      34.982  -9.464 -24.786  0.00  0.00    -0.006 C 
ATOM      5  C   UNL     1      32.982 -10.971 -23.555  0.00  0.00    +0.001 C 
ATOM      6  C   UNL     1      34.838 -10.817 -25.096  0.00  0.00    +0.001 C 
ENDROOT
BRANCH   2  11
ATOM      7  N   UNL     1      34.464 -14.042 -22.646  0.00  0.00    -0.271 NA
ATOM      8  N   UNL     1      33.224 -13.295 -26.026  0.00  0.00    -0.247 NA
ATOM      9  N   UNL     1      34.182 -16.160 -23.281  0.00  0.00    -0.307 N 
ATOM     10  N   UNL     1      33.362 -15.678 -25.517  0.00  0.00    -0.232 NA
ATOM     11  C   UNL     1      33.687 -12.961 -24.801  0.00  0.00    +0.077 C 
ATOM     12  C   UNL     1      33.990 -13.985 -23.925  0.00  0.00    +0.150 C 
ATOM     13  C   UNL     1      33.823 -15.312 -24.297  0.00  0.00    +0.123 C 
ATOM     14  C   UNL     1      34.563 -15.365 -22.304  0.00  0.00    +0.163 C 
ATOM     15  C   UNL     1      33.092 -14.614 -26.305  0.00  0.00    +0.251 C 
ATOM     16  H   UNL     1      34.694 -13.273 -22.074  0.00  0.00    +0.125 HD
ATOM     17  H   UNL     1      34.161 -17.144 -23.282  0.00  0.00    +0.149 HD
ENDBRANCH   2  11
BRANCH   1  18
ATOM     18  C   UNL     1      34.283  -7.420 -23.529  0.00  0.00    -0.019 C 
BRANCH  18  19
ATOM     19  C   UNL     1      32.978  -6.770 -23.056  0.00  0.00    -0.039 C 
ATOM     20  C   UNL     1      32.102  -6.209 -23.985  0.00  0.00    -0.006 C 
ATOM     21  C   UNL     1      32.665  -6.740 -21.697  0.00  0.00    -0.006 C 
ATOM     22  C   UNL     1      30.915  -5.615 -23.555  0.00  0.00    -0.000 C 
ATOM     23  C   UNL     1      31.479  -6.147 -21.267  0.00  0.00    -0.000 C 
ATOM     24  C   UNL     1      30.603  -5.585 -22.195  0.00  0.00    -0.000 C 
ENDBRANCH  18  19
BRANCH  18  25
ATOM     25  N   UNL     1      34.907  -6.645 -24.630  0.00  0.00    +0.387 N 
ATOM     26  H   UNL     1      34.207  -6.446 -25.345  0.00  0.00    -0.088 HD
ATOM     27  H   UNL     1      35.667  -7.188 -25.041  0.00  0.00    -0.088 HD
ATOM     28  H   UNL     1      35.276  -5.768 -24.262  0.00  0.00    -0.088 HD
ENDBRANCH  18  25
ENDBRANCH   1  18
TORSDOF 4
ENDMDL
MODEL 9
REMARK VINA RESULT:      -9.9      3.229      6.294
REMARK  Name = 16122632
REMARK  4 active torsions:
REMARK  status: ('A' for Active; 'I' for Inactive)
REMARK    1  A    between atoms: C_1  and  C_18
REMARK    2  A    between atoms: C_2  and  C_11
REMARK    3  A    between atoms: C_18  and  C_19
REMARK    4  A    between atoms: C_18  and  N_25
REMARK                            x       y       z     vdW  Elec       q    Type
REMARK                         _______ _______ _______ _____ _____    ______ ____
ROOT
ATOM      1  C   UNL     1      35.167 -21.803 -18.750  0.00  0.00    -0.039 C 
ATOM      2  C   UNL     1      34.969 -19.956 -20.831  0.00  0.00    +0.015 C 
ATOM      3  C   UNL     1      36.318 -21.210 -19.267  0.00  0.00    -0.006 C 
ATOM      4  C   UNL     1      33.917 -21.473 -19.273  0.00  0.00    -0.006 C 
ATOM      5  C   UNL     1      36.220 -20.286 -20.307  0.00  0.00    +0.001 C 
ATOM      6  C   UNL     1      33.817 -20.549 -20.313  0.00  0.00    +0.001 C 
ENDROOT
BRANCH   2  11
ATOM      7  N   UNL     1      34.811 -16.825 -20.614  0.00  0.00    -0.271 NA
ATOM      8  N   UNL     1      34.832 -19.467 -23.172  0.00  0.00    -0.247 NA
ATOM      9  N   UNL     1      34.653 -15.468 -22.374  0.00  0.00    -0.307 N 
ATOM     10  N   UNL     1      34.666 -17.206 -24.073  0.00  0.00    -0.232 NA
ATOM     11  C   UNL     1      34.867 -19.006 -21.902  0.00  0.00    +0.077 C 
ATOM     12  C   UNL     1      34.803 -17.640 -21.710  0.00  0.00    +0.150 C 
ATOM     13  C   UNL     1      34.704 -16.774 -22.790  0.00  0.00    +0.123 C 
ATOM     14  C   UNL     1      34.719 -15.534 -21.062  0.00  0.00    +0.163 C 
ATOM     15  C   UNL     1      34.735 -18.551 -24.166  0.00  0.00    +0.251 C 
ATOM     16  H   UNL     1      34.871 -17.114 -19.674  0.00  0.00    +0.125 HD
ATOM     17  H   UNL     1      34.583 -14.660 -22.933  0.00  0.00    +0.149 HD
ENDBRANCH   2  11
BRANCH   1  18
ATOM     18  C   UNL     1      35.272 -22.791 -17.638  0.00  0.00    -0.019 C 
BRANCH  18  19
ATOM     19  C   UNL     1      33.966 -22.947 -16.850  0.00  0.00    -0.039 C 
ATOM     20  C   UNL     1      32.743 -22.946 -17.520  0.00  0.00    -0.006 C 
ATOM     21  C   UNL     1      34.001 -23.089 -15.463  0.00  0.00    -0.006 C 
ATOM     22  C   UNL     1      31.554 -23.086 -16.803  0.00  0.00    -0.000 C 
ATOM     23  C   UNL     1      32.813 -23.230 -14.746  0.00  0.00    -0.000 C 
ATOM     24  C   UNL     1      31.590 -23.229 -15.416  0.00  0.00    -0.000 C 
ENDBRANCH  18  19
BRANCH  18  25
ATOM     25  N   UNL     1      36.420 -22.519 -16.738  0.00  0.00    +0.387 N 
ATOM     26  H   UNL     1      37.075 -23.301 -16.777  0.00  0.00    -0.088 HD
ATOM     27  H   UNL     1      36.083 -22.405 -15.782  0.00  0.00    -0.088 HD
ATOM     28  H   UNL     1      36.891 -21.665 -17.037  0.00  0.00    -0.088 HD
ENDBRANCH  18  25
ENDBRANCH   1  18
TORSDOF 4
ENDMDL
