MODEL 1
REMARK VINA RESULT:      -9.7      0.000      0.000
REMARK  Name = 6093202
REMARK  9 active torsions:
REMARK  status: ('A' for Active; 'I' for Inactive)
REMARK    1  A    between atoms: C_2  and  O_17
REMARK    2  A    between atoms: C_3  and  O_19
REMARK    3  A    between atoms: C_4  and  C_21
REMARK    4  A    between atoms: C_5  and  N_6
REMARK    5  A    between atoms: C_9  and  C_14
REMARK    6  A    between atoms: C_21  and  O_22
REMARK    7  A    between atoms: O_22  and  P_23
REMARK    8  A    between atoms: P_23  and  O_25
REMARK    9  A    between atoms: P_23  and  O_27
REMARK                            x       y       z     vdW  Elec       q    Type
REMARK                         _______ _______ _______ _____ _____    ______ ____
ROOT
ATOM      1  O   UNL     1      36.029 -25.211 -15.455  0.00  0.00    -0.333 OA
ATOM      2  C   UNL     1      36.729 -25.305 -13.202  0.00  0.00    +0.171 C 
ATOM      3  C   UNL     1      35.489 -24.440 -13.262  0.00  0.00    +0.187 C 
ATOM      4  C   UNL     1      36.607 -26.105 -14.489  0.00  0.00    +0.176 C 
ATOM      5  C   UNL     1      35.407 -24.123 -14.747  0.00  0.00    +0.223 C 
ENDROOT
BRANCH   5   6
ATOM      6  N   UNL     1      33.992 -23.936 -15.156  0.00  0.00    -0.279 N 
ATOM      7  C   UNL     1      33.010 -24.352 -14.335  0.00  0.00    +0.124 C 
ATOM      8  C   UNL     1      33.722 -23.356 -16.339  0.00  0.00    +0.063 C 
ATOM      9  C   UNL     1      31.679 -24.189 -14.691  0.00  0.00    +0.051 C 
ATOM     10  C   UNL     1      32.409 -23.168 -16.747  0.00  0.00    +0.016 C 
ATOM     11  C   UNL     1      31.380 -23.591 -15.912  0.00  0.00    +0.003 C 
BRANCH   9  14
ATOM     12  O   UNL     1      30.567 -24.268 -12.617  0.00  0.00    -0.271 OA
ATOM     13  N   UNL     1      29.646 -25.482 -14.330  0.00  0.00    -0.326 N 
ATOM     14  C   UNL     1      30.619 -24.637 -13.804  0.00  0.00    +0.240 C 
ATOM     15  H   UNL     1      28.912 -25.804 -13.758  0.00  0.00    +0.145 HD
ATOM     16  H   UNL     1      29.690 -25.756 -15.274  0.00  0.00    +0.145 HD
ENDBRANCH   9  14
ENDBRANCH   5   6
BRANCH   2  17
ATOM     17  O   UNL     1      36.710 -26.137 -12.057  0.00  0.00    -0.379 OA
ATOM     18  H   UNL     1      36.406 -27.023 -12.307  0.00  0.00    +0.211 HD
ENDBRANCH   2  17
BRANCH   3  19
ATOM     19  O   UNL     1      35.643 -23.255 -12.503  0.00  0.00    -0.378 OA
ATOM     20  H   UNL     1      36.437 -23.325 -11.950  0.00  0.00    +0.211 HD
ENDBRANCH   3  19
BRANCH   4  21
ATOM     21  C   UNL     1      37.937 -26.621 -15.007  0.00  0.00    +0.186 C 
BRANCH  21  22
ATOM     22  O   UNL     1      38.925 -26.423 -14.008  0.00  0.00    -0.271 OA
BRANCH  22  23
ATOM     23  P   UNL     1      40.370 -25.849 -14.456  0.00  0.00    +0.473 P 
ATOM     24  O   UNL     1      40.723 -24.505 -13.888  0.00  0.00    -0.227 OA
BRANCH  23  25
ATOM     25  O   UNL     1      40.332 -25.929 -16.070  0.00  0.00    -0.303 OA
ATOM     26  H   UNL     1      40.287 -26.858 -16.348  0.00  0.00    +0.222 HD
ENDBRANCH  23  25
BRANCH  23  27
ATOM     27  O   UNL     1      41.376 -27.048 -14.048  0.00  0.00    -0.303 OA
ATOM     28  H   UNL     1      41.093 -27.434 -13.204  0.00  0.00    +0.222 HD
ENDBRANCH  23  27
ENDBRANCH  22  23
ENDBRANCH  21  22
ENDBRANCH   4  21
TORSDOF 9
ENDMDL
MODEL 2
REMARK VINA RESULT:      -9.1      1.539      2.347
REMARK  Name = 6093202
REMARK  9 active torsions:
REMARK  status: ('A' for Active; 'I' for Inactive)
REMARK    1  A    between atoms: C_2  and  O_17
REMARK    2  A    between atoms: C_3  and  O_19
REMARK    3  A    between atoms: C_4  and  C_21
REMARK    4  A    between atoms: C_5  and  N_6
REMARK    5  A    between atoms: C_9  and  C_14
REMARK    6  A    between atoms: C_21  and  O_22
REMARK    7  A    between atoms: O_22  and  P_23
REMARK    8  A    between atoms: P_23  and  O_25
REMARK    9  A    between atoms: P_23  and  O_27
REMARK                            x       y       z     vdW  Elec       q    Type
REMARK                         _______ _______ _______ _____ _____    ______ ____
ROOT
ATOM      1  O   UNL     1      35.727 -24.421 -14.869  0.00  0.00    -0.333 OA
ATOM      2  C   UNL     1      36.560 -25.052 -12.752  0.00  0.00    +0.171 C 
ATOM      3  C   UNL     1      35.108 -24.666 -12.577  0.00  0.00    +0.187 C 
ATOM      4  C   UNL     1      36.619 -25.356 -14.241  0.00  0.00    +0.176 C 
ATOM      5  C   UNL     1      34.836 -23.903 -13.864  0.00  0.00    +0.223 C 
ENDROOT
BRANCH   5   6
ATOM      6  N   UNL     1      33.412 -24.052 -14.259  0.00  0.00    -0.279 N 
ATOM      7  C   UNL     1      32.954 -23.379 -15.331  0.00  0.00    +0.124 C 
ATOM      8  C   UNL     1      32.612 -24.856 -13.538  0.00  0.00    +0.063 C 
ATOM      9  C   UNL     1      31.629 -23.500 -15.724  0.00  0.00    +0.051 C 
ATOM     10  C   UNL     1      31.277 -25.016 -13.884  0.00  0.00    +0.016 C 
ATOM     11  C   UNL     1      30.784 -24.327 -14.989  0.00  0.00    +0.003 C 
BRANCH   9  14
ATOM     12  O   UNL     1      29.940 -22.435 -16.973  0.00  0.00    -0.271 OA
ATOM     13  N   UNL     1      32.044 -22.450 -17.883  0.00  0.00    -0.326 N 
ATOM     14  C   UNL     1      31.134 -22.774 -16.880  0.00  0.00    +0.240 C 
ATOM     15  H   UNL     1      31.744 -21.959 -18.681  0.00  0.00    +0.145 HD
ATOM     16  H   UNL     1      32.989 -22.713 -17.793  0.00  0.00    +0.145 HD
ENDBRANCH   9  14
ENDBRANCH   5   6
BRANCH   2  17
ATOM     17  O   UNL     1      36.881 -26.185 -11.967  0.00  0.00    -0.379 OA
ATOM     18  H   UNL     1      36.336 -26.187 -11.165  0.00  0.00    +0.211 HD
ENDBRANCH   2  17
BRANCH   3  19
ATOM     19  O   UNL     1      34.923 -23.831 -11.449  0.00  0.00    -0.378 OA
ATOM     20  H   UNL     1      34.630 -22.953 -11.740  0.00  0.00    +0.211 HD
ENDBRANCH   3  19
BRANCH   4  21
ATOM     21  C   UNL     1      38.010 -25.206 -14.831  0.00  0.00    +0.186 C 
BRANCH  21  22
ATOM     22  O   UNL     1      38.890 -26.093 -14.161  0.00  0.00    -0.271 OA
BRANCH  22  23
ATOM     23  P   UNL     1      40.474 -25.990 -14.475  0.00  0.00    +0.473 P 
ATOM     24  O   UNL     1      41.321 -27.039 -13.816  0.00  0.00    -0.227 OA
BRANCH  23  25
ATOM     25  O   UNL     1      40.844 -24.463 -14.092  0.00  0.00    -0.303 OA
ATOM     26  H   UNL     1      41.422 -24.455 -13.312  0.00  0.00    +0.222 HD
ENDBRANCH  23  25
BRANCH  23  27
ATOM     27  O   UNL     1      40.522 -25.989 -16.091  0.00  0.00    -0.303 OA
ATOM     28  H   UNL     1      40.016 -26.745 -16.429  0.00  0.00    +0.222 HD
ENDBRANCH  23  27
ENDBRANCH  22  23
ENDBRANCH  21  22
ENDBRANCH   4  21
TORSDOF 9
ENDMDL
MODEL 3
REMARK VINA RESULT:      -9.0      5.367      8.601
REMARK  Name = 6093202
REMARK  9 active torsions:
REMARK  status: ('A' for Active; 'I' for Inactive)
REMARK    1  A    between atoms: C_2  and  O_17
REMARK    2  A    between atoms: C_3  and  O_19
REMARK    3  A    between atoms: C_4  and  C_21
REMARK    4  A    between atoms: C_5  and  N_6
REMARK    5  A    between atoms: C_9  and  C_14
REMARK    6  A    between atoms: C_21  and  O_22
REMARK    7  A    between atoms: O_22  and  P_23
REMARK    8  A    between atoms: P_23  and  O_25
REMARK    9  A    between atoms: P_23  and  O_27
REMARK                            x       y       z     vdW  Elec       q    Type
REMARK                         _______ _______ _______ _____ _____    ______ ____
ROOT
ATOM      1  O   UNL     1      32.075 -22.778 -17.750  0.00  0.00    -0.333 OA
ATOM      2  C   UNL     1      32.706 -23.497 -15.591  0.00  0.00    +0.171 C 
ATOM      3  C   UNL     1      33.972 -23.196 -16.362  0.00  0.00    +0.187 C 
ATOM      4  C   UNL     1      31.674 -22.700 -16.372  0.00  0.00    +0.176 C 
ATOM      5  C   UNL     1      33.461 -23.168 -17.794  0.00  0.00    +0.223 C 
ENDROOT
BRANCH   5   6
ATOM      6  N   UNL     1      34.271 -22.232 -18.612  0.00  0.00    -0.279 N 
ATOM      7  C   UNL     1      33.652 -21.420 -19.489  0.00  0.00    +0.124 C 
ATOM      8  C   UNL     1      35.608 -22.215 -18.459  0.00  0.00    +0.063 C 
ATOM      9  C   UNL     1      34.385 -20.534 -20.266  0.00  0.00    +0.051 C 
ATOM     10  C   UNL     1      36.391 -21.349 -19.210  0.00  0.00    +0.016 C 
ATOM     11  C   UNL     1      35.769 -20.502 -20.122  0.00  0.00    +0.003 C 
BRANCH   9  14
ATOM     12  O   UNL     1      32.568 -19.228 -21.000  0.00  0.00    -0.271 OA
ATOM     13  N   UNL     1      34.411 -19.293 -22.362  0.00  0.00    -0.326 N 
ATOM     14  C   UNL     1      33.717 -19.657 -21.212  0.00  0.00    +0.240 C 
ATOM     15  H   UNL     1      33.990 -18.700 -23.025  0.00  0.00    +0.145 HD
ATOM     16  H   UNL     1      35.325 -19.628 -22.513  0.00  0.00    +0.145 HD
ENDBRANCH   9  14
ENDBRANCH   5   6
BRANCH   2  17
ATOM     17  O   UNL     1      32.812 -23.057 -14.250  0.00  0.00    -0.379 OA
ATOM     18  H   UNL     1      32.432 -23.725 -13.659  0.00  0.00    +0.211 HD
ENDBRANCH   2  17
BRANCH   3  19
ATOM     19  O   UNL     1      34.940 -24.215 -16.193  0.00  0.00    -0.378 OA
ATOM     20  H   UNL     1      35.002 -24.740 -17.006  0.00  0.00    +0.211 HD
ENDBRANCH   3  19
BRANCH   4  21
ATOM     21  C   UNL     1      30.260 -23.234 -16.224  0.00  0.00    +0.186 C 
BRANCH  21  22
ATOM     22  O   UNL     1      29.366 -22.354 -16.886  0.00  0.00    -0.271 OA
BRANCH  22  23
ATOM     23  P   UNL     1      27.799 -22.751 -16.947  0.00  0.00    +0.473 P 
ATOM     24  O   UNL     1      27.496 -24.025 -17.679  0.00  0.00    -0.227 OA
BRANCH  23  25
ATOM     25  O   UNL     1      27.089 -21.426 -17.542  0.00  0.00    -0.303 OA
ATOM     26  H   UNL     1      27.763 -20.837 -17.917  0.00  0.00    +0.222 HD
ENDBRANCH  23  25
BRANCH  23  27
ATOM     27  O   UNL     1      27.363 -22.738 -15.389  0.00  0.00    -0.303 OA
ATOM     28  H   UNL     1      27.030 -23.615 -15.141  0.00  0.00    +0.222 HD
ENDBRANCH  23  27
ENDBRANCH  22  23
ENDBRANCH  21  22
ENDBRANCH   4  21
TORSDOF 9
ENDMDL
MODEL 4
REMARK VINA RESULT:      -8.9      1.781      3.182
REMARK  Name = 6093202
REMARK  9 active torsions:
REMARK  status: ('A' for Active; 'I' for Inactive)
REMARK    1  A    between atoms: C_2  and  O_17
REMARK    2  A    between atoms: C_3  and  O_19
REMARK    3  A    between atoms: C_4  and  C_21
REMARK    4  A    between atoms: C_5  and  N_6
REMARK    5  A    between atoms: C_9  and  C_14
REMARK    6  A    between atoms: C_21  and  O_22
REMARK    7  A    between atoms: O_22  and  P_23
REMARK    8  A    between atoms: P_23  and  O_25
REMARK    9  A    between atoms: P_23  and  O_27
REMARK                            x       y       z     vdW  Elec       q    Type
REMARK                         _______ _______ _______ _____ _____    ______ ____
ROOT
ATOM      1  O   UNL     1      36.570 -23.765 -14.597  0.00  0.00    -0.333 OA
ATOM      2  C   UNL     1      36.250 -24.627 -12.422  0.00  0.00    +0.171 C 
ATOM      3  C   UNL     1      34.909 -24.140 -12.924  0.00  0.00    +0.187 C 
ATOM      4  C   UNL     1      37.014 -24.815 -13.723  0.00  0.00    +0.176 C 
ATOM      5  C   UNL     1      35.320 -23.258 -14.093  0.00  0.00    +0.223 C 
ENDROOT
BRANCH   5   6
ATOM      6  N   UNL     1      34.263 -23.260 -15.135  0.00  0.00    -0.279 N 
ATOM      7  C   UNL     1      34.588 -22.937 -16.401  0.00  0.00    +0.124 C 
ATOM      8  C   UNL     1      33.003 -23.583 -14.792  0.00  0.00    +0.063 C 
ATOM      9  C   UNL     1      33.621 -22.931 -17.396  0.00  0.00    +0.051 C 
ATOM     10  C   UNL     1      31.995 -23.594 -15.746  0.00  0.00    +0.016 C 
ATOM     11  C   UNL     1      32.311 -23.263 -17.060  0.00  0.00    +0.003 C 
BRANCH   9  14
ATOM     12  O   UNL     1      35.150 -22.623 -19.160  0.00  0.00    -0.271 OA
ATOM     13  N   UNL     1      32.941 -22.223 -19.626  0.00  0.00    -0.326 N 
ATOM     14  C   UNL     1      33.971 -22.585 -18.762  0.00  0.00    +0.240 C 
ATOM     15  H   UNL     1      33.142 -21.982 -20.559  0.00  0.00    +0.145 HD
ATOM     16  H   UNL     1      32.011 -22.208 -19.303  0.00  0.00    +0.145 HD
ENDBRANCH   9  14
ENDBRANCH   5   6
BRANCH   2  17
ATOM     17  O   UNL     1      36.113 -25.841 -11.707  0.00  0.00    -0.379 OA
ATOM     18  H   UNL     1      35.674 -26.498 -12.269  0.00  0.00    +0.211 HD
ENDBRANCH   2  17
BRANCH   3  19
ATOM     19  O   UNL     1      34.227 -23.384 -11.940  0.00  0.00    -0.378 OA
ATOM     20  H   UNL     1      33.618 -23.961 -11.453  0.00  0.00    +0.211 HD
ENDBRANCH   3  19
BRANCH   4  21
ATOM     21  C   UNL     1      38.521 -24.732 -13.555  0.00  0.00    +0.186 C 
BRANCH  21  22
ATOM     22  O   UNL     1      39.093 -25.974 -13.935  0.00  0.00    -0.271 OA
BRANCH  22  23
ATOM     23  P   UNL     1      40.595 -25.977 -14.535  0.00  0.00    +0.473 P 
ATOM     24  O   UNL     1      41.463 -27.109 -14.067  0.00  0.00    -0.227 OA
BRANCH  23  25
ATOM     25  O   UNL     1      41.149 -24.497 -14.197  0.00  0.00    -0.303 OA
ATOM     26  H   UNL     1      42.005 -24.566 -13.743  0.00  0.00    +0.222 HD
ENDBRANCH  23  25
BRANCH  23  27
ATOM     27  O   UNL     1      40.345 -25.924 -16.132  0.00  0.00    -0.303 OA
ATOM     28  H   UNL     1      39.461 -26.270 -16.332  0.00  0.00    +0.222 HD
ENDBRANCH  23  27
ENDBRANCH  22  23
ENDBRANCH  21  22
ENDBRANCH   4  21
TORSDOF 9
ENDMDL
MODEL 5
REMARK VINA RESULT:      -8.8      9.925     11.876
REMARK  Name = 6093202
REMARK  9 active torsions:
REMARK  status: ('A' for Active; 'I' for Inactive)
REMARK    1  A    between atoms: C_2  and  O_17
REMARK    2  A    between atoms: C_3  and  O_19
REMARK    3  A    between atoms: C_4  and  C_21
REMARK    4  A    between atoms: C_5  and  N_6
REMARK    5  A    between atoms: C_9  and  C_14
REMARK    6  A    between atoms: C_21  and  O_22
REMARK    7  A    between atoms: O_22  and  P_23
REMARK    8  A    between atoms: P_23  and  O_25
REMARK    9  A    between atoms: P_23  and  O_27
REMARK                            x       y       z     vdW  Elec       q    Type
REMARK                         _______ _______ _______ _____ _____    ______ ____
ROOT
ATOM      1  O   UNL     1      34.249 -18.942 -23.279  0.00  0.00    -0.333 OA
ATOM      2  C   UNL     1      34.686 -16.629 -23.081  0.00  0.00    +0.171 C 
ATOM      3  C   UNL     1      34.863 -17.248 -21.712  0.00  0.00    +0.187 C 
ATOM      4  C   UNL     1      34.841 -17.841 -23.988  0.00  0.00    +0.176 C 
ATOM      5  C   UNL     1      34.161 -18.586 -21.886  0.00  0.00    +0.223 C 
ENDROOT
BRANCH   5   6
ATOM      6  N   UNL     1      34.786 -19.612 -21.014  0.00  0.00    -0.279 N 
ATOM      7  C   UNL     1      34.017 -20.584 -20.489  0.00  0.00    +0.124 C 
ATOM      8  C   UNL     1      36.106 -19.548 -20.767  0.00  0.00    +0.063 C 
ATOM      9  C   UNL     1      34.574 -21.557 -19.671  0.00  0.00    +0.051 C 
ATOM     10  C   UNL     1      36.717 -20.495 -19.956  0.00  0.00    +0.016 C 
ATOM     11  C   UNL     1      35.939 -21.507 -19.404  0.00  0.00    +0.003 C 
BRANCH   9  14
ATOM     12  O   UNL     1      34.025 -23.810 -19.259  0.00  0.00    -0.271 OA
ATOM     13  N   UNL     1      32.630 -22.226 -18.363  0.00  0.00    -0.326 N 
ATOM     14  C   UNL     1      33.745 -22.607 -19.105  0.00  0.00    +0.240 C 
ATOM     15  H   UNL     1      32.046 -22.911 -17.965  0.00  0.00    +0.145 HD
ATOM     16  H   UNL     1      32.426 -21.271 -18.237  0.00  0.00    +0.145 HD
ENDBRANCH   9  14
ENDBRANCH   5   6
BRANCH   2  17
ATOM     17  O   UNL     1      35.679 -15.652 -23.328  0.00  0.00    -0.379 OA
ATOM     18  H   UNL     1      36.435 -15.805 -22.740  0.00  0.00    +0.211 HD
ENDBRANCH   2  17
BRANCH   3  19
ATOM     19  O   UNL     1      34.234 -16.478 -20.706  0.00  0.00    -0.378 OA
ATOM     20  H   UNL     1      34.159 -17.003 -19.894  0.00  0.00    +0.211 HD
ENDBRANCH   3  19
BRANCH   4  21
ATOM     21  C   UNL     1      34.158 -17.678 -25.333  0.00  0.00    +0.186 C 
BRANCH  21  22
ATOM     22  O   UNL     1      34.488 -16.404 -25.864  0.00  0.00    -0.271 OA
BRANCH  22  23
ATOM     23  P   UNL     1      33.298 -15.332 -26.091  0.00  0.00    +0.473 P 
ATOM     24  O   UNL     1      32.923 -14.534 -24.876  0.00  0.00    -0.227 OA
BRANCH  23  25
ATOM     25  O   UNL     1      32.104 -16.212 -26.735  0.00  0.00    -0.303 OA
ATOM     26  H   UNL     1      32.390 -17.136 -26.816  0.00  0.00    +0.222 HD
ENDBRANCH  23  25
BRANCH  23  27
ATOM     27  O   UNL     1      33.834 -14.458 -27.342  0.00  0.00    -0.303 OA
ATOM     28  H   UNL     1      33.530 -14.862 -28.170  0.00  0.00    +0.222 HD
ENDBRANCH  23  27
ENDBRANCH  22  23
ENDBRANCH  21  22
ENDBRANCH   4  21
TORSDOF 9
ENDMDL
MODEL 6
REMARK VINA RESULT:      -8.6      2.340      3.313
REMARK  Name = 6093202
REMARK  9 active torsions:
REMARK  status: ('A' for Active; 'I' for Inactive)
REMARK    1  A    between atoms: C_2  and  O_17
REMARK    2  A    between atoms: C_3  and  O_19
REMARK    3  A    between atoms: C_4  and  C_21
REMARK    4  A    between atoms: C_5  and  N_6
REMARK    5  A    between atoms: C_9  and  C_14
REMARK    6  A    between atoms: C_21  and  O_22
REMARK    7  A    between atoms: O_22  and  P_23
REMARK    8  A    between atoms: P_23  and  O_25
REMARK    9  A    between atoms: P_23  and  O_27
REMARK                            x       y       z     vdW  Elec       q    Type
REMARK                         _______ _______ _______ _____ _____    ______ ____
ROOT
ATOM      1  O   UNL     1      33.636 -24.077 -15.486  0.00  0.00    -0.333 OA
ATOM      2  C   UNL     1      34.553 -24.078 -13.309  0.00  0.00    +0.171 C 
ATOM      3  C   UNL     1      33.055 -23.910 -13.176  0.00  0.00    +0.187 C 
ATOM      4  C   UNL     1      34.671 -24.688 -14.697  0.00  0.00    +0.176 C 
ATOM      5  C   UNL     1      32.665 -23.506 -14.589  0.00  0.00    +0.223 C 
ENDROOT
BRANCH   5   6
ATOM      6  N   UNL     1      31.289 -23.973 -14.896  0.00  0.00    -0.279 N 
ATOM      7  C   UNL     1      30.420 -23.123 -15.473  0.00  0.00    +0.124 C 
ATOM      8  C   UNL     1      30.942 -25.236 -14.592  0.00  0.00    +0.063 C 
ATOM      9  C   UNL     1      29.128 -23.532 -15.771  0.00  0.00    +0.051 C 
ATOM     10  C   UNL     1      29.664 -25.700 -14.868  0.00  0.00    +0.016 C 
ATOM     11  C   UNL     1      28.750 -24.836 -15.463  0.00  0.00    +0.003 C 
BRANCH   9  14
ATOM     12  O   UNL     1      27.684 -21.672 -15.758  0.00  0.00    -0.271 OA
ATOM     13  N   UNL     1      27.885 -22.811 -17.738  0.00  0.00    -0.326 N 
ATOM     14  C   UNL     1      28.190 -22.615 -16.394  0.00  0.00    +0.240 C 
ATOM     15  H   UNL     1      27.253 -22.208 -18.193  0.00  0.00    +0.145 HD
ATOM     16  H   UNL     1      28.301 -23.552 -18.234  0.00  0.00    +0.145 HD
ENDBRANCH   9  14
ENDBRANCH   5   6
BRANCH   2  17
ATOM     17  O   UNL     1      35.057 -24.941 -12.307  0.00  0.00    -0.379 OA
ATOM     18  H   UNL     1      34.653 -24.717 -11.455  0.00  0.00    +0.211 HD
ENDBRANCH   2  17
BRANCH   3  19
ATOM     19  O   UNL     1      32.726 -22.890 -12.252  0.00  0.00    -0.378 OA
ATOM     20  H   UNL     1      33.504 -22.334 -12.092  0.00  0.00    +0.211 HD
ENDBRANCH   3  19
BRANCH   4  21
ATOM     21  C   UNL     1      36.019 -24.443 -15.351  0.00  0.00    +0.186 C 
BRANCH  21  22
ATOM     22  O   UNL     1      37.039 -24.916 -14.487  0.00  0.00    -0.271 OA
BRANCH  22  23
ATOM     23  P   UNL     1      37.538 -26.447 -14.650  0.00  0.00    +0.473 P 
ATOM     24  O   UNL     1      39.027 -26.634 -14.632  0.00  0.00    -0.227 OA
BRANCH  23  25
ATOM     25  O   UNL     1      36.793 -26.954 -15.992  0.00  0.00    -0.303 OA
ATOM     26  H   UNL     1      36.677 -27.917 -15.955  0.00  0.00    +0.222 HD
ENDBRANCH  23  25
BRANCH  23  27
ATOM     27  O   UNL     1      36.740 -27.213 -13.470  0.00  0.00    -0.303 OA
ATOM     28  H   UNL     1      37.125 -26.974 -12.612  0.00  0.00    +0.222 HD
ENDBRANCH  23  27
ENDBRANCH  22  23
ENDBRANCH  21  22
ENDBRANCH   4  21
TORSDOF 9
ENDMDL
MODEL 7
REMARK VINA RESULT:      -8.5      9.262     11.236
REMARK  Name = 6093202
REMARK  9 active torsions:
REMARK  status: ('A' for Active; 'I' for Inactive)
REMARK    1  A    between atoms: C_2  and  O_17
REMARK    2  A    between atoms: C_3  and  O_19
REMARK    3  A    between atoms: C_4  and  C_21
REMARK    4  A    between atoms: C_5  and  N_6
REMARK    5  A    between atoms: C_9  and  C_14
REMARK    6  A    between atoms: C_21  and  O_22
REMARK    7  A    between atoms: O_22  and  P_23
REMARK    8  A    between atoms: P_23  and  O_25
REMARK    9  A    between atoms: P_23  and  O_27
REMARK                            x       y       z     vdW  Elec       q    Type
REMARK                         _______ _______ _______ _____ _____    ______ ____
ROOT
ATOM      1  O   UNL     1      33.838 -18.856 -21.819  0.00  0.00    -0.333 OA
ATOM      2  C   UNL     1      35.923 -19.564 -20.965  0.00  0.00    +0.171 C 
ATOM      3  C   UNL     1      36.167 -18.329 -21.805  0.00  0.00    +0.187 C 
ATOM      4  C   UNL     1      34.441 -19.431 -20.649  0.00  0.00    +0.176 C 
ATOM      5  C   UNL     1      34.877 -18.244 -22.607  0.00  0.00    +0.223 C 
ENDROOT
BRANCH   5   6
ATOM      6  N   UNL     1      34.564 -16.829 -22.928  0.00  0.00    -0.279 N 
ATOM      7  C   UNL     1      34.146 -16.513 -24.167  0.00  0.00    +0.124 C 
ATOM      8  C   UNL     1      34.705 -15.892 -21.973  0.00  0.00    +0.063 C 
ATOM      9  C   UNL     1      33.845 -15.199 -24.496  0.00  0.00    +0.051 C 
ATOM     10  C   UNL     1      34.419 -14.561 -22.244  0.00  0.00    +0.016 C 
ATOM     11  C   UNL     1      33.986 -14.216 -23.521  0.00  0.00    +0.003 C 
BRANCH   9  14
ATOM     12  O   UNL     1      33.175 -15.736 -26.688  0.00  0.00    -0.271 OA
ATOM     13  N   UNL     1      33.191 -13.513 -26.128  0.00  0.00    -0.326 N 
ATOM     14  C   UNL     1      33.393 -14.858 -25.833  0.00  0.00    +0.240 C 
ATOM     15  H   UNL     1      32.885 -13.245 -27.024  0.00  0.00    +0.145 HD
ATOM     16  H   UNL     1      33.355 -12.828 -25.440  0.00  0.00    +0.145 HD
ENDBRANCH   9  14
ENDBRANCH   5   6
BRANCH   2  17
ATOM     17  O   UNL     1      36.718 -19.544 -19.794  0.00  0.00    -0.379 OA
ATOM     18  H   UNL     1      36.239 -19.087 -19.086  0.00  0.00    +0.211 HD
ENDBRANCH   2  17
BRANCH   3  19
ATOM     19  O   UNL     1      37.281 -18.494 -22.662  0.00  0.00    -0.378 OA
ATOM     20  H   UNL     1      37.140 -17.988 -23.478  0.00  0.00    +0.211 HD
ENDBRANCH   3  19
BRANCH   4  21
ATOM     21  C   UNL     1      33.772 -20.757 -20.332  0.00  0.00    +0.186 C 
BRANCH  21  22
ATOM     22  O   UNL     1      34.649 -21.533 -19.532  0.00  0.00    -0.271 OA
BRANCH  22  23
ATOM     23  P   UNL     1      34.017 -22.699 -18.606  0.00  0.00    +0.473 P 
ATOM     24  O   UNL     1      34.725 -22.928 -17.302  0.00  0.00    -0.227 OA
BRANCH  23  25
ATOM     25  O   UNL     1      33.951 -23.980 -19.591  0.00  0.00    -0.303 OA
ATOM     26  H   UNL     1      34.679 -24.587 -19.383  0.00  0.00    +0.222 HD
ENDBRANCH  23  25
BRANCH  23  27
ATOM     27  O   UNL     1      32.468 -22.254 -18.471  0.00  0.00    -0.303 OA
ATOM     28  H   UNL     1      31.898 -23.029 -18.591  0.00  0.00    +0.222 HD
ENDBRANCH  23  27
ENDBRANCH  22  23
ENDBRANCH  21  22
ENDBRANCH   4  21
TORSDOF 9
ENDMDL
MODEL 8
REMARK VINA RESULT:      -8.5      7.471      9.239
REMARK  Name = 6093202
REMARK  9 active torsions:
REMARK  status: ('A' for Active; 'I' for Inactive)
REMARK    1  A    between atoms: C_2  and  O_17
REMARK    2  A    between atoms: C_3  and  O_19
REMARK    3  A    between atoms: C_4  and  C_21
REMARK    4  A    between atoms: C_5  and  N_6
REMARK    5  A    between atoms: C_9  and  C_14
REMARK    6  A    between atoms: C_21  and  O_22
REMARK    7  A    between atoms: O_22  and  P_23
REMARK    8  A    between atoms: P_23  and  O_25
REMARK    9  A    between atoms: P_23  and  O_27
REMARK                            x       y       z     vdW  Elec       q    Type
REMARK                         _______ _______ _______ _____ _____    ______ ____
ROOT
ATOM      1  O   UNL     1      35.879 -19.954 -20.237  0.00  0.00    -0.333 OA
ATOM      2  C   UNL     1      34.174 -21.421 -19.515  0.00  0.00    +0.171 C 
ATOM      3  C   UNL     1      33.575 -20.493 -20.550  0.00  0.00    +0.187 C 
ATOM      4  C   UNL     1      35.658 -21.315 -19.833  0.00  0.00    +0.176 C 
ATOM      5  C   UNL     1      34.610 -19.380 -20.602  0.00  0.00    +0.223 C 
ENDROOT
BRANCH   5   6
ATOM      6  N   UNL     1      34.647 -18.776 -21.957  0.00  0.00    -0.279 N 
ATOM      7  C   UNL     1      34.485 -17.446 -22.088  0.00  0.00    +0.124 C 
ATOM      8  C   UNL     1      34.841 -19.570 -23.025  0.00  0.00    +0.063 C 
ATOM      9  C   UNL     1      34.516 -16.853 -23.343  0.00  0.00    +0.051 C 
ATOM     10  C   UNL     1      34.882 -19.032 -24.304  0.00  0.00    +0.016 C 
ATOM     11  C   UNL     1      34.716 -17.659 -24.460  0.00  0.00    +0.003 C 
BRANCH   9  14
ATOM     12  O   UNL     1      34.877 -14.618 -22.694  0.00  0.00    -0.271 OA
ATOM     13  N   UNL     1      33.571 -14.959 -24.548  0.00  0.00    -0.326 N 
ATOM     14  C   UNL     1      34.343 -15.418 -23.484  0.00  0.00    +0.240 C 
ATOM     15  H   UNL     1      33.433 -13.992 -24.675  0.00  0.00    +0.145 HD
ATOM     16  H   UNL     1      33.164 -15.600 -25.174  0.00  0.00    +0.145 HD
ENDBRANCH   9  14
ENDBRANCH   5   6
BRANCH   2  17
ATOM     17  O   UNL     1      33.690 -22.740 -19.677  0.00  0.00    -0.379 OA
ATOM     18  H   UNL     1      33.282 -22.830 -20.552  0.00  0.00    +0.211 HD
ENDBRANCH   2  17
BRANCH   3  19
ATOM     19  O   UNL     1      32.318 -19.992 -20.134  0.00  0.00    -0.378 OA
ATOM     20  H   UNL     1      32.444 -19.159 -19.655  0.00  0.00    +0.211 HD
ENDBRANCH   3  19
BRANCH   4  21
ATOM     21  C   UNL     1      36.552 -21.646 -18.652  0.00  0.00    +0.186 C 
BRANCH  21  22
ATOM     22  O   UNL     1      35.814 -22.420 -17.721  0.00  0.00    -0.271 OA
BRANCH  22  23
ATOM     23  P   UNL     1      36.321 -22.468 -16.185  0.00  0.00    +0.473 P 
ATOM     24  O   UNL     1      35.230 -22.413 -15.155  0.00  0.00    -0.227 OA
BRANCH  23  25
ATOM     25  O   UNL     1      37.411 -21.278 -16.102  0.00  0.00    -0.303 OA
ATOM     26  H   UNL     1      37.568 -20.920 -16.990  0.00  0.00    +0.222 HD
ENDBRANCH  23  25
BRANCH  23  27
ATOM     27  O   UNL     1      37.228 -23.807 -16.147  0.00  0.00    -0.303 OA
ATOM     28  H   UNL     1      36.693 -24.550 -15.827  0.00  0.00    +0.222 HD
ENDBRANCH  23  27
ENDBRANCH  22  23
ENDBRANCH  21  22
ENDBRANCH   4  21
TORSDOF 9
ENDMDL
MODEL 9
REMARK VINA RESULT:      -8.4     12.703     14.589
REMARK  Name = 6093202
REMARK  9 active torsions:
REMARK  status: ('A' for Active; 'I' for Inactive)
REMARK    1  A    between atoms: C_2  and  O_17
REMARK    2  A    between atoms: C_3  and  O_19
REMARK    3  A    between atoms: C_4  and  C_21
REMARK    4  A    between atoms: C_5  and  N_6
REMARK    5  A    between atoms: C_9  and  C_14
REMARK    6  A    between atoms: C_21  and  O_22
REMARK    7  A    between atoms: O_22  and  P_23
REMARK    8  A    between atoms: P_23  and  O_25
REMARK    9  A    between atoms: P_23  and  O_27
REMARK                            x       y       z     vdW  Elec       q    Type
REMARK                         _______ _______ _______ _____ _____    ______ ____
ROOT
ATOM      1  O   UNL     1      33.098 -14.511 -21.767  0.00  0.00    -0.333 OA
ATOM      2  C   UNL     1      34.260 -15.725 -23.427  0.00  0.00    +0.171 C 
ATOM      3  C   UNL     1      33.825 -14.411 -24.039  0.00  0.00    +0.187 C 
ATOM      4  C   UNL     1      34.213 -15.401 -21.942  0.00  0.00    +0.176 C 
ATOM      5  C   UNL     1      32.767 -13.946 -23.050  0.00  0.00    +0.223 C 
ENDROOT
BRANCH   5   6
ATOM      6  N   UNL     1      32.722 -12.463 -23.004  0.00  0.00    -0.279 N 
ATOM      7  C   UNL     1      33.662 -11.756 -23.659  0.00  0.00    +0.124 C 
ATOM      8  C   UNL     1      31.742 -11.858 -22.309  0.00  0.00    +0.063 C 
ATOM      9  C   UNL     1      33.644 -10.369 -23.634  0.00  0.00    +0.051 C 
ATOM     10  C   UNL     1      31.675 -10.473 -22.249  0.00  0.00    +0.016 C 
ATOM     11  C   UNL     1      32.638  -9.725 -22.919  0.00  0.00    +0.003 C 
BRANCH   9  14
ATOM     12  O   UNL     1      34.758  -8.373 -24.200  0.00  0.00    -0.271 OA
ATOM     13  N   UNL     1      35.531 -10.300 -25.173  0.00  0.00    -0.326 N 
ATOM     14  C   UNL     1      34.657  -9.606 -24.341  0.00  0.00    +0.240 C 
ATOM     15  H   UNL     1      36.230  -9.816 -25.667  0.00  0.00    +0.145 HD
ATOM     16  H   UNL     1      35.449 -11.277 -25.266  0.00  0.00    +0.145 HD
ENDBRANCH   9  14
ENDBRANCH   5   6
BRANCH   2  17
ATOM     17  O   UNL     1      35.563 -16.074 -23.852  0.00  0.00    -0.379 OA
ATOM     18  H   UNL     1      35.854 -16.871 -23.383  0.00  0.00    +0.211 HD
ENDBRANCH   2  17
BRANCH   3  19
ATOM     19  O   UNL     1      33.264 -14.596 -25.325  0.00  0.00    -0.378 OA
ATOM     20  H   UNL     1      33.893 -15.073 -25.888  0.00  0.00    +0.211 HD
ENDBRANCH   3  19
BRANCH   4  21
ATOM     21  C   UNL     1      34.027 -16.626 -21.064  0.00  0.00    +0.186 C 
BRANCH  21  22
ATOM     22  O   UNL     1      35.298 -17.196 -20.798  0.00  0.00    -0.271 OA
BRANCH  22  23
ATOM     23  P   UNL     1      35.630 -18.657 -21.408  0.00  0.00    +0.473 P 
ATOM     24  O   UNL     1      34.436 -19.435 -21.877  0.00  0.00    -0.227 OA
BRANCH  23  25
ATOM     25  O   UNL     1      36.508 -19.367 -20.251  0.00  0.00    -0.303 OA
ATOM     26  H   UNL     1      35.996 -19.394 -19.426  0.00  0.00    +0.222 HD
ENDBRANCH  23  25
BRANCH  23  27
ATOM     27  O   UNL     1      36.723 -18.328 -22.554  0.00  0.00    -0.303 OA
ATOM     28  H   UNL     1      37.104 -19.158 -22.884  0.00  0.00    +0.222 HD
ENDBRANCH  23  27
ENDBRANCH  22  23
ENDBRANCH  21  22
ENDBRANCH   4  21
TORSDOF 9
ENDMDL
