MODEL 1
REMARK VINA RESULT:      -7.2      0.000      0.000
REMARK  Name = 446532
REMARK  3 active torsions:
REMARK  status: ('A' for Active; 'I' for Inactive)
REMARK    1  A    between atoms: C_1  and  C_2
REMARK    2  A    between atoms: C_1  and  N_9
REMARK    3  A    between atoms: C_1  and  C_12
REMARK                            x       y       z     vdW  Elec       q    Type
REMARK                         _______ _______ _______ _____ _____    ______ ____
ROOT
ATOM      1  C   UNL     1      35.272 -18.177 -21.810  0.00  0.00    +0.094 C 
ENDROOT
BRANCH   1   2
ATOM      2  C   UNL     1      34.799 -19.373 -21.009  0.00  0.00    -0.005 C 
ATOM      3  C   UNL     1      35.737 -20.231 -20.464  0.00  0.00    -0.003 C 
ATOM      4  C   UNL     1      33.442 -19.578 -20.842  0.00  0.00    -0.003 C 
ATOM      5  C   UNL     1      35.302 -21.332 -19.726  0.00  0.00    -0.000 C 
ATOM      6  C   UNL     1      33.007 -20.679 -20.104  0.00  0.00    -0.000 C 
ATOM      7  C   UNL     1      33.937 -21.556 -19.546  0.00  0.00    -0.000 C 
ENDBRANCH   1   2
BRANCH   1   9
ATOM      8  O   UNL     1      35.010 -15.697 -20.264  0.00  0.00    -0.265 OA
ATOM      9  N   UNL     1      34.228 -17.179 -21.895  0.00  0.00    -0.295 N 
ATOM     10  C   UNL     1      34.202 -16.044 -21.116  0.00  0.00    +0.300 C 
ATOM     11  H   UNL     1      33.499 -17.319 -22.541  0.00  0.00    +0.150 HD
ENDBRANCH   1   9
BRANCH   1  12
ATOM     12  C   UNL     1      35.778 -18.588 -23.203  0.00  0.00    +0.024 C 
ATOM     13  C   UNL     1      34.668 -18.603 -24.247  0.00  0.00    +0.002 C 
ENDBRANCH   1  12
TORSDOF 3
ENDMDL
MODEL 2
REMARK VINA RESULT:      -7.2      0.056      1.396
REMARK  Name = 446532
REMARK  3 active torsions:
REMARK  status: ('A' for Active; 'I' for Inactive)
REMARK    1  A    between atoms: C_1  and  C_2
REMARK    2  A    between atoms: C_1  and  N_9
REMARK    3  A    between atoms: C_1  and  C_12
REMARK                            x       y       z     vdW  Elec       q    Type
REMARK                         _______ _______ _______ _____ _____    ______ ____
ROOT
ATOM      1  C   UNL     1      35.278 -18.179 -21.867  0.00  0.00    +0.094 C 
ENDROOT
BRANCH   1   2
ATOM      2  C   UNL     1      34.787 -19.357 -21.050  0.00  0.00    -0.005 C 
ATOM      3  C   UNL     1      33.427 -19.544 -20.887  0.00  0.00    -0.003 C 
ATOM      4  C   UNL     1      35.712 -20.218 -20.488  0.00  0.00    -0.003 C 
ATOM      5  C   UNL     1      32.975 -20.629 -20.136  0.00  0.00    -0.000 C 
ATOM      6  C   UNL     1      35.261 -21.303 -19.737  0.00  0.00    -0.000 C 
ATOM      7  C   UNL     1      33.892 -21.509 -19.561  0.00  0.00    -0.000 C 
ENDBRANCH   1   2
BRANCH   1   9
ATOM      8  O   UNL     1      35.020 -15.737 -20.261  0.00  0.00    -0.265 OA
ATOM      9  N   UNL     1      34.256 -17.159 -21.952  0.00  0.00    -0.295 N 
ATOM     10  C   UNL     1      34.229 -16.046 -21.144  0.00  0.00    +0.300 C 
ATOM     11  H   UNL     1      33.542 -17.269 -22.622  0.00  0.00    +0.150 HD
ENDBRANCH   1   9
BRANCH   1  12
ATOM     12  C   UNL     1      35.762 -18.615 -23.260  0.00  0.00    +0.024 C 
ATOM     13  C   UNL     1      34.650 -18.588 -24.300  0.00  0.00    +0.002 C 
ENDBRANCH   1  12
TORSDOF 3
ENDMDL
MODEL 3
REMARK VINA RESULT:      -7.0      1.542      2.692
REMARK  Name = 446532
REMARK  3 active torsions:
REMARK  status: ('A' for Active; 'I' for Inactive)
REMARK    1  A    between atoms: C_1  and  C_2
REMARK    2  A    between atoms: C_1  and  N_9
REMARK    3  A    between atoms: C_1  and  C_12
REMARK                            x       y       z     vdW  Elec       q    Type
REMARK                         _______ _______ _______ _____ _____    ______ ____
ROOT
ATOM      1  C   UNL     1      34.505 -18.336 -21.837  0.00  0.00    +0.094 C 
ENDROOT
BRANCH   1   2
ATOM      2  C   UNL     1      34.433 -19.568 -20.958  0.00  0.00    -0.005 C 
ATOM      3  C   UNL     1      33.198 -20.016 -20.528  0.00  0.00    -0.003 C 
ATOM      4  C   UNL     1      35.604 -20.216 -20.609  0.00  0.00    -0.003 C 
ATOM      5  C   UNL     1      33.130 -21.151 -19.719  0.00  0.00    -0.000 C 
ATOM      6  C   UNL     1      35.537 -21.350 -19.800  0.00  0.00    -0.000 C 
ATOM      7  C   UNL     1      34.300 -21.818 -19.356  0.00  0.00    -0.000 C 
ENDBRANCH   1   2
BRANCH   1   9
ATOM      8  O   UNL     1      34.255 -16.980 -24.427  0.00  0.00    -0.265 OA
ATOM      9  N   UNL     1      35.202 -18.632 -23.070  0.00  0.00    -0.295 N 
ATOM     10  C   UNL     1      35.007 -17.928 -24.236  0.00  0.00    +0.300 C 
ATOM     11  H   UNL     1      35.847 -19.377 -23.075  0.00  0.00    +0.150 HD
ENDBRANCH   1   9
BRANCH   1  12
ATOM     12  C   UNL     1      35.142 -17.146 -21.098  0.00  0.00    +0.024 C 
ATOM     13  C   UNL     1      34.202 -15.952 -20.997  0.00  0.00    +0.002 C 
ENDBRANCH   1  12
TORSDOF 3
ENDMDL
MODEL 4
REMARK VINA RESULT:      -6.7      2.155      4.691
REMARK  Name = 446532
REMARK  3 active torsions:
REMARK  status: ('A' for Active; 'I' for Inactive)
REMARK    1  A    between atoms: C_1  and  C_2
REMARK    2  A    between atoms: C_1  and  N_9
REMARK    3  A    between atoms: C_1  and  C_12
REMARK                            x       y       z     vdW  Elec       q    Type
REMARK                         _______ _______ _______ _____ _____    ______ ____
ROOT
ATOM      1  C   UNL     1      34.982 -18.436 -21.037  0.00  0.00    +0.094 C 
ENDROOT
BRANCH   1   2
ATOM      2  C   UNL     1      34.783 -17.039 -21.589  0.00  0.00    -0.005 C 
ATOM      3  C   UNL     1      34.864 -16.837 -22.954  0.00  0.00    -0.003 C 
ATOM      4  C   UNL     1      34.523 -16.000 -20.713  0.00  0.00    -0.003 C 
ATOM      5  C   UNL     1      34.680 -15.551 -23.463  0.00  0.00    -0.000 C 
ATOM      6  C   UNL     1      34.339 -14.714 -21.222  0.00  0.00    -0.000 C 
ATOM      7  C   UNL     1      34.417 -14.490 -22.596  0.00  0.00    -0.000 C 
ENDBRANCH   1   2
BRANCH   1   9
ATOM      8  O   UNL     1      36.520 -20.359 -19.442  0.00  0.00    -0.265 OA
ATOM      9  N   UNL     1      36.347 -18.872 -21.237  0.00  0.00    -0.295 N 
ATOM     10  C   UNL     1      36.976 -19.785 -20.422  0.00  0.00    +0.300 C 
ATOM     11  H   UNL     1      36.851 -18.494 -21.994  0.00  0.00    +0.150 HD
ENDBRANCH   1   9
BRANCH   1  12
ATOM     12  C   UNL     1      33.975 -19.433 -21.635  0.00  0.00    +0.024 C 
ATOM     13  C   UNL     1      33.070 -20.055 -20.578  0.00  0.00    +0.002 C 
ENDBRANCH   1  12
TORSDOF 3
ENDMDL
MODEL 5
REMARK VINA RESULT:      -6.7      2.235      4.583
REMARK  Name = 446532
REMARK  3 active torsions:
REMARK  status: ('A' for Active; 'I' for Inactive)
REMARK    1  A    between atoms: C_1  and  C_2
REMARK    2  A    between atoms: C_1  and  N_9
REMARK    3  A    between atoms: C_1  and  C_12
REMARK                            x       y       z     vdW  Elec       q    Type
REMARK                         _______ _______ _______ _____ _____    ______ ____
ROOT
ATOM      1  C   UNL     1      34.748 -19.665 -21.493  0.00  0.00    +0.094 C 
ENDROOT
BRANCH   1   2
ATOM      2  C   UNL     1      34.772 -18.712 -22.671  0.00  0.00    -0.005 C 
ATOM      3  C   UNL     1      34.577 -19.211 -23.945  0.00  0.00    -0.003 C 
ATOM      4  C   UNL     1      34.986 -17.365 -22.442  0.00  0.00    -0.003 C 
ATOM      5  C   UNL     1      34.598 -18.334 -25.030  0.00  0.00    -0.000 C 
ATOM      6  C   UNL     1      35.007 -16.487 -23.526  0.00  0.00    -0.000 C 
ATOM      7  C   UNL     1      34.812 -16.972 -24.820  0.00  0.00    -0.000 C 
ENDBRANCH   1   2
BRANCH   1   9
ATOM      8  O   UNL     1      32.951 -21.603 -20.219  0.00  0.00    -0.265 OA
ATOM      9  N   UNL     1      33.605 -19.400 -20.648  0.00  0.00    -0.295 N 
ATOM     10  C   UNL     1      32.824 -20.391 -20.099  0.00  0.00    +0.300 C 
ATOM     11  H   UNL     1      33.373 -18.462 -20.457  0.00  0.00    +0.150 HD
ENDBRANCH   1   9
BRANCH   1  12
ATOM     12  C   UNL     1      36.064 -19.620 -20.698  0.00  0.00    +0.024 C 
ATOM     13  C   UNL     1      36.396 -20.954 -20.042  0.00  0.00    +0.002 C 
ENDBRANCH   1  12
TORSDOF 3
ENDMDL
MODEL 6
REMARK VINA RESULT:      -6.6      2.190      4.554
REMARK  Name = 446532
REMARK  3 active torsions:
REMARK  status: ('A' for Active; 'I' for Inactive)
REMARK    1  A    between atoms: C_1  and  C_2
REMARK    2  A    between atoms: C_1  and  N_9
REMARK    3  A    between atoms: C_1  and  C_12
REMARK                            x       y       z     vdW  Elec       q    Type
REMARK                         _______ _______ _______ _____ _____    ______ ____
ROOT
ATOM      1  C   UNL     1      34.621 -19.730 -20.635  0.00  0.00    +0.094 C 
ENDROOT
BRANCH   1   2
ATOM      2  C   UNL     1      34.760 -18.717 -21.753  0.00  0.00    -0.005 C 
ATOM      3  C   UNL     1      34.840 -17.373 -21.437  0.00  0.00    -0.003 C 
ATOM      4  C   UNL     1      34.806 -19.160 -23.062  0.00  0.00    -0.003 C 
ATOM      5  C   UNL     1      34.969 -16.440 -22.466  0.00  0.00    -0.000 C 
ATOM      6  C   UNL     1      34.935 -18.227 -24.091  0.00  0.00    -0.000 C 
ATOM      7  C   UNL     1      35.017 -16.867 -23.793  0.00  0.00    -0.000 C 
ENDBRANCH   1   2
BRANCH   1   9
ATOM      8  O   UNL     1      36.668 -20.629 -18.735  0.00  0.00    -0.265 OA
ATOM      9  N   UNL     1      35.580 -20.800 -20.798  0.00  0.00    -0.295 N 
ATOM     10  C   UNL     1      36.504 -21.140 -19.835  0.00  0.00    +0.300 C 
ATOM     11  H   UNL     1      35.573 -21.310 -21.640  0.00  0.00    +0.150 HD
ENDBRANCH   1   9
BRANCH   1  12
ATOM     12  C   UNL     1      33.184 -20.268 -20.531  0.00  0.00    +0.024 C 
ATOM     13  C   UNL     1      33.026 -21.302 -19.423  0.00  0.00    +0.002 C 
ENDBRANCH   1  12
TORSDOF 3
ENDMDL
MODEL 7
REMARK VINA RESULT:      -6.4      3.386      5.436
REMARK  Name = 446532
REMARK  3 active torsions:
REMARK  status: ('A' for Active; 'I' for Inactive)
REMARK    1  A    between atoms: C_1  and  C_2
REMARK    2  A    between atoms: C_1  and  N_9
REMARK    3  A    between atoms: C_1  and  C_12
REMARK                            x       y       z     vdW  Elec       q    Type
REMARK                         _______ _______ _______ _____ _____    ______ ____
ROOT
ATOM      1  C   UNL     1      35.579 -21.860 -19.086  0.00  0.00    +0.094 C 
ENDROOT
BRANCH   1   2
ATOM      2  C   UNL     1      35.338 -20.668 -19.990  0.00  0.00    -0.005 C 
ATOM      3  C   UNL     1      34.044 -20.360 -20.368  0.00  0.00    -0.003 C 
ATOM      4  C   UNL     1      36.419 -19.916 -20.415  0.00  0.00    -0.003 C 
ATOM      5  C   UNL     1      33.822 -19.262 -21.200  0.00  0.00    -0.000 C 
ATOM      6  C   UNL     1      36.197 -18.819 -21.247  0.00  0.00    -0.000 C 
ATOM      7  C   UNL     1      34.899 -18.491 -21.639  0.00  0.00    -0.000 C 
ENDBRANCH   1   2
BRANCH   1   9
ATOM      8  O   UNL     1      33.831 -24.202 -19.345  0.00  0.00    -0.265 OA
ATOM      9  N   UNL     1      34.387 -22.171 -18.329  0.00  0.00    -0.295 N 
ATOM     10  C   UNL     1      33.636 -23.306 -18.534  0.00  0.00    +0.300 C 
ATOM     11  H   UNL     1      34.098 -21.538 -17.632  0.00  0.00    +0.150 HD
ENDBRANCH   1   9
BRANCH   1  12
ATOM     12  C   UNL     1      36.793 -21.641 -18.168  0.00  0.00    +0.024 C 
ATOM     13  C   UNL     1      36.575 -22.200 -16.768  0.00  0.00    +0.002 C 
ENDBRANCH   1  12
TORSDOF 3
ENDMDL
MODEL 8
REMARK VINA RESULT:      -6.3      2.507      4.901
REMARK  Name = 446532
REMARK  3 active torsions:
REMARK  status: ('A' for Active; 'I' for Inactive)
REMARK    1  A    between atoms: C_1  and  C_2
REMARK    2  A    between atoms: C_1  and  N_9
REMARK    3  A    between atoms: C_1  and  C_12
REMARK                            x       y       z     vdW  Elec       q    Type
REMARK                         _______ _______ _______ _____ _____    ______ ____
ROOT
ATOM      1  C   UNL     1      35.207 -17.157 -22.858  0.00  0.00    +0.094 C 
ENDROOT
BRANCH   1   2
ATOM      2  C   UNL     1      34.328 -16.045 -22.323  0.00  0.00    -0.005 C 
ATOM      3  C   UNL     1      33.568 -16.273 -21.190  0.00  0.00    -0.003 C 
ATOM      4  C   UNL     1      34.309 -14.827 -22.979  0.00  0.00    -0.003 C 
ATOM      5  C   UNL     1      32.760 -15.248 -20.697  0.00  0.00    -0.000 C 
ATOM      6  C   UNL     1      33.501 -13.803 -22.485  0.00  0.00    -0.000 C 
ATOM      7  C   UNL     1      32.727 -14.013 -21.344  0.00  0.00    -0.000 C 
ENDBRANCH   1   2
BRANCH   1   9
ATOM      8  O   UNL     1      34.968 -16.824 -25.763  0.00  0.00    -0.265 OA
ATOM      9  N   UNL     1      34.471 -17.980 -23.792  0.00  0.00    -0.295 N 
ATOM     10  C   UNL     1      34.426 -17.731 -25.145  0.00  0.00    +0.300 C 
ATOM     11  H   UNL     1      33.977 -18.756 -23.442  0.00  0.00    +0.150 HD
ENDBRANCH   1   9
BRANCH   1  12
ATOM     12  C   UNL     1      35.818 -17.996 -21.723  0.00  0.00    +0.024 C 
ATOM     13  C   UNL     1      35.265 -19.415 -21.682  0.00  0.00    +0.002 C 
ENDBRANCH   1  12
TORSDOF 3
ENDMDL
MODEL 9
REMARK VINA RESULT:      -6.3      3.542      4.959
REMARK  Name = 446532
REMARK  3 active torsions:
REMARK  status: ('A' for Active; 'I' for Inactive)
REMARK    1  A    between atoms: C_1  and  C_2
REMARK    2  A    between atoms: C_1  and  N_9
REMARK    3  A    between atoms: C_1  and  C_12
REMARK                            x       y       z     vdW  Elec       q    Type
REMARK                         _______ _______ _______ _____ _____    ______ ____
ROOT
ATOM      1  C   UNL     1      33.744 -14.795 -24.775  0.00  0.00    +0.094 C 
ENDROOT
BRANCH   1   2
ATOM      2  C   UNL     1      34.287 -16.149 -24.367  0.00  0.00    -0.005 C 
ATOM      3  C   UNL     1      34.927 -16.279 -23.149  0.00  0.00    -0.003 C 
ATOM      4  C   UNL     1      34.126 -17.224 -25.223  0.00  0.00    -0.003 C 
ATOM      5  C   UNL     1      35.426 -17.526 -22.773  0.00  0.00    -0.000 C 
ATOM      6  C   UNL     1      34.625 -18.471 -24.847  0.00  0.00    -0.000 C 
ATOM      7  C   UNL     1      35.275 -18.622 -23.622  0.00  0.00    -0.000 C 
ENDBRANCH   1   2
BRANCH   1   9
ATOM      8  O   UNL     1      33.756 -12.042 -23.760  0.00  0.00    -0.265 OA
ATOM      9  N   UNL     1      32.936 -14.231 -23.716  0.00  0.00    -0.295 N 
ATOM     10  C   UNL     1      33.024 -12.917 -23.317  0.00  0.00    +0.300 C 
ATOM     11  H   UNL     1      32.292 -14.818 -23.257  0.00  0.00    +0.150 HD
ENDBRANCH   1   9
BRANCH   1  12
ATOM     12  C   UNL     1      32.969 -14.868 -26.102  0.00  0.00    +0.024 C 
ATOM     13  C   UNL     1      33.199 -13.646 -26.981  0.00  0.00    +0.002 C 
ENDBRANCH   1  12
TORSDOF 3
ENDMDL
