MODEL 1
REMARK VINA RESULT:      -9.8      0.000      0.000
REMARK  Name = 9896267
REMARK  3 active torsions:
REMARK  status: ('A' for Active; 'I' for Inactive)
REMARK    1  A    between atoms: N_1  and  C_18
REMARK    2  A    between atoms: C_9  and  C_23
REMARK    3  A    between atoms: C_12  and  C_14
REMARK                            x       y       z     vdW  Elec       q    Type
REMARK                         _______ _______ _______ _____ _____    ______ ____
ROOT
ATOM      1  N   UNL     1      33.331 -13.692 -23.701  0.00  0.00    -0.250 N 
ATOM      2  N   UNL     1      32.621 -12.653 -23.212  0.00  0.00    -0.174 NA
ATOM      3  N   UNL     1      34.256 -16.712 -21.785  0.00  0.00    -0.293 N 
ATOM      4  N   UNL     1      34.694 -16.542 -23.929  0.00  0.00    -0.127 NA
ATOM      5  N   UNL     1      35.184 -17.753 -23.458  0.00  0.00    -0.128 NA
ATOM      6  C   UNL     1      33.467 -14.702 -22.806  0.00  0.00    +0.111 A 
ATOM      7  C   UNL     1      32.803 -14.322 -21.662  0.00  0.00    +0.015 A 
ATOM      8  C   UNL     1      32.703 -15.214 -20.469  0.00  0.00    +0.054 C 
ATOM      9  C   UNL     1      32.300 -13.046 -21.971  0.00  0.00    +0.076 A 
ATOM     10  C   UNL     1      34.137 -15.936 -22.909  0.00  0.00    +0.184 A 
ATOM     11  C   UNL     1      33.827 -16.291 -20.457  0.00  0.00    +0.114 C 
ATOM     12  C   UNL     1      34.915 -17.831 -22.170  0.00  0.00    +0.172 A 
ENDROOT
BRANCH  12  14
ATOM     13  S   UNL     1      34.045 -20.013 -20.787  0.00  0.00    -0.083 S 
ATOM     14  C   UNL     1      35.249 -18.921 -21.335  0.00  0.00    +0.065 C 
ATOM     15  C   UNL     1      36.501 -19.261 -20.861  0.00  0.00    +0.010 C 
ATOM     16  C   UNL     1      36.468 -20.427 -20.041  0.00  0.00    +0.008 C 
ATOM     17  C   UNL     1      35.195 -20.937 -19.917  0.00  0.00    +0.036 C 
ENDBRANCH  12  14
BRANCH   1  18
ATOM     18  C   UNL     1      33.840 -13.634 -25.069  0.00  0.00    +0.105 C 
ATOM     19  C   UNL     1      33.957 -12.208 -25.643  0.00  0.00    +0.024 C 
ATOM     20  C   UNL     1      32.986 -14.430 -26.070  0.00  0.00    +0.024 C 
ATOM     21  C   UNL     1      33.029 -12.177 -26.852  0.00  0.00    +0.002 C 
ATOM     22  C   UNL     1      33.038 -13.611 -27.353  0.00  0.00    +0.002 C 
ENDBRANCH   1  18
BRANCH   9  23
ATOM     23  C   UNL     1      31.509 -12.154 -21.106  0.00  0.00    +0.047 C 
ATOM     24  C   UNL     1      31.091 -10.851 -21.798  0.00  0.00    +0.007 C 
ENDBRANCH   9  23
TORSDOF 3
ENDMDL
MODEL 2
REMARK VINA RESULT:      -9.7      1.168      3.512
REMARK  Name = 9896267
REMARK  3 active torsions:
REMARK  status: ('A' for Active; 'I' for Inactive)
REMARK    1  A    between atoms: N_1  and  C_18
REMARK    2  A    between atoms: C_9  and  C_23
REMARK    3  A    between atoms: C_12  and  C_14
REMARK                            x       y       z     vdW  Elec       q    Type
REMARK                         _______ _______ _______ _____ _____    ______ ____
ROOT
ATOM      1  N   UNL     1      33.354 -13.702 -23.500  0.00  0.00    -0.250 N 
ATOM      2  N   UNL     1      33.002 -13.394 -24.766  0.00  0.00    -0.174 NA
ATOM      3  N   UNL     1      34.613 -16.994 -22.395  0.00  0.00    -0.293 N 
ATOM      4  N   UNL     1      34.536 -15.283 -21.023  0.00  0.00    -0.127 NA
ATOM      5  N   UNL     1      35.008 -16.395 -20.339  0.00  0.00    -0.128 NA
ATOM      6  C   UNL     1      33.851 -14.959 -23.385  0.00  0.00    +0.111 A 
ATOM      7  C   UNL     1      33.840 -15.516 -24.643  0.00  0.00    +0.015 A 
ATOM      8  C   UNL     1      34.363 -16.889 -24.908  0.00  0.00    +0.054 C 
ATOM      9  C   UNL     1      33.304 -14.502 -25.457  0.00  0.00    +0.076 A 
ATOM     10  C   UNL     1      34.310 -15.665 -22.256  0.00  0.00    +0.184 A 
ATOM     11  C   UNL     1      34.386 -17.757 -23.617  0.00  0.00    +0.114 C 
ATOM     12  C   UNL     1      35.041 -17.410 -21.180  0.00  0.00    +0.172 A 
ENDROOT
BRANCH  12  14
ATOM     13  S   UNL     1      34.340 -19.980 -20.601  0.00  0.00    -0.083 S 
ATOM     14  C   UNL     1      35.472 -18.717 -20.858  0.00  0.00    +0.065 C 
ATOM     15  C   UNL     1      36.772 -19.159 -20.708  0.00  0.00    +0.010 C 
ATOM     16  C   UNL     1      36.836 -20.544 -20.380  0.00  0.00    +0.008 C 
ATOM     17  C   UNL     1      35.585 -21.113 -20.290  0.00  0.00    +0.036 C 
ENDBRANCH  12  14
BRANCH   1  18
ATOM     18  C   UNL     1      33.187 -12.705 -22.446  0.00  0.00    +0.105 C 
ATOM     19  C   UNL     1      32.002 -12.975 -21.497  0.00  0.00    +0.024 C 
ATOM     20  C   UNL     1      32.989 -11.278 -22.983  0.00  0.00    +0.024 C 
ATOM     21  C   UNL     1      31.073 -11.777 -21.655  0.00  0.00    +0.002 C 
ATOM     22  C   UNL     1      32.009 -10.636 -22.011  0.00  0.00    +0.002 C 
ENDBRANCH   1  18
BRANCH   9  23
ATOM     23  C   UNL     1      33.052 -14.548 -26.908  0.00  0.00    +0.047 C 
ATOM     24  C   UNL     1      33.031 -13.163 -27.564  0.00  0.00    +0.007 C 
ENDBRANCH   9  23
TORSDOF 3
ENDMDL
MODEL 3
REMARK VINA RESULT:      -9.6      2.777      4.535
REMARK  Name = 9896267
REMARK  3 active torsions:
REMARK  status: ('A' for Active; 'I' for Inactive)
REMARK    1  A    between atoms: N_1  and  C_18
REMARK    2  A    between atoms: C_9  and  C_23
REMARK    3  A    between atoms: C_12  and  C_14
REMARK                            x       y       z     vdW  Elec       q    Type
REMARK                         _______ _______ _______ _____ _____    ______ ____
ROOT
ATOM      1  N   UNL     1      32.404 -10.033 -22.702  0.00  0.00    -0.250 N 
ATOM      2  N   UNL     1      31.763  -9.532 -21.624  0.00  0.00    -0.174 NA
ATOM      3  N   UNL     1      33.273 -13.591 -23.184  0.00  0.00    -0.293 N 
ATOM      4  N   UNL     1      33.625 -12.105 -24.761  0.00  0.00    -0.127 NA
ATOM      5  N   UNL     1      34.080 -13.345 -25.192  0.00  0.00    -0.128 NA
ATOM      6  C   UNL     1      32.532 -11.382 -22.656  0.00  0.00    +0.111 A 
ATOM      7  C   UNL     1      31.936 -11.807 -21.490  0.00  0.00    +0.015 A 
ATOM      8  C   UNL     1      31.848 -13.252 -21.125  0.00  0.00    +0.054 C 
ATOM      9  C   UNL     1      31.478 -10.620 -20.892  0.00  0.00    +0.076 A 
ATOM     10  C   UNL     1      33.141 -12.278 -23.556  0.00  0.00    +0.184 A 
ATOM     11  C   UNL     1      32.921 -14.102 -21.865  0.00  0.00    +0.114 C 
ATOM     12  C   UNL     1      33.863 -14.219 -24.228  0.00  0.00    +0.172 A 
ENDROOT
BRANCH  12  14
ATOM     13  S   UNL     1      34.998 -16.369 -22.997  0.00  0.00    -0.083 S 
ATOM     14  C   UNL     1      34.184 -15.593 -24.292  0.00  0.00    +0.065 C 
ATOM     15  C   UNL     1      33.917 -16.471 -25.325  0.00  0.00    +0.010 C 
ATOM     16  C   UNL     1      34.386 -17.788 -25.049  0.00  0.00    +0.008 C 
ATOM     17  C   UNL     1      34.994 -17.872 -23.816  0.00  0.00    +0.036 C 
ENDBRANCH  12  14
BRANCH   1  18
ATOM     18  C   UNL     1      32.855  -9.126 -23.753  0.00  0.00    +0.105 C 
ATOM     19  C   UNL     1      34.382  -8.919 -23.804  0.00  0.00    +0.024 C 
ATOM     20  C   UNL     1      32.236  -7.721 -23.653  0.00  0.00    +0.024 C 
ATOM     21  C   UNL     1      34.601  -7.432 -23.551  0.00  0.00    +0.002 C 
ATOM     22  C   UNL     1      33.345  -6.782 -24.105  0.00  0.00    +0.002 C 
ENDBRANCH   1  18
BRANCH   9  23
ATOM     23  C   UNL     1      30.767 -10.470 -19.611  0.00  0.00    +0.047 C 
ATOM     24  C   UNL     1      31.640 -10.783 -18.391  0.00  0.00    +0.007 C 
ENDBRANCH   9  23
TORSDOF 3
ENDMDL
MODEL 4
REMARK VINA RESULT:      -9.4      7.935     11.664
REMARK  Name = 9896267
REMARK  3 active torsions:
REMARK  status: ('A' for Active; 'I' for Inactive)
REMARK    1  A    between atoms: N_1  and  C_18
REMARK    2  A    between atoms: C_9  and  C_23
REMARK    3  A    between atoms: C_12  and  C_14
REMARK                            x       y       z     vdW  Elec       q    Type
REMARK                         _______ _______ _______ _____ _____    ______ ____
ROOT
ATOM      1  N   UNL     1      31.805 -23.031 -16.500  0.00  0.00    -0.250 N 
ATOM      2  N   UNL     1      31.737 -22.621 -17.784  0.00  0.00    -0.174 NA
ATOM      3  N   UNL     1      34.930 -23.789 -14.682  0.00  0.00    -0.293 N 
ATOM      4  N   UNL     1      32.984 -23.812 -13.666  0.00  0.00    -0.127 NA
ATOM      5  N   UNL     1      33.975 -24.172 -12.762  0.00  0.00    -0.128 NA
ATOM      6  C   UNL     1      33.080 -23.168 -16.060  0.00  0.00    +0.111 A 
ATOM      7  C   UNL     1      33.908 -22.822 -17.102  0.00  0.00    +0.015 A 
ATOM      8  C   UNL     1      35.395 -22.811 -16.965  0.00  0.00    +0.054 C 
ATOM      9  C   UNL     1      33.023 -22.493 -18.143  0.00  0.00    +0.076 A 
ATOM     10  C   UNL     1      33.581 -23.583 -14.810  0.00  0.00    +0.184 A 
ATOM     11  C   UNL     1      35.874 -23.713 -15.791  0.00  0.00    +0.114 C 
ATOM     12  C   UNL     1      35.132 -24.156 -13.395  0.00  0.00    +0.172 A 
ENDROOT
BRANCH  12  14
ATOM     13  S   UNL     1      37.322 -23.237 -12.057  0.00  0.00    -0.083 S 
ATOM     14  C   UNL     1      36.381 -24.460 -12.808  0.00  0.00    +0.065 C 
ATOM     15  C   UNL     1      37.004 -25.691 -12.747  0.00  0.00    +0.010 C 
ATOM     16  C   UNL     1      38.260 -25.628 -12.079  0.00  0.00    +0.008 C 
ATOM     17  C   UNL     1      38.556 -24.352 -11.652  0.00  0.00    +0.036 C 
ENDBRANCH  12  14
BRANCH   1  18
ATOM     18  C   UNL     1      30.571 -23.258 -15.753  0.00  0.00    +0.105 C 
ATOM     19  C   UNL     1      30.065 -24.714 -15.787  0.00  0.00    +0.024 C 
ATOM     20  C   UNL     1      29.398 -22.386 -16.234  0.00  0.00    +0.024 C 
ATOM     21  C   UNL     1      28.694 -24.654 -16.451  0.00  0.00    +0.002 C 
ATOM     22  C   UNL     1      28.173 -23.276 -16.083  0.00  0.00    +0.002 C 
ENDBRANCH   1  18
BRANCH   9  23
ATOM     23  C   UNL     1      33.357 -22.055 -19.510  0.00  0.00    +0.047 C 
ATOM     24  C   UNL     1      32.923 -20.616 -19.810  0.00  0.00    +0.007 C 
ENDBRANCH   9  23
TORSDOF 3
ENDMDL
MODEL 5
REMARK VINA RESULT:      -9.3      6.735     12.093
REMARK  Name = 9896267
REMARK  3 active torsions:
REMARK  status: ('A' for Active; 'I' for Inactive)
REMARK    1  A    between atoms: N_1  and  C_18
REMARK    2  A    between atoms: C_9  and  C_23
REMARK    3  A    between atoms: C_12  and  C_14
REMARK                            x       y       z     vdW  Elec       q    Type
REMARK                         _______ _______ _______ _____ _____    ______ ____
ROOT
ATOM      1  N   UNL     1      34.705 -24.469 -14.512  0.00  0.00    -0.250 N 
ATOM      2  N   UNL     1      33.740 -24.995 -13.728  0.00  0.00    -0.174 NA
ATOM      3  N   UNL     1      34.100 -22.462 -17.554  0.00  0.00    -0.293 N 
ATOM      4  N   UNL     1      36.128 -22.759 -16.766  0.00  0.00    -0.127 NA
ATOM      5  N   UNL     1      36.196 -22.006 -17.931  0.00  0.00    -0.128 NA
ATOM      6  C   UNL     1      34.206 -23.716 -15.524  0.00  0.00    +0.111 A 
ATOM      7  C   UNL     1      32.836 -23.730 -15.402  0.00  0.00    +0.015 A 
ATOM      8  C   UNL     1      31.949 -22.963 -16.327  0.00  0.00    +0.054 C 
ATOM      9  C   UNL     1      32.604 -24.537 -14.275  0.00  0.00    +0.076 A 
ATOM     10  C   UNL     1      34.860 -23.017 -16.557  0.00  0.00    +0.184 A 
ATOM     11  C   UNL     1      32.659 -22.641 -17.674  0.00  0.00    +0.114 C 
ATOM     12  C   UNL     1      34.970 -21.845 -18.388  0.00  0.00    +0.172 A 
ENDROOT
BRANCH  12  14
ATOM     13  S   UNL     1      35.841 -20.506 -20.597  0.00  0.00    -0.083 S 
ATOM     14  C   UNL     1      34.627 -21.126 -19.555  0.00  0.00    +0.065 C 
ATOM     15  C   UNL     1      33.360 -20.826 -20.015  0.00  0.00    +0.010 C 
ATOM     16  C   UNL     1      33.388 -20.083 -21.230  0.00  0.00    +0.008 C 
ATOM     17  C   UNL     1      34.675 -19.839 -21.658  0.00  0.00    +0.036 C 
ENDBRANCH  12  14
BRANCH   1  18
ATOM     18  C   UNL     1      36.107 -24.737 -14.203  0.00  0.00    +0.105 C 
ATOM     19  C   UNL     1      36.722 -25.905 -14.999  0.00  0.00    +0.024 C 
ATOM     20  C   UNL     1      36.352 -25.055 -12.718  0.00  0.00    +0.024 C 
ATOM     21  C   UNL     1      37.138 -26.935 -13.955  0.00  0.00    +0.002 C 
ATOM     22  C   UNL     1      37.459 -26.100 -12.728  0.00  0.00    +0.002 C 
ENDBRANCH   1  18
BRANCH   9  23
ATOM     23  C   UNL     1      31.308 -24.910 -13.681  0.00  0.00    +0.047 C 
ATOM     24  C   UNL     1      30.282 -25.386 -14.715  0.00  0.00    +0.007 C 
ENDBRANCH   9  23
TORSDOF 3
ENDMDL
MODEL 6
REMARK VINA RESULT:      -8.8      3.715      6.882
REMARK  Name = 9896267
REMARK  3 active torsions:
REMARK  status: ('A' for Active; 'I' for Inactive)
REMARK    1  A    between atoms: N_1  and  C_18
REMARK    2  A    between atoms: C_9  and  C_23
REMARK    3  A    between atoms: C_12  and  C_14
REMARK                            x       y       z     vdW  Elec       q    Type
REMARK                         _______ _______ _______ _____ _____    ______ ____
ROOT
ATOM      1  N   UNL     1      33.029  -8.141 -23.116  0.00  0.00    -0.250 N 
ATOM      2  N   UNL     1      33.578  -7.037 -23.665  0.00  0.00    -0.174 NA
ATOM      3  N   UNL     1      33.681 -11.604 -24.225  0.00  0.00    -0.293 N 
ATOM      4  N   UNL     1      32.456 -11.184 -22.452  0.00  0.00    -0.127 NA
ATOM      5  N   UNL     1      32.501 -12.557 -22.661  0.00  0.00    -0.128 NA
ATOM      6  C   UNL     1      33.495  -9.289 -23.668  0.00  0.00    +0.111 A 
ATOM      7  C   UNL     1      34.413  -8.933 -24.630  0.00  0.00    +0.015 A 
ATOM      8  C   UNL     1      35.170  -9.949 -25.420  0.00  0.00    +0.054 C 
ATOM      9  C   UNL     1      34.423  -7.527 -24.584  0.00  0.00    +0.076 A 
ATOM     10  C   UNL     1      33.175 -10.634 -23.400  0.00  0.00    +0.184 A 
ATOM     11  C   UNL     1      34.446 -11.326 -25.434  0.00  0.00    +0.114 C 
ATOM     12  C   UNL     1      33.237 -12.784 -23.732  0.00  0.00    +0.172 A 
ENDROOT
BRANCH  12  14
ATOM     13  S   UNL     1      34.473 -15.188 -23.382  0.00  0.00    -0.083 S 
ATOM     14  C   UNL     1      33.524 -14.062 -24.262  0.00  0.00    +0.065 C 
ATOM     15  C   UNL     1      33.121 -14.576 -25.479  0.00  0.00    +0.010 C 
ATOM     16  C   UNL     1      33.596 -15.903 -25.688  0.00  0.00    +0.008 C 
ATOM     17  C   UNL     1      34.345 -16.358 -24.626  0.00  0.00    +0.036 C 
ENDBRANCH  12  14
BRANCH   1  18
ATOM     18  C   UNL     1      32.056  -7.998 -22.037  0.00  0.00    +0.105 C 
ATOM     19  C   UNL     1      31.203  -6.716 -22.115  0.00  0.00    +0.024 C 
ATOM     20  C   UNL     1      32.694  -8.003 -20.637  0.00  0.00    +0.024 C 
ATOM     21  C   UNL     1      31.516  -5.940 -20.841  0.00  0.00    +0.002 C 
ATOM     22  C   UNL     1      31.854  -7.023 -19.830  0.00  0.00    +0.002 C 
ENDBRANCH   1  18
BRANCH   9  23
ATOM     23  C   UNL     1      35.220  -6.602 -25.408  0.00  0.00    +0.047 C 
ATOM     24  C   UNL     1      34.366  -5.615 -26.211  0.00  0.00    +0.007 C 
ENDBRANCH   9  23
TORSDOF 3
ENDMDL
MODEL 7
REMARK VINA RESULT:      -8.7      6.332     11.199
REMARK  Name = 9896267
REMARK  3 active torsions:
REMARK  status: ('A' for Active; 'I' for Inactive)
REMARK    1  A    between atoms: N_1  and  C_18
REMARK    2  A    between atoms: C_9  and  C_23
REMARK    3  A    between atoms: C_12  and  C_14
REMARK                            x       y       z     vdW  Elec       q    Type
REMARK                         _______ _______ _______ _____ _____    ______ ____
ROOT
ATOM      1  N   UNL     1      32.890 -24.062 -15.488  0.00  0.00    -0.250 N 
ATOM      2  N   UNL     1      33.409 -24.571 -14.351  0.00  0.00    -0.174 NA
ATOM      3  N   UNL     1      34.761 -22.040 -17.949  0.00  0.00    -0.293 N 
ATOM      4  N   UNL     1      32.690 -22.665 -18.323  0.00  0.00    -0.127 NA
ATOM      5  N   UNL     1      33.131 -21.886 -19.385  0.00  0.00    -0.128 NA
ATOM      6  C   UNL     1      33.814 -23.420 -16.245  0.00  0.00    +0.111 A 
ATOM      7  C   UNL     1      35.017 -23.516 -15.584  0.00  0.00    +0.015 A 
ATOM      8  C   UNL     1      36.281 -22.957 -16.150  0.00  0.00    +0.054 C 
ATOM      9  C   UNL     1      34.706 -24.237 -14.418  0.00  0.00    +0.076 A 
ATOM     10  C   UNL     1      33.687 -22.746 -17.475  0.00  0.00    +0.184 A 
ATOM     11  C   UNL     1      36.000 -21.848 -17.205  0.00  0.00    +0.114 C 
ATOM     12  C   UNL     1      34.373 -21.519 -19.137  0.00  0.00    +0.172 A 
ENDROOT
BRANCH  12  14
ATOM     13  S   UNL     1      34.449 -19.655 -21.124  0.00  0.00    -0.083 S 
ATOM     14  C   UNL     1      35.169 -20.722 -19.990  0.00  0.00    +0.065 C 
ATOM     15  C   UNL     1      36.548 -20.673 -20.048  0.00  0.00    +0.010 C 
ATOM     16  C   UNL     1      37.014 -19.753 -21.031  0.00  0.00    +0.008 C 
ATOM     17  C   UNL     1      35.978 -19.131 -21.691  0.00  0.00    +0.036 C 
ENDBRANCH  12  14
BRANCH   1  18
ATOM     18  C   UNL     1      31.472 -24.253 -15.778  0.00  0.00    +0.105 C 
ATOM     19  C   UNL     1      30.636 -22.958 -15.749  0.00  0.00    +0.024 C 
ATOM     20  C   UNL     1      30.779 -25.231 -14.813  0.00  0.00    +0.024 C 
ATOM     21  C   UNL     1      29.604 -23.163 -14.646  0.00  0.00    +0.002 C 
ATOM     22  C   UNL     1      29.378 -24.665 -14.635  0.00  0.00    +0.002 C 
ENDBRANCH   1  18
BRANCH   9  23
ATOM     23  C   UNL     1      35.617 -24.628 -13.328  0.00  0.00    +0.047 C 
ATOM     24  C   UNL     1      35.370 -23.859 -12.026  0.00  0.00    +0.007 C 
ENDBRANCH   9  23
TORSDOF 3
ENDMDL
MODEL 8
REMARK VINA RESULT:      -8.4      9.455     12.773
REMARK  Name = 9896267
REMARK  3 active torsions:
REMARK  status: ('A' for Active; 'I' for Inactive)
REMARK    1  A    between atoms: N_1  and  C_18
REMARK    2  A    between atoms: C_9  and  C_23
REMARK    3  A    between atoms: C_12  and  C_14
REMARK                            x       y       z     vdW  Elec       q    Type
REMARK                         _______ _______ _______ _____ _____    ______ ____
ROOT
ATOM      1  N   UNL     1      35.966 -23.277 -14.319  0.00  0.00    -0.250 N 
ATOM      2  N   UNL     1      37.018 -22.871 -15.062  0.00  0.00    -0.174 NA
ATOM      3  N   UNL     1      32.470 -23.423 -15.501  0.00  0.00    -0.293 N 
ATOM      4  N   UNL     1      33.037 -24.175 -13.518  0.00  0.00    -0.127 NA
ATOM      5  N   UNL     1      31.665 -24.314 -13.684  0.00  0.00    -0.128 NA
ATOM      6  C   UNL     1      34.806 -23.301 -15.021  0.00  0.00    +0.111 A 
ATOM      7  C   UNL     1      35.100 -22.901 -16.304  0.00  0.00    +0.015 A 
ATOM      8  C   UNL     1      34.063 -22.850 -17.377  0.00  0.00    +0.054 C 
ATOM      9  C   UNL     1      36.483 -22.647 -16.271  0.00  0.00    +0.076 A 
ATOM     10  C   UNL     1      33.499 -23.642 -14.623  0.00  0.00    +0.184 A 
ATOM     11  C   UNL     1      32.626 -22.755 -16.787  0.00  0.00    +0.114 C 
ATOM     12  C   UNL     1      31.347 -23.853 -14.877  0.00  0.00    +0.172 A 
ENDROOT
BRANCH  12  14
ATOM     13  S   UNL     1      29.063 -22.426 -15.297  0.00  0.00    -0.083 S 
ATOM     14  C   UNL     1      30.042 -23.830 -15.417  0.00  0.00    +0.065 C 
ATOM     15  C   UNL     1      29.388 -24.852 -16.077  0.00  0.00    +0.010 C 
ATOM     16  C   UNL     1      28.076 -24.477 -16.486  0.00  0.00    +0.008 C 
ATOM     17  C   UNL     1      27.770 -23.184 -16.125  0.00  0.00    +0.036 C 
ENDBRANCH  12  14
BRANCH   1  18
ATOM     18  C   UNL     1      36.174 -23.641 -12.920  0.00  0.00    +0.105 C 
ATOM     19  C   UNL     1      37.335 -22.893 -12.233  0.00  0.00    +0.024 C 
ATOM     20  C   UNL     1      36.452 -25.140 -12.716  0.00  0.00    +0.024 C 
ATOM     21  C   UNL     1      38.326 -23.973 -11.817  0.00  0.00    +0.002 C 
ATOM     22  C   UNL     1      37.454 -25.192 -11.571  0.00  0.00    +0.002 C 
ENDBRANCH   1  18
BRANCH   9  23
ATOM     23  C   UNL     1      37.341 -22.178 -17.373  0.00  0.00    +0.047 C 
ATOM     24  C   UNL     1      36.567 -21.456 -18.481  0.00  0.00    +0.007 C 
ENDBRANCH   9  23
TORSDOF 3
ENDMDL
MODEL 9
REMARK VINA RESULT:      -8.2      3.712      7.352
REMARK  Name = 9896267
REMARK  3 active torsions:
REMARK  status: ('A' for Active; 'I' for Inactive)
REMARK    1  A    between atoms: N_1  and  C_18
REMARK    2  A    between atoms: C_9  and  C_23
REMARK    3  A    between atoms: C_12  and  C_14
REMARK                            x       y       z     vdW  Elec       q    Type
REMARK                         _______ _______ _______ _____ _____    ______ ____
ROOT
ATOM      1  N   UNL     1      33.390 -14.453 -23.088  0.00  0.00    -0.250 N 
ATOM      2  N   UNL     1      33.060 -15.423 -22.208  0.00  0.00    -0.174 NA
ATOM      3  N   UNL     1      32.466 -10.892 -22.759  0.00  0.00    -0.293 N 
ATOM      4  N   UNL     1      33.782 -11.585 -24.373  0.00  0.00    -0.127 NA
ATOM      5  N   UNL     1      33.569 -10.220 -24.512  0.00  0.00    -0.128 NA
ATOM      6  C   UNL     1      32.986 -13.222 -22.688  0.00  0.00    +0.111 A 
ATOM      7  C   UNL     1      32.362 -13.376 -21.471  0.00  0.00    +0.015 A 
ATOM      8  C   UNL     1      31.823 -12.214 -20.703  0.00  0.00    +0.054 C 
ATOM      9  C   UNL     1      32.437 -14.758 -21.224  0.00  0.00    +0.076 A 
ATOM     10  C   UNL     1      33.114 -11.966 -23.311  0.00  0.00    +0.184 A 
ATOM     11  C   UNL     1      31.558 -10.987 -21.622  0.00  0.00    +0.114 C 
ATOM     12  C   UNL     1      32.774  -9.827 -23.537  0.00  0.00    +0.172 A 
ENDROOT
BRANCH  12  14
ATOM     13  S   UNL     1      33.119  -7.471 -22.211  0.00  0.00    -0.083 S 
ATOM     14  C   UNL     1      32.332  -8.501 -23.335  0.00  0.00    +0.065 C 
ATOM     15  C   UNL     1      31.277  -7.863 -23.958  0.00  0.00    +0.010 C 
ATOM     16  C   UNL     1      31.116  -6.520 -23.508  0.00  0.00    +0.008 C 
ATOM     17  C   UNL     1      32.052  -6.178 -22.557  0.00  0.00    +0.036 C 
ENDBRANCH  12  14
BRANCH   1  18
ATOM     18  C   UNL     1      34.119 -14.805 -24.304  0.00  0.00    +0.105 C 
ATOM     19  C   UNL     1      33.233 -14.954 -25.556  0.00  0.00    +0.024 C 
ATOM     20  C   UNL     1      34.911 -16.118 -24.180  0.00  0.00    +0.024 C 
ATOM     21  C   UNL     1      33.405 -16.400 -26.007  0.00  0.00    +0.002 C 
ATOM     22  C   UNL     1      34.812 -16.755 -25.559  0.00  0.00    +0.002 C 
ENDBRANCH   1  18
BRANCH   9  23
ATOM     23  C   UNL     1      31.918 -15.497 -20.060  0.00  0.00    +0.047 C 
ATOM     24  C   UNL     1      31.652 -16.978 -20.352  0.00  0.00    +0.007 C 
ENDBRANCH   9  23
TORSDOF 3
ENDMDL
