MODEL 1
REMARK VINA RESULT:      -9.6      0.000      0.000
REMARK  Name = 657041
REMARK  14 active torsions:
REMARK  status: ('A' for Active; 'I' for Inactive)
REMARK    1  A    between atoms: C_1  and  C_4
REMARK    2  A    between atoms: C_2  and  C_15
REMARK    3  A    between atoms: C_4  and  C_5
REMARK    4  A    between atoms: C_5  and  C_7
REMARK    5  A    between atoms: C_6  and  C_9
REMARK    6  A    between atoms: C_9  and  C_10
REMARK    7  A    between atoms: C_10  and  C_11
REMARK    8  A    between atoms: C_15  and  S_16
REMARK    9  A    between atoms: S_16  and  P_17
REMARK   10  A    between atoms: P_17  and  O_19
REMARK   11  A    between atoms: P_17  and  O_21
REMARK   12  A    between atoms: O_21  and  P_22
REMARK   13  A    between atoms: P_22  and  O_24
REMARK   14  A    between atoms: P_22  and  O_26
REMARK                            x       y       z     vdW  Elec       q    Type
REMARK                         _______ _______ _______ _____ _____    ______ ____
ROOT
ATOM      1  C   UNL     1      32.970 -23.505 -15.539  0.00  0.00    -0.047 C 
ATOM      2  C   UNL     1      34.268 -23.775 -15.296  0.00  0.00    -0.022 C 
ATOM      3  C   UNL     1      31.944 -23.684 -14.450  0.00  0.00    +0.026 C 
ENDROOT
BRANCH   1   4
ATOM      4  C   UNL     1      32.429 -23.070 -16.884  0.00  0.00    +0.026 C 
BRANCH   4   5
ATOM      5  C   UNL     1      33.494 -22.959 -17.982  0.00  0.00    +0.030 C 
BRANCH   5   7
ATOM      6  C   UNL     1      34.103 -21.161 -19.705  0.00  0.00    -0.048 C 
ATOM      7  C   UNL     1      33.216 -21.857 -18.965  0.00  0.00    -0.034 C 
ATOM      8  C   UNL     1      35.575 -21.463 -19.594  0.00  0.00    +0.026 C 
BRANCH   6   9
ATOM      9  C   UNL     1      33.736 -20.089 -20.708  0.00  0.00    +0.026 C 
BRANCH   9  10
ATOM     10  C   UNL     1      34.939 -19.421 -21.385  0.00  0.00    +0.030 C 
BRANCH  10  11
ATOM     11  C   UNL     1      34.743 -19.204 -22.860  0.00  0.00    -0.034 C 
ATOM     12  C   UNL     1      34.834 -18.046 -23.539  0.00  0.00    -0.048 C 
ATOM     13  C   UNL     1      35.200 -16.720 -22.936  0.00  0.00    +0.026 C 
ATOM     14  C   UNL     1      34.577 -18.007 -25.023  0.00  0.00    +0.026 C 
ENDBRANCH  10  11
ENDBRANCH   9  10
ENDBRANCH   6   9
ENDBRANCH   5   7
ENDBRANCH   4   5
ENDBRANCH   1   4
BRANCH   2  15
ATOM     15  C   UNL     1      34.871 -24.257 -14.011  0.00  0.00    +0.094 C 
BRANCH  15  16
ATOM     16  S   UNL     1      36.555 -23.608 -13.831  0.00  0.00    -0.026 S 
BRANCH  16  17
ATOM     17  P   UNL     1      37.539 -24.984 -12.599  0.00  0.00    +0.398 P 
ATOM     18  O   UNL     1      37.542 -24.532 -11.163  0.00  0.00    -0.246 OA
BRANCH  17  19
ATOM     19  O   UNL     1      36.852 -26.443 -12.784  0.00  0.00    -0.316 OA
ATOM     20  H   UNL     1      37.100 -26.811 -13.646  0.00  0.00    +0.221 HD
ENDBRANCH  17  19
BRANCH  17  21
ATOM     21  O   UNL     1      39.030 -25.250 -13.176  0.00  0.00    -0.200 OA
BRANCH  21  22
ATOM     22  P   UNL     1      39.540 -25.700 -14.642  0.00  0.00    +0.480 P 
ATOM     23  O   UNL     1      40.816 -26.488 -14.659  0.00  0.00    -0.227 OA
BRANCH  22  24
ATOM     24  O   UNL     1      38.255 -26.455 -15.269  0.00  0.00    -0.302 OA
ATOM     25  H   UNL     1      37.515 -26.409 -14.644  0.00  0.00    +0.222 HD
ENDBRANCH  22  24
BRANCH  22  26
ATOM     26  O   UNL     1      39.590 -24.309 -15.464  0.00  0.00    -0.302 OA
ATOM     27  H   UNL     1      40.200 -23.695 -15.024  0.00  0.00    +0.222 HD
ENDBRANCH  22  26
ENDBRANCH  21  22
ENDBRANCH  17  21
ENDBRANCH  16  17
ENDBRANCH  15  16
ENDBRANCH   2  15
TORSDOF 14
ENDMDL
MODEL 2
REMARK VINA RESULT:      -9.5      1.462      2.221
REMARK  Name = 657041
REMARK  14 active torsions:
REMARK  status: ('A' for Active; 'I' for Inactive)
REMARK    1  A    between atoms: C_1  and  C_4
REMARK    2  A    between atoms: C_2  and  C_15
REMARK    3  A    between atoms: C_4  and  C_5
REMARK    4  A    between atoms: C_5  and  C_7
REMARK    5  A    between atoms: C_6  and  C_9
REMARK    6  A    between atoms: C_9  and  C_10
REMARK    7  A    between atoms: C_10  and  C_11
REMARK    8  A    between atoms: C_15  and  S_16
REMARK    9  A    between atoms: S_16  and  P_17
REMARK   10  A    between atoms: P_17  and  O_19
REMARK   11  A    between atoms: P_17  and  O_21
REMARK   12  A    between atoms: O_21  and  P_22
REMARK   13  A    between atoms: P_22  and  O_24
REMARK   14  A    between atoms: P_22  and  O_26
REMARK                            x       y       z     vdW  Elec       q    Type
REMARK                         _______ _______ _______ _____ _____    ______ ____
ROOT
ATOM      1  C   UNL     1      35.647 -22.375 -17.162  0.00  0.00    -0.047 C 
ATOM      2  C   UNL     1      36.107 -22.511 -15.901  0.00  0.00    -0.022 C 
ATOM      3  C   UNL     1      34.276 -22.884 -17.524  0.00  0.00    +0.026 C 
ENDROOT
BRANCH   1   4
ATOM      4  C   UNL     1      36.445 -21.775 -18.299  0.00  0.00    +0.026 C 
BRANCH   4   5
ATOM      5  C   UNL     1      35.742 -21.838 -19.660  0.00  0.00    +0.030 C 
BRANCH   5   7
ATOM      6  C   UNL     1      34.312 -19.900 -20.540  0.00  0.00    -0.048 C 
ATOM      7  C   UNL     1      35.496 -20.481 -20.260  0.00  0.00    -0.034 C 
ATOM      8  C   UNL     1      33.027 -20.631 -20.247  0.00  0.00    +0.026 C 
BRANCH   6   9
ATOM      9  C   UNL     1      34.148 -18.507 -21.108  0.00  0.00    +0.026 C 
BRANCH   9  10
ATOM     10  C   UNL     1      35.428 -17.919 -21.715  0.00  0.00    +0.030 C 
BRANCH  10  11
ATOM     11  C   UNL     1      35.183 -17.155 -22.987  0.00  0.00    -0.034 C 
ATOM     12  C   UNL     1      34.868 -17.655 -24.196  0.00  0.00    -0.048 C 
ATOM     13  C   UNL     1      34.657 -19.111 -24.499  0.00  0.00    +0.026 C 
ATOM     14  C   UNL     1      34.684 -16.739 -25.377  0.00  0.00    +0.026 C 
ENDBRANCH  10  11
ENDBRANCH   9  10
ENDBRANCH   6   9
ENDBRANCH   5   7
ENDBRANCH   4   5
ENDBRANCH   1   4
BRANCH   2  15
ATOM     15  C   UNL     1      35.400 -23.137 -14.738  0.00  0.00    +0.094 C 
BRANCH  15  16
ATOM     16  S   UNL     1      36.081 -24.786 -14.409  0.00  0.00    -0.026 S 
BRANCH  16  17
ATOM     17  P   UNL     1      37.808 -24.444 -13.278  0.00  0.00    +0.398 P 
ATOM     18  O   UNL     1      37.783 -23.083 -12.635  0.00  0.00    -0.246 OA
BRANCH  17  19
ATOM     19  O   UNL     1      37.971 -25.637 -12.190  0.00  0.00    -0.316 OA
ATOM     20  H   UNL     1      37.094 -25.915 -11.881  0.00  0.00    +0.221 HD
ENDBRANCH  17  19
BRANCH  17  21
ATOM     21  O   UNL     1      39.113 -24.672 -14.212  0.00  0.00    -0.200 OA
BRANCH  21  22
ATOM     22  P   UNL     1      39.915 -26.017 -14.611  0.00  0.00    +0.480 P 
ATOM     23  O   UNL     1      41.058 -26.371 -13.707  0.00  0.00    -0.227 OA
BRANCH  22  24
ATOM     24  O   UNL     1      38.748 -27.131 -14.715  0.00  0.00    -0.302 OA
ATOM     25  H   UNL     1      38.199 -27.101 -13.916  0.00  0.00    +0.222 HD
ENDBRANCH  22  24
BRANCH  22  26
ATOM     26  O   UNL     1      40.324 -25.764 -16.155  0.00  0.00    -0.302 OA
ATOM     27  H   UNL     1      39.564 -25.400 -16.635  0.00  0.00    +0.222 HD
ENDBRANCH  22  26
ENDBRANCH  21  22
ENDBRANCH  17  21
ENDBRANCH  16  17
ENDBRANCH  15  16
ENDBRANCH   2  15
TORSDOF 14
ENDMDL
MODEL 3
REMARK VINA RESULT:      -9.4      1.650      2.535
REMARK  Name = 657041
REMARK  14 active torsions:
REMARK  status: ('A' for Active; 'I' for Inactive)
REMARK    1  A    between atoms: C_1  and  C_4
REMARK    2  A    between atoms: C_2  and  C_15
REMARK    3  A    between atoms: C_4  and  C_5
REMARK    4  A    between atoms: C_5  and  C_7
REMARK    5  A    between atoms: C_6  and  C_9
REMARK    6  A    between atoms: C_9  and  C_10
REMARK    7  A    between atoms: C_10  and  C_11
REMARK    8  A    between atoms: C_15  and  S_16
REMARK    9  A    between atoms: S_16  and  P_17
REMARK   10  A    between atoms: P_17  and  O_19
REMARK   11  A    between atoms: P_17  and  O_21
REMARK   12  A    between atoms: O_21  and  P_22
REMARK   13  A    between atoms: P_22  and  O_24
REMARK   14  A    between atoms: P_22  and  O_26
REMARK                            x       y       z     vdW  Elec       q    Type
REMARK                         _______ _______ _______ _____ _____    ______ ____
ROOT
ATOM      1  C   UNL     1      35.646 -22.521 -16.906  0.00  0.00    -0.047 C 
ATOM      2  C   UNL     1      36.368 -22.817 -15.807  0.00  0.00    -0.022 C 
ATOM      3  C   UNL     1      34.240 -23.043 -17.051  0.00  0.00    +0.026 C 
ENDROOT
BRANCH   1   4
ATOM      4  C   UNL     1      36.170 -21.716 -18.077  0.00  0.00    +0.026 C 
BRANCH   4   5
ATOM      5  C   UNL     1      35.469 -22.016 -19.407  0.00  0.00    +0.030 C 
BRANCH   5   7
ATOM      6  C   UNL     1      34.372 -20.100 -20.712  0.00  0.00    -0.048 C 
ATOM      7  C   UNL     1      35.439 -20.835 -20.337  0.00  0.00    -0.034 C 
ATOM      8  C   UNL     1      33.003 -20.436 -20.178  0.00  0.00    +0.026 C 
BRANCH   6   9
ATOM      9  C   UNL     1      34.433 -18.894 -21.624  0.00  0.00    +0.026 C 
BRANCH   9  10
ATOM     10  C   UNL     1      35.095 -17.661 -20.996  0.00  0.00    +0.030 C 
BRANCH  10  11
ATOM     11  C   UNL     1      35.016 -16.439 -21.869  0.00  0.00    -0.034 C 
ATOM     12  C   UNL     1      34.253 -15.347 -21.684  0.00  0.00    -0.048 C 
ATOM     13  C   UNL     1      33.339 -15.121 -20.513  0.00  0.00    +0.026 C 
ATOM     14  C   UNL     1      34.279 -14.218 -22.681  0.00  0.00    +0.026 C 
ENDBRANCH  10  11
ENDBRANCH   9  10
ENDBRANCH   6   9
ENDBRANCH   5   7
ENDBRANCH   4   5
ENDBRANCH   1   4
BRANCH   2  15
ATOM     15  C   UNL     1      35.939 -23.647 -14.634  0.00  0.00    +0.094 C 
BRANCH  15  16
ATOM     16  S   UNL     1      37.268 -23.718 -13.402  0.00  0.00    -0.026 S 
BRANCH  16  17
ATOM     17  P   UNL     1      37.560 -25.757 -13.036  0.00  0.00    +0.398 P 
ATOM     18  O   UNL     1      37.002 -26.160 -11.697  0.00  0.00    -0.246 OA
BRANCH  17  19
ATOM     19  O   UNL     1      36.912 -26.611 -14.255  0.00  0.00    -0.316 OA
ATOM     20  H   UNL     1      37.304 -27.498 -14.273  0.00  0.00    +0.221 HD
ENDBRANCH  17  19
BRANCH  17  21
ATOM     21  O   UNL     1      39.135 -26.109 -13.191  0.00  0.00    -0.200 OA
BRANCH  21  22
ATOM     22  P   UNL     1      40.184 -25.795 -14.378  0.00  0.00    +0.480 P 
ATOM     23  O   UNL     1      40.916 -24.492 -14.255  0.00  0.00    -0.227 OA
BRANCH  22  24
ATOM     24  O   UNL     1      41.121 -27.112 -14.408  0.00  0.00    -0.302 OA
ATOM     25  H   UNL     1      40.716 -27.785 -14.977  0.00  0.00    +0.222 HD
ENDBRANCH  22  24
BRANCH  22  26
ATOM     26  O   UNL     1      39.290 -25.947 -15.717  0.00  0.00    -0.302 OA
ATOM     27  H   UNL     1      39.843 -26.287 -16.439  0.00  0.00    +0.222 HD
ENDBRANCH  22  26
ENDBRANCH  21  22
ENDBRANCH  17  21
ENDBRANCH  16  17
ENDBRANCH  15  16
ENDBRANCH   2  15
TORSDOF 14
ENDMDL
MODEL 4
REMARK VINA RESULT:      -9.4      2.076      3.883
REMARK  Name = 657041
REMARK  14 active torsions:
REMARK  status: ('A' for Active; 'I' for Inactive)
REMARK    1  A    between atoms: C_1  and  C_4
REMARK    2  A    between atoms: C_2  and  C_15
REMARK    3  A    between atoms: C_4  and  C_5
REMARK    4  A    between atoms: C_5  and  C_7
REMARK    5  A    between atoms: C_6  and  C_9
REMARK    6  A    between atoms: C_9  and  C_10
REMARK    7  A    between atoms: C_10  and  C_11
REMARK    8  A    between atoms: C_15  and  S_16
REMARK    9  A    between atoms: S_16  and  P_17
REMARK   10  A    between atoms: P_17  and  O_19
REMARK   11  A    between atoms: P_17  and  O_21
REMARK   12  A    between atoms: O_21  and  P_22
REMARK   13  A    between atoms: P_22  and  O_24
REMARK   14  A    between atoms: P_22  and  O_26
REMARK                            x       y       z     vdW  Elec       q    Type
REMARK                         _______ _______ _______ _____ _____    ______ ____
ROOT
ATOM      1  C   UNL     1      36.539 -22.182 -17.037  0.00  0.00    -0.047 C 
ATOM      2  C   UNL     1      35.498 -22.896 -16.562  0.00  0.00    -0.022 C 
ATOM      3  C   UNL     1      37.657 -21.773 -16.114  0.00  0.00    +0.026 C 
ENDROOT
BRANCH   1   4
ATOM      4  C   UNL     1      36.654 -21.694 -18.465  0.00  0.00    +0.026 C 
BRANCH   4   5
ATOM      5  C   UNL     1      35.313 -21.579 -19.199  0.00  0.00    +0.030 C 
BRANCH   5   7
ATOM      6  C   UNL     1      34.286 -19.906 -20.848  0.00  0.00    -0.048 C 
ATOM      7  C   UNL     1      35.332 -20.565 -20.308  0.00  0.00    -0.034 C 
ATOM      8  C   UNL     1      32.892 -20.158 -20.334  0.00  0.00    +0.026 C 
BRANCH   6   9
ATOM      9  C   UNL     1      34.395 -18.863 -21.939  0.00  0.00    +0.026 C 
BRANCH   9  10
ATOM     10  C   UNL     1      35.205 -17.621 -21.546  0.00  0.00    +0.030 C 
BRANCH  10  11
ATOM     11  C   UNL     1      34.357 -16.520 -20.971  0.00  0.00    -0.034 C 
ATOM     12  C   UNL     1      34.028 -15.351 -21.548  0.00  0.00    -0.048 C 
ATOM     13  C   UNL     1      34.425 -14.933 -22.935  0.00  0.00    +0.026 C 
ATOM     14  C   UNL     1      33.186 -14.344 -20.810  0.00  0.00    +0.026 C 
ENDBRANCH  10  11
ENDBRANCH   9  10
ENDBRANCH   6   9
ENDBRANCH   5   7
ENDBRANCH   4   5
ENDBRANCH   1   4
BRANCH   2  15
ATOM     15  C   UNL     1      35.287 -23.371 -15.156  0.00  0.00    +0.094 C 
BRANCH  15  16
ATOM     16  S   UNL     1      35.565 -25.160 -15.054  0.00  0.00    -0.026 S 
BRANCH  16  17
ATOM     17  P   UNL     1      37.039 -25.399 -13.588  0.00  0.00    +0.398 P 
ATOM     18  O   UNL     1      37.854 -26.641 -13.826  0.00  0.00    -0.246 OA
BRANCH  17  19
ATOM     19  O   UNL     1      37.955 -24.060 -13.538  0.00  0.00    -0.316 OA
ATOM     20  H   UNL     1      37.386 -23.276 -13.582  0.00  0.00    +0.221 HD
ENDBRANCH  17  19
BRANCH  17  21
ATOM     21  O   UNL     1      36.345 -25.374 -12.123  0.00  0.00    -0.200 OA
BRANCH  21  22
ATOM     22  P   UNL     1      35.930 -24.144 -11.161  0.00  0.00    +0.480 P 
ATOM     23  O   UNL     1      37.022 -23.154 -10.884  0.00  0.00    -0.227 OA
BRANCH  22  24
ATOM     24  O   UNL     1      34.614 -23.537 -11.878  0.00  0.00    -0.302 OA
ATOM     25  H   UNL     1      34.061 -23.093 -11.217  0.00  0.00    +0.222 HD
ENDBRANCH  22  24
BRANCH  22  26
ATOM     26  O   UNL     1      35.332 -24.879  -9.851  0.00  0.00    -0.302 OA
ATOM     27  H   UNL     1      34.409 -25.131 -10.015  0.00  0.00    +0.222 HD
ENDBRANCH  22  26
ENDBRANCH  21  22
ENDBRANCH  17  21
ENDBRANCH  16  17
ENDBRANCH  15  16
ENDBRANCH   2  15
TORSDOF 14
ENDMDL
MODEL 5
REMARK VINA RESULT:      -9.1      2.188      4.129
REMARK  Name = 657041
REMARK  14 active torsions:
REMARK  status: ('A' for Active; 'I' for Inactive)
REMARK    1  A    between atoms: C_1  and  C_4
REMARK    2  A    between atoms: C_2  and  C_15
REMARK    3  A    between atoms: C_4  and  C_5
REMARK    4  A    between atoms: C_5  and  C_7
REMARK    5  A    between atoms: C_6  and  C_9
REMARK    6  A    between atoms: C_9  and  C_10
REMARK    7  A    between atoms: C_10  and  C_11
REMARK    8  A    between atoms: C_15  and  S_16
REMARK    9  A    between atoms: S_16  and  P_17
REMARK   10  A    between atoms: P_17  and  O_19
REMARK   11  A    between atoms: P_17  and  O_21
REMARK   12  A    between atoms: O_21  and  P_22
REMARK   13  A    between atoms: P_22  and  O_24
REMARK   14  A    between atoms: P_22  and  O_26
REMARK                            x       y       z     vdW  Elec       q    Type
REMARK                         _______ _______ _______ _____ _____    ______ ____
ROOT
ATOM      1  C   UNL     1      35.280 -21.439 -19.262  0.00  0.00    -0.047 C 
ATOM      2  C   UNL     1      36.145 -21.671 -18.255  0.00  0.00    -0.022 C 
ATOM      3  C   UNL     1      33.908 -22.061 -19.239  0.00  0.00    +0.026 C 
ENDROOT
BRANCH   1   4
ATOM      4  C   UNL     1      35.605 -20.613 -20.489  0.00  0.00    +0.026 C 
BRANCH   4   5
ATOM      5  C   UNL     1      34.374 -20.164 -21.286  0.00  0.00    +0.030 C 
BRANCH   5   7
ATOM      6  C   UNL     1      34.639 -18.320 -23.047  0.00  0.00    -0.048 C 
ATOM      7  C   UNL     1      34.475 -18.748 -21.779  0.00  0.00    -0.034 C 
ATOM      8  C   UNL     1      34.743 -19.319 -24.171  0.00  0.00    +0.026 C 
BRANCH   6   9
ATOM      9  C   UNL     1      34.690 -16.867 -23.467  0.00  0.00    +0.026 C 
BRANCH   9  10
ATOM     10  C   UNL     1      35.079 -15.899 -22.343  0.00  0.00    +0.030 C 
BRANCH  10  11
ATOM     11  C   UNL     1      34.177 -14.698 -22.258  0.00  0.00    -0.034 C 
ATOM     12  C   UNL     1      33.037 -14.577 -21.555  0.00  0.00    -0.048 C 
ATOM     13  C   UNL     1      32.456 -15.639 -20.664  0.00  0.00    +0.026 C 
ATOM     14  C   UNL     1      32.238 -13.301 -21.606  0.00  0.00    +0.026 C 
ENDBRANCH  10  11
ENDBRANCH   9  10
ENDBRANCH   6   9
ENDBRANCH   5   7
ENDBRANCH   4   5
ENDBRANCH   1   4
BRANCH   2  15
ATOM     15  C   UNL     1      35.917 -22.515 -17.037  0.00  0.00    +0.094 C 
BRANCH  15  16
ATOM     16  S   UNL     1      37.387 -22.487 -15.975  0.00  0.00    -0.026 S 
BRANCH  16  17
ATOM     17  P   UNL     1      36.880 -23.656 -14.315  0.00  0.00    +0.398 P 
ATOM     18  O   UNL     1      38.027 -23.760 -13.347  0.00  0.00    -0.246 OA
BRANCH  17  19
ATOM     19  O   UNL     1      35.545 -23.043 -13.626  0.00  0.00    -0.316 OA
ATOM     20  H   UNL     1      35.628 -22.079 -13.561  0.00  0.00    +0.221 HD
ENDBRANCH  17  19
BRANCH  17  21
ATOM     21  O   UNL     1      36.352 -25.103 -14.821  0.00  0.00    -0.200 OA
BRANCH  21  22
ATOM     22  P   UNL     1      37.129 -26.502 -15.043  0.00  0.00    +0.480 P 
ATOM     23  O   UNL     1      36.621 -27.341 -16.178  0.00  0.00    -0.227 OA
BRANCH  22  24
ATOM     24  O   UNL     1      38.679 -26.056 -15.155  0.00  0.00    -0.302 OA
ATOM     25  H   UNL     1      39.205 -26.548 -14.507  0.00  0.00    +0.222 HD
ENDBRANCH  22  24
BRANCH  22  26
ATOM     26  O   UNL     1      37.051 -27.208 -13.590  0.00  0.00    -0.302 OA
ATOM     27  H   UNL     1      36.530 -26.652 -12.988  0.00  0.00    +0.222 HD
ENDBRANCH  22  26
ENDBRANCH  21  22
ENDBRANCH  17  21
ENDBRANCH  16  17
ENDBRANCH  15  16
ENDBRANCH   2  15
TORSDOF 14
ENDMDL
MODEL 6
REMARK VINA RESULT:      -9.1      2.186      3.957
REMARK  Name = 657041
REMARK  14 active torsions:
REMARK  status: ('A' for Active; 'I' for Inactive)
REMARK    1  A    between atoms: C_1  and  C_4
REMARK    2  A    between atoms: C_2  and  C_15
REMARK    3  A    between atoms: C_4  and  C_5
REMARK    4  A    between atoms: C_5  and  C_7
REMARK    5  A    between atoms: C_6  and  C_9
REMARK    6  A    between atoms: C_9  and  C_10
REMARK    7  A    between atoms: C_10  and  C_11
REMARK    8  A    between atoms: C_15  and  S_16
REMARK    9  A    between atoms: S_16  and  P_17
REMARK   10  A    between atoms: P_17  and  O_19
REMARK   11  A    between atoms: P_17  and  O_21
REMARK   12  A    between atoms: O_21  and  P_22
REMARK   13  A    between atoms: P_22  and  O_24
REMARK   14  A    between atoms: P_22  and  O_26
REMARK                            x       y       z     vdW  Elec       q    Type
REMARK                         _______ _______ _______ _____ _____    ______ ____
ROOT
ATOM      1  C   UNL     1      35.209 -21.362 -19.337  0.00  0.00    -0.047 C 
ATOM      2  C   UNL     1      36.163 -21.639 -18.425  0.00  0.00    -0.022 C 
ATOM      3  C   UNL     1      33.819 -21.916 -19.167  0.00  0.00    +0.026 C 
ENDROOT
BRANCH   1   4
ATOM      4  C   UNL     1      35.444 -20.550 -20.593  0.00  0.00    +0.026 C 
BRANCH   4   5
ATOM      5  C   UNL     1      34.183 -19.880 -21.151  0.00  0.00    +0.030 C 
BRANCH   5   7
ATOM      6  C   UNL     1      34.781 -18.244 -23.032  0.00  0.00    -0.048 C 
ATOM      7  C   UNL     1      34.451 -18.530 -21.756  0.00  0.00    -0.034 C 
ATOM      8  C   UNL     1      34.919 -19.355 -24.041  0.00  0.00    +0.026 C 
BRANCH   6   9
ATOM      9  C   UNL     1      34.994 -16.847 -23.574  0.00  0.00    +0.026 C 
BRANCH   9  10
ATOM     10  C   UNL     1      34.684 -15.728 -22.572  0.00  0.00    +0.030 C 
BRANCH  10  11
ATOM     11  C   UNL     1      34.416 -14.403 -23.230  0.00  0.00    -0.034 C 
ATOM     12  C   UNL     1      33.424 -13.536 -22.956  0.00  0.00    -0.048 C 
ATOM     13  C   UNL     1      32.392 -13.719 -21.880  0.00  0.00    +0.026 C 
ATOM     14  C   UNL     1      33.288 -12.257 -23.740  0.00  0.00    +0.026 C 
ENDBRANCH  10  11
ENDBRANCH   9  10
ENDBRANCH   6   9
ENDBRANCH   5   7
ENDBRANCH   4   5
ENDBRANCH   1   4
BRANCH   2  15
ATOM     15  C   UNL     1      36.022 -22.474 -17.187  0.00  0.00    +0.094 C 
BRANCH  15  16
ATOM     16  S   UNL     1      37.473 -22.255 -16.121  0.00  0.00    -0.026 S 
BRANCH  16  17
ATOM     17  P   UNL     1      37.492 -23.938 -14.878  0.00  0.00    +0.398 P 
ATOM     18  O   UNL     1      36.635 -23.730 -13.658  0.00  0.00    -0.246 OA
BRANCH  17  19
ATOM     19  O   UNL     1      37.033 -25.235 -15.739  0.00  0.00    -0.316 OA
ATOM     20  H   UNL     1      36.129 -25.486 -15.490  0.00  0.00    +0.221 HD
ENDBRANCH  17  19
BRANCH  17  21
ATOM     21  O   UNL     1      39.025 -24.316 -14.511  0.00  0.00    -0.200 OA
BRANCH  21  22
ATOM     22  P   UNL     1      39.844 -25.701 -14.652  0.00  0.00    +0.480 P 
ATOM     23  O   UNL     1      41.059 -25.815 -13.781  0.00  0.00    -0.227 OA
BRANCH  22  24
ATOM     24  O   UNL     1      38.713 -26.830 -14.411  0.00  0.00    -0.302 OA
ATOM     25  H   UNL     1      38.056 -26.501 -13.778  0.00  0.00    +0.222 HD
ENDBRANCH  22  24
BRANCH  22  26
ATOM     26  O   UNL     1      40.136 -25.803 -16.239  0.00  0.00    -0.302 OA
ATOM     27  H   UNL     1      40.154 -26.736 -16.505  0.00  0.00    +0.222 HD
ENDBRANCH  22  26
ENDBRANCH  21  22
ENDBRANCH  17  21
ENDBRANCH  16  17
ENDBRANCH  15  16
ENDBRANCH   2  15
TORSDOF 14
ENDMDL
MODEL 7
REMARK VINA RESULT:      -9.0      2.058      3.564
REMARK  Name = 657041
REMARK  14 active torsions:
REMARK  status: ('A' for Active; 'I' for Inactive)
REMARK    1  A    between atoms: C_1  and  C_4
REMARK    2  A    between atoms: C_2  and  C_15
REMARK    3  A    between atoms: C_4  and  C_5
REMARK    4  A    between atoms: C_5  and  C_7
REMARK    5  A    between atoms: C_6  and  C_9
REMARK    6  A    between atoms: C_9  and  C_10
REMARK    7  A    between atoms: C_10  and  C_11
REMARK    8  A    between atoms: C_15  and  S_16
REMARK    9  A    between atoms: S_16  and  P_17
REMARK   10  A    between atoms: P_17  and  O_19
REMARK   11  A    between atoms: P_17  and  O_21
REMARK   12  A    between atoms: O_21  and  P_22
REMARK   13  A    between atoms: P_22  and  O_24
REMARK   14  A    between atoms: P_22  and  O_26
REMARK                            x       y       z     vdW  Elec       q    Type
REMARK                         _______ _______ _______ _____ _____    ______ ____
ROOT
ATOM      1  C   UNL     1      33.925 -21.966 -18.858  0.00  0.00    -0.047 C 
ATOM      2  C   UNL     1      33.282 -22.780 -17.997  0.00  0.00    -0.022 C 
ATOM      3  C   UNL     1      35.431 -21.946 -18.898  0.00  0.00    +0.026 C 
ENDROOT
BRANCH   1   4
ATOM      4  C   UNL     1      33.231 -20.995 -19.790  0.00  0.00    +0.026 C 
BRANCH   4   5
ATOM      5  C   UNL     1      34.186 -20.182 -20.673  0.00  0.00    +0.030 C 
BRANCH   5   7
ATOM      6  C   UNL     1      34.418 -17.752 -21.456  0.00  0.00    -0.048 C 
ATOM      7  C   UNL     1      33.739 -18.761 -20.873  0.00  0.00    -0.034 C 
ATOM      8  C   UNL     1      35.802 -17.993 -22.002  0.00  0.00    +0.026 C 
BRANCH   6   9
ATOM      9  C   UNL     1      33.878 -16.352 -21.656  0.00  0.00    +0.026 C 
BRANCH   9  10
ATOM     10  C   UNL     1      34.702 -15.491 -22.621  0.00  0.00    +0.030 C 
BRANCH  10  11
ATOM     11  C   UNL     1      33.938 -15.086 -23.852  0.00  0.00    -0.034 C 
ATOM     12  C   UNL     1      33.826 -15.764 -25.008  0.00  0.00    -0.048 C 
ATOM     13  C   UNL     1      34.428 -17.114 -25.278  0.00  0.00    +0.026 C 
ATOM     14  C   UNL     1      33.037 -15.192 -26.157  0.00  0.00    +0.026 C 
ENDBRANCH  10  11
ENDBRANCH   9  10
ENDBRANCH   6   9
ENDBRANCH   5   7
ENDBRANCH   4   5
ENDBRANCH   1   4
BRANCH   2  15
ATOM     15  C   UNL     1      33.897 -23.728 -17.012  0.00  0.00    +0.094 C 
BRANCH  15  16
ATOM     16  S   UNL     1      33.643 -23.121 -15.322  0.00  0.00    -0.026 S 
BRANCH  16  17
ATOM     17  P   UNL     1      35.034 -24.162 -14.156  0.00  0.00    +0.398 P 
ATOM     18  O   UNL     1      36.194 -23.283 -13.771  0.00  0.00    -0.246 OA
BRANCH  17  19
ATOM     19  O   UNL     1      34.278 -24.785 -12.863  0.00  0.00    -0.316 OA
ATOM     20  H   UNL     1      33.644 -25.460 -13.153  0.00  0.00    +0.221 HD
ENDBRANCH  17  19
BRANCH  17  21
ATOM     21  O   UNL     1      35.496 -25.502 -14.942  0.00  0.00    -0.200 OA
BRANCH  21  22
ATOM     22  P   UNL     1      36.895 -26.309 -14.939  0.00  0.00    +0.480 P 
ATOM     23  O   UNL     1      37.208 -27.039 -13.667  0.00  0.00    -0.227 OA
BRANCH  22  24
ATOM     24  O   UNL     1      36.794 -27.238 -16.259  0.00  0.00    -0.302 OA
ATOM     25  H   UNL     1      37.107 -28.131 -16.051  0.00  0.00    +0.222 HD
ENDBRANCH  22  24
BRANCH  22  26
ATOM     26  O   UNL     1      37.978 -25.185 -15.360  0.00  0.00    -0.302 OA
ATOM     27  H   UNL     1      38.072 -25.172 -16.326  0.00  0.00    +0.222 HD
ENDBRANCH  22  26
ENDBRANCH  21  22
ENDBRANCH  17  21
ENDBRANCH  16  17
ENDBRANCH  15  16
ENDBRANCH   2  15
TORSDOF 14
ENDMDL
MODEL 8
REMARK VINA RESULT:      -8.9      1.790      3.063
REMARK  Name = 657041
REMARK  14 active torsions:
REMARK  status: ('A' for Active; 'I' for Inactive)
REMARK    1  A    between atoms: C_1  and  C_4
REMARK    2  A    between atoms: C_2  and  C_15
REMARK    3  A    between atoms: C_4  and  C_5
REMARK    4  A    between atoms: C_5  and  C_7
REMARK    5  A    between atoms: C_6  and  C_9
REMARK    6  A    between atoms: C_9  and  C_10
REMARK    7  A    between atoms: C_10  and  C_11
REMARK    8  A    between atoms: C_15  and  S_16
REMARK    9  A    between atoms: S_16  and  P_17
REMARK   10  A    between atoms: P_17  and  O_19
REMARK   11  A    between atoms: P_17  and  O_21
REMARK   12  A    between atoms: O_21  and  P_22
REMARK   13  A    between atoms: P_22  and  O_24
REMARK   14  A    between atoms: P_22  and  O_26
REMARK                            x       y       z     vdW  Elec       q    Type
REMARK                         _______ _______ _______ _____ _____    ______ ____
ROOT
ATOM      1  C   UNL     1      34.853 -22.151 -18.613  0.00  0.00    -0.047 C 
ATOM      2  C   UNL     1      34.456 -22.713 -17.453  0.00  0.00    -0.022 C 
ATOM      3  C   UNL     1      36.268 -21.658 -18.769  0.00  0.00    +0.026 C 
ENDROOT
BRANCH   1   4
ATOM      4  C   UNL     1      33.943 -21.920 -19.801  0.00  0.00    +0.026 C 
BRANCH   4   5
ATOM      5  C   UNL     1      33.368 -20.500 -19.883  0.00  0.00    +0.030 C 
BRANCH   5   7
ATOM      6  C   UNL     1      34.549 -19.254 -21.787  0.00  0.00    -0.048 C 
ATOM      7  C   UNL     1      33.489 -19.893 -21.253  0.00  0.00    -0.034 C 
ATOM      8  C   UNL     1      35.810 -19.085 -20.979  0.00  0.00    +0.026 C 
BRANCH   6   9
ATOM      9  C   UNL     1      34.605 -18.706 -23.196  0.00  0.00    +0.026 C 
BRANCH   9  10
ATOM     10  C   UNL     1      35.329 -17.359 -23.320  0.00  0.00    +0.030 C 
BRANCH  10  11
ATOM     11  C   UNL     1      34.394 -16.182 -23.308  0.00  0.00    -0.034 C 
ATOM     12  C   UNL     1      34.023 -15.440 -22.248  0.00  0.00    -0.048 C 
ATOM     13  C   UNL     1      34.522 -15.632 -20.844  0.00  0.00    +0.026 C 
ATOM     14  C   UNL     1      33.048 -14.304 -22.415  0.00  0.00    +0.026 C 
ENDBRANCH  10  11
ENDBRANCH   9  10
ENDBRANCH   6   9
ENDBRANCH   5   7
ENDBRANCH   4   5
ENDBRANCH   1   4
BRANCH   2  15
ATOM     15  C   UNL     1      35.280 -22.929 -16.219  0.00  0.00    +0.094 C 
BRANCH  15  16
ATOM     16  S   UNL     1      34.221 -23.471 -14.851  0.00  0.00    -0.026 S 
BRANCH  16  17
ATOM     17  P   UNL     1      35.538 -24.227 -13.412  0.00  0.00    +0.398 P 
ATOM     18  O   UNL     1      36.484 -23.165 -12.920  0.00  0.00    -0.246 OA
BRANCH  17  19
ATOM     19  O   UNL     1      34.678 -24.893 -12.206  0.00  0.00    -0.316 OA
ATOM     20  H   UNL     1      34.494 -25.822 -12.415  0.00  0.00    +0.221 HD
ENDBRANCH  17  19
BRANCH  17  21
ATOM     21  O   UNL     1      36.307 -25.520 -14.016  0.00  0.00    -0.200 OA
BRANCH  21  22
ATOM     22  P   UNL     1      37.858 -25.751 -14.404  0.00  0.00    +0.480 P 
ATOM     23  O   UNL     1      38.765 -26.060 -13.250  0.00  0.00    -0.227 OA
BRANCH  22  24
ATOM     24  O   UNL     1      37.791 -26.888 -15.551  0.00  0.00    -0.302 OA
ATOM     25  H   UNL     1      37.805 -26.467 -16.425  0.00  0.00    +0.222 HD
ENDBRANCH  22  24
BRANCH  22  26
ATOM     26  O   UNL     1      38.241 -24.414 -15.229  0.00  0.00    -0.302 OA
ATOM     27  H   UNL     1      39.207 -24.316 -15.255  0.00  0.00    +0.222 HD
ENDBRANCH  22  26
ENDBRANCH  21  22
ENDBRANCH  17  21
ENDBRANCH  16  17
ENDBRANCH  15  16
ENDBRANCH   2  15
TORSDOF 14
ENDMDL
MODEL 9
REMARK VINA RESULT:      -8.9      2.152      4.424
REMARK  Name = 657041
REMARK  14 active torsions:
REMARK  status: ('A' for Active; 'I' for Inactive)
REMARK    1  A    between atoms: C_1  and  C_4
REMARK    2  A    between atoms: C_2  and  C_15
REMARK    3  A    between atoms: C_4  and  C_5
REMARK    4  A    between atoms: C_5  and  C_7
REMARK    5  A    between atoms: C_6  and  C_9
REMARK    6  A    between atoms: C_9  and  C_10
REMARK    7  A    between atoms: C_10  and  C_11
REMARK    8  A    between atoms: C_15  and  S_16
REMARK    9  A    between atoms: S_16  and  P_17
REMARK   10  A    between atoms: P_17  and  O_19
REMARK   11  A    between atoms: P_17  and  O_21
REMARK   12  A    between atoms: O_21  and  P_22
REMARK   13  A    between atoms: P_22  and  O_24
REMARK   14  A    between atoms: P_22  and  O_26
REMARK                            x       y       z     vdW  Elec       q    Type
REMARK                         _______ _______ _______ _____ _____    ______ ____
ROOT
ATOM      1  C   UNL     1      35.258 -21.304 -19.363  0.00  0.00    -0.047 C 
ATOM      2  C   UNL     1      36.141 -21.571 -18.380  0.00  0.00    -0.022 C 
ATOM      3  C   UNL     1      33.867 -21.881 -19.306  0.00  0.00    +0.026 C 
ENDROOT
BRANCH   1   4
ATOM      4  C   UNL     1      35.578 -20.483 -20.594  0.00  0.00    +0.026 C 
BRANCH   4   5
ATOM      5  C   UNL     1      34.342 -19.965 -21.340  0.00  0.00    +0.030 C 
BRANCH   5   7
ATOM      6  C   UNL     1      34.692 -18.249 -23.212  0.00  0.00    -0.048 C 
ATOM      7  C   UNL     1      34.535 -18.591 -21.917  0.00  0.00    -0.034 C 
ATOM      8  C   UNL     1      34.685 -19.315 -24.278  0.00  0.00    +0.026 C 
BRANCH   6   9
ATOM      9  C   UNL     1      34.840 -16.830 -23.718  0.00  0.00    +0.026 C 
BRANCH   9  10
ATOM     10  C   UNL     1      35.075 -15.789 -22.616  0.00  0.00    +0.030 C 
BRANCH  10  11
ATOM     11  C   UNL     1      34.126 -14.626 -22.689  0.00  0.00    -0.034 C 
ATOM     12  C   UNL     1      32.998 -14.441 -21.978  0.00  0.00    -0.048 C 
ATOM     13  C   UNL     1      32.485 -15.373 -20.918  0.00  0.00    +0.026 C 
ATOM     14  C   UNL     1      32.145 -13.220 -22.201  0.00  0.00    +0.026 C 
ENDBRANCH  10  11
ENDBRANCH   9  10
ENDBRANCH   6   9
ENDBRANCH   5   7
ENDBRANCH   4   5
ENDBRANCH   1   4
BRANCH   2  15
ATOM     15  C   UNL     1      35.917 -22.415 -17.161  0.00  0.00    +0.094 C 
BRANCH  15  16
ATOM     16  S   UNL     1      37.410 -22.431 -16.131  0.00  0.00    -0.026 S 
BRANCH  16  17
ATOM     17  P   UNL     1      37.253 -24.168 -14.975  0.00  0.00    +0.398 P 
ATOM     18  O   UNL     1      36.069 -24.999 -15.390  0.00  0.00    -0.246 OA
BRANCH  17  19
ATOM     19  O   UNL     1      38.648 -24.992 -15.068  0.00  0.00    -0.316 OA
ATOM     20  H   UNL     1      39.389 -24.395 -14.880  0.00  0.00    +0.221 HD
ENDBRANCH  17  19
BRANCH  17  21
ATOM     21  O   UNL     1      37.216 -23.764 -13.405  0.00  0.00    -0.200 OA
BRANCH  21  22
ATOM     22  P   UNL     1      36.863 -24.633 -12.090  0.00  0.00    +0.480 P 
ATOM     23  O   UNL     1      37.049 -23.919 -10.784  0.00  0.00    -0.227 OA
BRANCH  22  24
ATOM     24  O   UNL     1      35.362 -25.158 -12.380  0.00  0.00    -0.302 OA
ATOM     25  H   UNL     1      35.047 -25.674 -11.622  0.00  0.00    +0.222 HD
ENDBRANCH  22  24
BRANCH  22  26
ATOM     26  O   UNL     1      37.762 -25.965 -12.269  0.00  0.00    -0.302 OA
ATOM     27  H   UNL     1      38.689 -25.713 -12.406  0.00  0.00    +0.222 HD
ENDBRANCH  22  26
ENDBRANCH  21  22
ENDBRANCH  17  21
ENDBRANCH  16  17
ENDBRANCH  15  16
ENDBRANCH   2  15
TORSDOF 14
ENDMDL
