MODEL 1
REMARK VINA RESULT:      -7.2      0.000      0.000
REMARK  Name = 5463858
REMARK  3 active torsions:
REMARK  status: ('A' for Active; 'I' for Inactive)
REMARK    1  A    between atoms: C_4  and  O_21
REMARK    2  A    between atoms: C_10  and  O_23
REMARK    3  A    between atoms: C_18  and  O_25
REMARK                            x       y       z     vdW  Elec       q    Type
REMARK                         _______ _______ _______ _____ _____    ______ ____
ROOT
ATOM      1  O   UNL     1      31.099 -10.952 -22.234  0.00  0.00    -0.474 OA
ATOM      2  N   UNL     1      32.135  -6.203 -24.030  0.00  0.00    +0.389 N 
ATOM      3  C   UNL     1      31.585  -8.595 -22.479  0.00  0.00    +0.079 C 
ATOM      4  C   UNL     1      32.218  -7.344 -21.853  0.00  0.00    +0.078 C 
ATOM      5  C   UNL     1      33.076  -6.673 -22.978  0.00  0.00    -0.028 C 
ATOM      6  C   UNL     1      30.980  -9.659 -21.539  0.00  0.00    +0.198 C 
ATOM      7  C   UNL     1      30.624  -8.169 -23.617  0.00  0.00    -0.013 C 
ATOM      8  C   UNL     1      32.629  -9.473 -23.075  0.00  0.00    +0.016 C 
ATOM      9  C   UNL     1      32.989  -7.666 -20.564  0.00  0.00    +0.028 C 
ATOM     10  C   UNL     1      31.633  -9.766 -20.132  0.00  0.00    +0.151 C 
ATOM     11  C   UNL     1      34.219  -7.613 -23.502  0.00  0.00    +0.008 C 
ATOM     12  C   UNL     1      32.083  -8.417 -19.574  0.00  0.00    +0.035 C 
ATOM     13  C   UNL     1      31.319  -7.256 -24.647  0.00  0.00    -0.077 C 
ATOM     14  C   UNL     1      33.829  -9.063 -23.623  0.00  0.00    -0.025 C 
ATOM     15  C   UNL     1      32.243 -10.796 -22.988  0.00  0.00    +0.168 C 
ATOM     16  C   UNL     1      32.760  -5.351 -25.036  0.00  0.00    -0.100 C 
ATOM     17  C   UNL     1      34.635 -10.056 -24.176  0.00  0.00    -0.001 C 
ATOM     18  C   UNL     1      33.015 -11.791 -23.543  0.00  0.00    +0.167 C 
ATOM     19  C   UNL     1      34.220 -11.407 -24.152  0.00  0.00    +0.039 C 
ATOM     20  H   UNL     1      31.480  -5.620 -23.508  0.00  0.00    -0.080 HD
ENDROOT
BRANCH   4  21
ATOM     21  O   UNL     1      31.194  -6.423 -21.436  0.00  0.00    -0.388 OA
ATOM     22  H   UNL     1      30.645  -6.185 -22.199  0.00  0.00    +0.210 HD
ENDBRANCH   4  21
BRANCH  10  23
ATOM     23  O   UNL     1      32.784 -10.614 -20.136  0.00  0.00    -0.381 OA
ATOM     24  H   UNL     1      33.397 -10.325 -20.831  0.00  0.00    +0.210 HD
ENDBRANCH  10  23
BRANCH  18  25
ATOM     25  O   UNL     1      32.655 -13.095 -23.476  0.00  0.00    -0.503 OA
ATOM     26  H   UNL     1      32.183 -13.487 -24.184  0.00  0.00    +0.292 HD
ENDBRANCH  18  25
TORSDOF 3
ENDMDL
MODEL 2
REMARK VINA RESULT:      -6.4     16.623     18.550
REMARK  Name = 5463858
REMARK  3 active torsions:
REMARK  status: ('A' for Active; 'I' for Inactive)
REMARK    1  A    between atoms: C_4  and  O_21
REMARK    2  A    between atoms: C_10  and  O_23
REMARK    3  A    between atoms: C_18  and  O_25
REMARK                            x       y       z     vdW  Elec       q    Type
REMARK                         _______ _______ _______ _____ _____    ______ ____
ROOT
ATOM      1  O   UNL     1      38.204 -26.563 -13.371  0.00  0.00    -0.474 OA
ATOM      2  N   UNL     1      34.299 -23.991 -15.605  0.00  0.00    +0.389 N 
ATOM      3  C   UNL     1      36.261 -25.200 -13.839  0.00  0.00    +0.079 C 
ATOM      4  C   UNL     1      35.394 -24.011 -13.403  0.00  0.00    +0.078 C 
ATOM      5  C   UNL     1      35.129 -23.161 -14.691  0.00  0.00    -0.028 C 
ATOM      6  C   UNL     1      36.986 -26.018 -12.748  0.00  0.00    +0.198 C 
ATOM      7  C   UNL     1      35.462 -26.081 -14.832  0.00  0.00    -0.013 C 
ATOM      8  C   UNL     1      37.488 -24.730 -14.539  0.00  0.00    +0.016 C 
ATOM      9  C   UNL     1      36.020 -23.231 -12.237  0.00  0.00    +0.028 C 
ATOM     10  C   UNL     1      37.369 -25.235 -11.462  0.00  0.00    +0.151 C 
ATOM     11  C   UNL     1      36.454 -22.616 -15.332  0.00  0.00    +0.008 C 
ATOM     12  C   UNL     1      36.336 -24.180 -11.068  0.00  0.00    +0.035 C 
ATOM     13  C   UNL     1      34.911 -25.261 -16.015  0.00  0.00    -0.077 C 
ATOM     14  C   UNL     1      37.609 -23.582 -15.297  0.00  0.00    -0.025 C 
ATOM     15  C   UNL     1      38.531 -25.605 -14.308  0.00  0.00    +0.168 C 
ATOM     16  C   UNL     1      33.775 -23.255 -16.750  0.00  0.00    -0.100 C 
ATOM     17  C   UNL     1      38.842 -23.365 -15.909  0.00  0.00    -0.001 C 
ATOM     18  C   UNL     1      39.751 -25.419 -14.916  0.00  0.00    +0.167 C 
ATOM     19  C   UNL     1      39.897 -24.288 -15.734  0.00  0.00    +0.039 C 
ATOM     20  H   UNL     1      33.502 -24.247 -15.023  0.00  0.00    -0.080 HD
ENDROOT
BRANCH   4  21
ATOM     21  O   UNL     1      34.133 -24.476 -12.885  0.00  0.00    -0.388 OA
ATOM     22  H   UNL     1      34.243 -24.739 -11.958  0.00  0.00    +0.210 HD
ENDBRANCH   4  21
BRANCH  10  23
ATOM     23  O   UNL     1      38.619 -24.554 -11.597  0.00  0.00    -0.381 OA
ATOM     24  H   UNL     1      38.853 -24.491 -12.537  0.00  0.00    +0.210 HD
ENDBRANCH  10  23
BRANCH  18  25
ATOM     25  O   UNL     1      40.788 -26.267 -14.710  0.00  0.00    -0.503 OA
ATOM     26  H   UNL     1      40.759 -26.877 -13.999  0.00  0.00    +0.292 HD
ENDBRANCH  18  25
TORSDOF 3
ENDMDL
MODEL 3
REMARK VINA RESULT:      -5.7     16.296     18.534
REMARK  Name = 5463858
REMARK  3 active torsions:
REMARK  status: ('A' for Active; 'I' for Inactive)
REMARK    1  A    between atoms: C_4  and  O_21
REMARK    2  A    between atoms: C_10  and  O_23
REMARK    3  A    between atoms: C_18  and  O_25
REMARK                            x       y       z     vdW  Elec       q    Type
REMARK                         _______ _______ _______ _____ _____    ______ ____
ROOT
ATOM      1  O   UNL     1      38.544 -23.730 -14.185  0.00  0.00    -0.474 OA
ATOM      2  N   UNL     1      33.472 -23.454 -15.208  0.00  0.00    +0.389 N 
ATOM      3  C   UNL     1      36.273 -24.153 -14.903  0.00  0.00    +0.079 C 
ATOM      4  C   UNL     1      35.197 -25.207 -15.197  0.00  0.00    +0.078 C 
ATOM      5  C   UNL     1      33.884 -24.701 -14.510  0.00  0.00    -0.028 C 
ATOM      6  C   UNL     1      37.752 -24.531 -15.133  0.00  0.00    +0.198 C 
ATOM      7  C   UNL     1      35.875 -22.813 -15.570  0.00  0.00    -0.013 C 
ATOM      8  C   UNL     1      36.389 -23.911 -13.438  0.00  0.00    +0.016 C 
ATOM      9  C   UNL     1      35.636 -26.619 -14.780  0.00  0.00    +0.028 C 
ATOM     10  C   UNL     1      38.099 -26.035 -14.955  0.00  0.00    +0.151 C 
ATOM     11  C   UNL     1      34.039 -24.554 -12.955  0.00  0.00    +0.008 C 
ATOM     12  C   UNL     1      36.987 -26.970 -15.427  0.00  0.00    +0.035 C 
ATOM     13  C   UNL     1      34.456 -22.366 -15.165  0.00  0.00    -0.077 C 
ATOM     14  C   UNL     1      35.372 -24.015 -12.509  0.00  0.00    -0.025 C 
ATOM     15  C   UNL     1      37.690 -23.581 -13.113  0.00  0.00    +0.168 C 
ATOM     16  C   UNL     1      32.141 -22.987 -14.836  0.00  0.00    -0.100 C 
ATOM     17  C   UNL     1      35.694 -23.688 -11.193  0.00  0.00    -0.001 C 
ATOM     18  C   UNL     1      38.025 -23.237 -11.823  0.00  0.00    +0.167 C 
ATOM     19  C   UNL     1      37.007 -23.284 -10.859  0.00  0.00    +0.039 C 
ATOM     20  H   UNL     1      33.426 -23.743 -16.185  0.00  0.00    -0.080 HD
ENDROOT
BRANCH   4  21
ATOM     21  O   UNL     1      34.971 -25.307 -16.615  0.00  0.00    -0.388 OA
ATOM     22  H   UNL     1      35.597 -25.942 -16.997  0.00  0.00    +0.210 HD
ENDBRANCH   4  21
BRANCH  10  23
ATOM     23  O   UNL     1      38.363 -26.369 -13.590  0.00  0.00    -0.381 OA
ATOM     24  H   UNL     1      37.850 -25.786 -13.008  0.00  0.00    +0.210 HD
ENDBRANCH  10  23
BRANCH  18  25
ATOM     25  O   UNL     1      39.293 -22.903 -11.480  0.00  0.00    -0.503 OA
ATOM     26  H   UNL     1      40.011 -23.426 -11.779  0.00  0.00    +0.292 HD
ENDBRANCH  18  25
TORSDOF 3
ENDMDL
MODEL 4
REMARK VINA RESULT:      -5.4     15.975     18.111
REMARK  Name = 5463858
REMARK  3 active torsions:
REMARK  status: ('A' for Active; 'I' for Inactive)
REMARK    1  A    between atoms: C_4  and  O_21
REMARK    2  A    between atoms: C_10  and  O_23
REMARK    3  A    between atoms: C_18  and  O_25
REMARK                            x       y       z     vdW  Elec       q    Type
REMARK                         _______ _______ _______ _____ _____    ______ ____
ROOT
ATOM      1  O   UNL     1      38.429 -23.613 -13.676  0.00  0.00    -0.474 OA
ATOM      2  N   UNL     1      33.287 -24.217 -13.899  0.00  0.00    +0.389 N 
ATOM      3  C   UNL     1      36.071 -23.447 -14.192  0.00  0.00    +0.079 C 
ATOM      4  C   UNL     1      35.010 -23.088 -15.242  0.00  0.00    +0.078 C 
ATOM      5  C   UNL     1      33.960 -24.250 -15.225  0.00  0.00    -0.028 C 
ATOM      6  C   UNL     1      37.417 -22.692 -14.221  0.00  0.00    +0.198 C 
ATOM      7  C   UNL     1      35.416 -23.474 -12.789  0.00  0.00    -0.013 C 
ATOM      8  C   UNL     1      36.634 -24.801 -14.452  0.00  0.00    +0.016 C 
ATOM      9  C   UNL     1      35.628 -22.802 -16.618  0.00  0.00    +0.028 C 
ATOM     10  C   UNL     1      37.876 -22.186 -15.616  0.00  0.00    +0.151 C 
ATOM     11  C   UNL     1      34.594 -25.636 -15.598  0.00  0.00    +0.008 C 
ATOM     12  C   UNL     1      36.719 -21.723 -16.500  0.00  0.00    +0.035 C 
ATOM     13  C   UNL     1      34.179 -24.393 -12.747  0.00  0.00    -0.077 C 
ATOM     14  C   UNL     1      35.972 -25.865 -15.035  0.00  0.00    -0.025 C 
ATOM     15  C   UNL     1      37.953 -24.853 -14.046  0.00  0.00    +0.168 C 
ATOM     16  C   UNL     1      32.122 -25.091 -13.813  0.00  0.00    -0.100 C 
ATOM     17  C   UNL     1      36.679 -27.062 -15.132  0.00  0.00    -0.001 C 
ATOM     18  C   UNL     1      38.663 -26.030 -14.117  0.00  0.00    +0.167 C 
ATOM     19  C   UNL     1      38.007 -27.146 -14.659  0.00  0.00    +0.039 C 
ATOM     20  H   UNL     1      32.947 -23.257 -13.838  0.00  0.00    -0.080 HD
ENDROOT
BRANCH   4  21
ATOM     21  O   UNL     1      34.351 -21.859 -14.884  0.00  0.00    -0.388 OA
ATOM     22  H   UNL     1      34.601 -21.164 -15.513  0.00  0.00    +0.210 HD
ENDBRANCH   4  21
BRANCH  10  23
ATOM     23  O   UNL     1      38.576 -23.193 -16.351  0.00  0.00    -0.381 OA
ATOM     24  H   UNL     1      39.530 -23.017 -16.315  0.00  0.00    +0.210 HD
ENDBRANCH  10  23
BRANCH  18  25
ATOM     25  O   UNL     1      39.956 -26.108 -13.718  0.00  0.00    -0.503 OA
ATOM     26  H   UNL     1      40.167 -26.483 -12.886  0.00  0.00    +0.292 HD
ENDBRANCH  18  25
TORSDOF 3
ENDMDL
MODEL 5
REMARK VINA RESULT:      -5.1     16.322     18.412
REMARK  Name = 5463858
REMARK  3 active torsions:
REMARK  status: ('A' for Active; 'I' for Inactive)
REMARK    1  A    between atoms: C_4  and  O_21
REMARK    2  A    between atoms: C_10  and  O_23
REMARK    3  A    between atoms: C_18  and  O_25
REMARK                            x       y       z     vdW  Elec       q    Type
REMARK                         _______ _______ _______ _____ _____    ______ ____
ROOT
ATOM      1  O   UNL     1      34.263 -25.383 -12.095  0.00  0.00    -0.474 OA
ATOM      2  N   UNL     1      37.945 -24.504 -15.635  0.00  0.00    +0.389 N 
ATOM      3  C   UNL     1      35.515 -24.738 -14.062  0.00  0.00    +0.079 C 
ATOM      4  C   UNL     1      35.627 -23.775 -15.252  0.00  0.00    +0.078 C 
ATOM      5  C   UNL     1      37.121 -23.310 -15.305  0.00  0.00    -0.028 C 
ATOM      6  C   UNL     1      34.109 -25.085 -13.529  0.00  0.00    +0.198 C 
ATOM      7  C   UNL     1      36.392 -25.987 -14.328  0.00  0.00    -0.013 C 
ATOM      8  C   UNL     1      36.013 -24.096 -12.814  0.00  0.00    +0.016 C 
ATOM      9  C   UNL     1      34.602 -22.634 -15.175  0.00  0.00    +0.028 C 
ATOM     10  C   UNL     1      33.027 -23.985 -13.714  0.00  0.00    +0.151 C 
ATOM     11  C   UNL     1      37.561 -22.557 -14.000  0.00  0.00    +0.008 C 
ATOM     12  C   UNL     1      33.181 -23.203 -15.018  0.00  0.00    +0.035 C 
ATOM     13  C   UNL     1      37.846 -25.609 -14.673  0.00  0.00    -0.077 C 
ATOM     14  C   UNL     1      37.002 -23.136 -12.727  0.00  0.00    -0.025 C 
ATOM     15  C   UNL     1      35.321 -24.580 -11.722  0.00  0.00    +0.168 C 
ATOM     16  C   UNL     1      39.334 -24.189 -15.947  0.00  0.00    -0.100 C 
ATOM     17  C   UNL     1      37.349 -22.712 -11.445  0.00  0.00    -0.001 C 
ATOM     18  C   UNL     1      35.658 -24.188 -10.447  0.00  0.00    +0.167 C 
ATOM     19  C   UNL     1      36.693 -23.249 -10.315  0.00  0.00    +0.039 C 
ATOM     20  H   UNL     1      37.515 -24.849 -16.493  0.00  0.00    -0.080 HD
ENDROOT
BRANCH   4  21
ATOM     21  O   UNL     1      35.309 -24.459 -16.478  0.00  0.00    -0.388 OA
ATOM     22  H   UNL     1      34.689 -23.922 -16.996  0.00  0.00    +0.210 HD
ENDBRANCH   4  21
BRANCH  10  23
ATOM     23  O   UNL     1      33.048 -23.024 -12.655  0.00  0.00    -0.381 OA
ATOM     24  H   UNL     1      32.159 -22.653 -12.537  0.00  0.00    +0.210 HD
ENDBRANCH  10  23
BRANCH  18  25
ATOM     25  O   UNL     1      34.999 -24.654  -9.359  0.00  0.00    -0.503 OA
ATOM     26  H   UNL     1      35.448 -24.743  -8.542  0.00  0.00    +0.292 HD
ENDBRANCH  18  25
TORSDOF 3
ENDMDL
