MODEL 1
REMARK VINA RESULT:     -10.2      0.000      0.000
REMARK  Name = 446716
REMARK  5 active torsions:
REMARK  status: ('A' for Active; 'I' for Inactive)
REMARK    1  A    between atoms: C_1  and  C_15
REMARK    2  A    between atoms: C_2  and  O_13
REMARK    3  A    between atoms: C_4  and  N_9
REMARK    4  A    between atoms: C_5  and  N_12
REMARK    5  A    between atoms: C_15  and  C_18
REMARK                            x       y       z     vdW  Elec       q    Type
REMARK                         _______ _______ _______ _____ _____    ______ ____
ROOT
ATOM      1  C   UNL     1      34.810 -24.292 -14.450  0.00  0.00    +0.019 C 
ATOM      2  C   UNL     1      34.919 -24.114 -13.090  0.00  0.00    +0.152 C 
ATOM      3  C   UNL     1      35.589 -25.182 -15.152  0.00  0.00    +0.023 C 
ATOM      4  C   UNL     1      35.862 -24.870 -12.393  0.00  0.00    +0.178 C 
ATOM      5  C   UNL     1      36.532 -25.938 -14.454  0.00  0.00    +0.144 C 
ATOM      6  C   UNL     1      36.667 -25.782 -13.074  0.00  0.00    +0.051 C 
ENDROOT
BRANCH   4   9
ATOM      7  O   UNL     1      35.181 -25.270 -10.226  0.00  0.00    -0.126 OA
ATOM      8  O   UNL     1      36.980 -24.056 -10.548  0.00  0.00    -0.126 OA
ATOM      9  N   UNL     1      36.015 -24.725 -10.987  0.00  0.00    +0.061 N 
ENDBRANCH   4   9
BRANCH   5  12
ATOM     10  O   UNL     1      38.496 -27.120 -14.703  0.00  0.00    -0.126 OA
ATOM     11  O   UNL     1      36.907 -27.409 -16.189  0.00  0.00    -0.126 OA
ATOM     12  N   UNL     1      37.351 -26.867 -15.148  0.00  0.00    +0.058 N 
ENDBRANCH   5  12
BRANCH   2  13
ATOM     13  O   UNL     1      34.127 -23.220 -12.430  0.00  0.00    -0.504 OA
ATOM     14  H   UNL     1      34.486 -22.405 -12.135  0.00  0.00    +0.292 HD
ENDBRANCH   2  13
BRANCH   1  15
ATOM     15  C   UNL     1      33.781 -23.470 -15.235  0.00  0.00    +0.048 C 
ATOM     16  C   UNL     1      32.434 -24.228 -15.351  0.00  0.00    +0.010 C 
BRANCH  15  18
ATOM     17 CL   UNL     1      35.937 -21.349 -20.420  0.00  0.00    -0.082 Cl
ATOM     18  C   UNL     1      34.316 -22.944 -16.523  0.00  0.00    -0.018 C 
ATOM     19  C   UNL     1      35.608 -22.422 -16.580  0.00  0.00    -0.003 C 
ATOM     20  C   UNL     1      33.526 -22.972 -17.672  0.00  0.00    -0.003 C 
ATOM     21  C   UNL     1      36.110 -21.929 -17.785  0.00  0.00    +0.011 C 
ATOM     22  C   UNL     1      34.026 -22.479 -18.877  0.00  0.00    +0.011 C 
ATOM     23  C   UNL     1      35.318 -21.958 -18.933  0.00  0.00    +0.058 C 
ENDBRANCH  15  18
ENDBRANCH   1  15
TORSDOF 5
ENDMDL
MODEL 2
REMARK VINA RESULT:      -9.5      8.637     11.045
REMARK  Name = 446716
REMARK  5 active torsions:
REMARK  status: ('A' for Active; 'I' for Inactive)
REMARK    1  A    between atoms: C_1  and  C_15
REMARK    2  A    between atoms: C_2  and  O_13
REMARK    3  A    between atoms: C_4  and  N_9
REMARK    4  A    between atoms: C_5  and  N_12
REMARK    5  A    between atoms: C_15  and  C_18
REMARK                            x       y       z     vdW  Elec       q    Type
REMARK                         _______ _______ _______ _____ _____    ______ ____
ROOT
ATOM      1  C   UNL     1      35.400 -17.407 -22.006  0.00  0.00    +0.019 C 
ATOM      2  C   UNL     1      34.785 -16.394 -21.307  0.00  0.00    +0.152 C 
ATOM      3  C   UNL     1      35.209 -17.607 -23.353  0.00  0.00    +0.023 C 
ATOM      4  C   UNL     1      33.930 -15.533 -21.994  0.00  0.00    +0.178 C 
ATOM      5  C   UNL     1      34.354 -16.745 -24.041  0.00  0.00    +0.144 C 
ATOM      6  C   UNL     1      33.715 -15.708 -23.361  0.00  0.00    +0.051 C 
ENDROOT
BRANCH   4   9
ATOM      7  O   UNL     1      33.177 -13.356 -21.886  0.00  0.00    -0.126 OA
ATOM      8  O   UNL     1      32.797 -14.679 -20.177  0.00  0.00    -0.126 OA
ATOM      9  N   UNL     1      33.269 -14.471 -21.319  0.00  0.00    +0.061 N 
ENDBRANCH   4   9
BRANCH   5  12
ATOM     10  O   UNL     1      33.958 -15.915 -26.155  0.00  0.00    -0.126 OA
ATOM     11  O   UNL     1      34.128 -18.088 -25.901  0.00  0.00    -0.126 OA
ATOM     12  N   UNL     1      34.136 -16.924 -25.432  0.00  0.00    +0.058 N 
ENDBRANCH   5  12
BRANCH   2  13
ATOM     13  O   UNL     1      35.000 -16.229 -19.968  0.00  0.00    -0.504 OA
ATOM     14  H   UNL     1      35.795 -15.834 -19.667  0.00  0.00    +0.292 HD
ENDBRANCH   2  13
BRANCH   1  15
ATOM     15  C   UNL     1      36.342 -18.364 -21.268  0.00  0.00    +0.048 C 
ATOM     16  C   UNL     1      37.552 -18.751 -22.155  0.00  0.00    +0.010 C 
BRANCH  15  18
ATOM     17 CL   UNL     1      33.479 -23.005 -18.757  0.00  0.00    -0.082 Cl
ATOM     18  C   UNL     1      35.631 -19.517 -20.644  0.00  0.00    -0.018 C 
ATOM     19  C   UNL     1      36.353 -20.498 -19.966  0.00  0.00    -0.003 C 
ATOM     20  C   UNL     1      34.243 -19.614 -20.738  0.00  0.00    -0.003 C 
ATOM     21  C   UNL     1      35.689 -21.577 -19.382  0.00  0.00    +0.011 C 
ATOM     22  C   UNL     1      33.577 -20.692 -20.154  0.00  0.00    +0.011 C 
ATOM     23  C   UNL     1      34.300 -21.673 -19.476  0.00  0.00    +0.058 C 
ENDBRANCH  15  18
ENDBRANCH   1  15
TORSDOF 5
ENDMDL
MODEL 3
REMARK VINA RESULT:      -9.4      9.046     11.535
REMARK  Name = 446716
REMARK  5 active torsions:
REMARK  status: ('A' for Active; 'I' for Inactive)
REMARK    1  A    between atoms: C_1  and  C_15
REMARK    2  A    between atoms: C_2  and  O_13
REMARK    3  A    between atoms: C_4  and  N_9
REMARK    4  A    between atoms: C_5  and  N_12
REMARK    5  A    between atoms: C_15  and  C_18
REMARK                            x       y       z     vdW  Elec       q    Type
REMARK                         _______ _______ _______ _____ _____    ______ ____
ROOT
ATOM      1  C   UNL     1      34.757 -17.415 -22.962  0.00  0.00    +0.019 C 
ATOM      2  C   UNL     1      34.719 -16.651 -21.819  0.00  0.00    +0.152 C 
ATOM      3  C   UNL     1      34.301 -16.962 -24.179  0.00  0.00    +0.023 C 
ATOM      4  C   UNL     1      34.195 -15.361 -21.897  0.00  0.00    +0.178 C 
ATOM      5  C   UNL     1      33.777 -15.671 -24.256  0.00  0.00    +0.144 C 
ATOM      6  C   UNL     1      33.725 -14.871 -23.115  0.00  0.00    +0.051 C 
ENDROOT
BRANCH   4   9
ATOM      7  O   UNL     1      35.150 -14.424 -20.017  0.00  0.00    -0.126 OA
ATOM      8  O   UNL     1      33.065 -13.927 -20.489  0.00  0.00    -0.126 OA
ATOM      9  N   UNL     1      34.133 -14.530 -20.744  0.00  0.00    +0.061 N 
ENDBRANCH   4   9
BRANCH   5  12
ATOM     10  O   UNL     1      32.605 -14.128 -25.506  0.00  0.00    -0.126 OA
ATOM     11  O   UNL     1      33.582 -15.793 -26.550  0.00  0.00    -0.126 OA
ATOM     12  N   UNL     1      33.298 -15.173 -25.496  0.00  0.00    +0.058 N 
ENDBRANCH   5  12
BRANCH   2  13
ATOM     13  O   UNL     1      35.182 -17.137 -20.630  0.00  0.00    -0.504 OA
ATOM     14  H   UNL     1      35.960 -16.780 -20.249  0.00  0.00    +0.292 HD
ENDBRANCH   2  13
BRANCH   1  15
ATOM     15  C   UNL     1      35.329 -18.836 -22.898  0.00  0.00    +0.048 C 
ATOM     16  C   UNL     1      35.274 -19.523 -24.286  0.00  0.00    +0.010 C 
BRANCH  15  18
ATOM     17 CL   UNL     1      33.045 -22.076 -18.390  0.00  0.00    -0.082 Cl
ATOM     18  C   UNL     1      34.762 -19.641 -21.778  0.00  0.00    -0.018 C 
ATOM     19  C   UNL     1      33.383 -19.669 -21.567  0.00  0.00    -0.003 C 
ATOM     20  C   UNL     1      35.609 -20.367 -20.941  0.00  0.00    -0.003 C 
ATOM     21  C   UNL     1      32.852 -20.422 -20.519  0.00  0.00    +0.011 C 
ATOM     22  C   UNL     1      35.079 -21.121 -19.894  0.00  0.00    +0.011 C 
ATOM     23  C   UNL     1      33.700 -21.148 -19.683  0.00  0.00    +0.058 C 
ENDBRANCH  15  18
ENDBRANCH   1  15
TORSDOF 5
ENDMDL
MODEL 4
REMARK VINA RESULT:      -9.1      9.822     12.622
REMARK  Name = 446716
REMARK  5 active torsions:
REMARK  status: ('A' for Active; 'I' for Inactive)
REMARK    1  A    between atoms: C_1  and  C_15
REMARK    2  A    between atoms: C_2  and  O_13
REMARK    3  A    between atoms: C_4  and  N_9
REMARK    4  A    between atoms: C_5  and  N_12
REMARK    5  A    between atoms: C_15  and  C_18
REMARK                            x       y       z     vdW  Elec       q    Type
REMARK                         _______ _______ _______ _____ _____    ______ ____
ROOT
ATOM      1  C   UNL     1      34.561 -16.771 -23.670  0.00  0.00    +0.019 C 
ATOM      2  C   UNL     1      34.150 -16.027 -24.750  0.00  0.00    +0.152 C 
ATOM      3  C   UNL     1      34.481 -16.315 -22.374  0.00  0.00    +0.023 C 
ATOM      4  C   UNL     1      33.629 -14.753 -24.523  0.00  0.00    +0.178 C 
ATOM      5  C   UNL     1      33.959 -15.041 -22.147  0.00  0.00    +0.144 C 
ATOM      6  C   UNL     1      33.533 -14.261 -23.222  0.00  0.00    +0.051 C 
ENDROOT
BRANCH   4   9
ATOM      7  O   UNL     1      32.482 -14.460 -26.503  0.00  0.00    -0.126 OA
ATOM      8  O   UNL     1      33.521 -12.734 -25.632  0.00  0.00    -0.126 OA
ATOM      9  N   UNL     1      33.190 -13.942 -25.606  0.00  0.00    +0.061 N 
ENDBRANCH   4   9
BRANCH   5  12
ATOM     10  O   UNL     1      34.827 -14.705 -20.037  0.00  0.00    -0.126 OA
ATOM     11  O   UNL     1      32.814 -13.946 -20.472  0.00  0.00    -0.126 OA
ATOM     12  N   UNL     1      33.862 -14.540 -20.822  0.00  0.00    +0.058 N 
ENDBRANCH   5  12
BRANCH   2  13
ATOM     13  O   UNL     1      34.246 -16.516 -26.022  0.00  0.00    -0.504 OA
ATOM     14  H   UNL     1      33.525 -16.427 -26.614  0.00  0.00    +0.292 HD
ENDBRANCH   2  13
BRANCH   1  15
ATOM     15  C   UNL     1      35.137 -18.173 -23.899  0.00  0.00    +0.048 C 
ATOM     16  C   UNL     1      34.256 -18.985 -24.882  0.00  0.00    +0.010 C 
BRANCH  15  18
ATOM     17 CL   UNL     1      36.481 -21.017 -18.786  0.00  0.00    -0.082 Cl
ATOM     18  C   UNL     1      35.471 -18.880 -22.629  0.00  0.00    -0.018 C 
ATOM     19  C   UNL     1      34.524 -19.701 -22.017  0.00  0.00    -0.003 C 
ATOM     20  C   UNL     1      36.731 -18.720 -22.051  0.00  0.00    -0.003 C 
ATOM     21  C   UNL     1      34.836 -20.362 -20.829  0.00  0.00    +0.011 C 
ATOM     22  C   UNL     1      37.043 -19.381 -20.863  0.00  0.00    +0.011 C 
ATOM     23  C   UNL     1      36.096 -20.202 -20.252  0.00  0.00    +0.058 C 
ENDBRANCH  15  18
ENDBRANCH   1  15
TORSDOF 5
ENDMDL
MODEL 5
REMARK VINA RESULT:      -8.8      1.432      3.495
REMARK  Name = 446716
REMARK  5 active torsions:
REMARK  status: ('A' for Active; 'I' for Inactive)
REMARK    1  A    between atoms: C_1  and  C_15
REMARK    2  A    between atoms: C_2  and  O_13
REMARK    3  A    between atoms: C_4  and  N_9
REMARK    4  A    between atoms: C_5  and  N_12
REMARK    5  A    between atoms: C_15  and  C_18
REMARK                            x       y       z     vdW  Elec       q    Type
REMARK                         _______ _______ _______ _____ _____    ______ ____
ROOT
ATOM      1  C   UNL     1      35.703 -23.860 -14.424  0.00  0.00    +0.019 C 
ATOM      2  C   UNL     1      36.175 -25.062 -14.896  0.00  0.00    +0.152 C 
ATOM      3  C   UNL     1      36.250 -23.217 -13.339  0.00  0.00    +0.023 C 
ATOM      4  C   UNL     1      37.256 -25.655 -14.245  0.00  0.00    +0.178 C 
ATOM      5  C   UNL     1      37.332 -23.810 -12.687  0.00  0.00    +0.144 C 
ATOM      6  C   UNL     1      37.835 -25.029 -13.141  0.00  0.00    +0.051 C 
ENDROOT
BRANCH   4   9
ATOM      7  O   UNL     1      36.989 -27.794 -15.067  0.00  0.00    -0.126 OA
ATOM      8  O   UNL     1      39.025 -27.063 -14.699  0.00  0.00    -0.126 OA
ATOM      9  N   UNL     1      37.783 -26.899 -14.692  0.00  0.00    +0.061 N 
ENDBRANCH   4   9
BRANCH   5  12
ATOM     10  O   UNL     1      39.154 -22.945 -11.570  0.00  0.00    -0.126 OA
ATOM     11  O   UNL     1      37.189 -22.851 -10.595  0.00  0.00    -0.126 OA
ATOM     12  N   UNL     1      37.920 -23.172 -11.564  0.00  0.00    +0.058 N 
ENDBRANCH   5  12
BRANCH   2  13
ATOM     13  O   UNL     1      35.604 -25.670 -15.977  0.00  0.00    -0.504 OA
ATOM     14  H   UNL     1      36.141 -26.116 -16.602  0.00  0.00    +0.292 HD
ENDBRANCH   2  13
BRANCH   1  15
ATOM     15  C   UNL     1      34.515 -23.192 -15.126  0.00  0.00    +0.048 C 
ATOM     16  C   UNL     1      33.240 -24.068 -15.022  0.00  0.00    +0.010 C 
BRANCH  15  18
ATOM     17 CL   UNL     1      35.825 -21.309 -20.674  0.00  0.00    -0.082 Cl
ATOM     18  C   UNL     1      34.841 -22.724 -16.504  0.00  0.00    -0.018 C 
ATOM     19  C   UNL     1      33.891 -22.833 -17.520  0.00  0.00    -0.003 C 
ATOM     20  C   UNL     1      36.094 -22.177 -16.778  0.00  0.00    -0.003 C 
ATOM     21  C   UNL     1      34.195 -22.396 -18.810  0.00  0.00    +0.011 C 
ATOM     22  C   UNL     1      36.399 -21.739 -18.067  0.00  0.00    +0.011 C 
ATOM     23  C   UNL     1      35.449 -21.848 -19.082  0.00  0.00    +0.058 C 
ENDBRANCH  15  18
ENDBRANCH   1  15
TORSDOF 5
ENDMDL
MODEL 6
REMARK VINA RESULT:      -8.8     13.187     15.711
REMARK  Name = 446716
REMARK  5 active torsions:
REMARK  status: ('A' for Active; 'I' for Inactive)
REMARK    1  A    between atoms: C_1  and  C_15
REMARK    2  A    between atoms: C_2  and  O_13
REMARK    3  A    between atoms: C_4  and  N_9
REMARK    4  A    between atoms: C_5  and  N_12
REMARK    5  A    between atoms: C_15  and  C_18
REMARK                            x       y       z     vdW  Elec       q    Type
REMARK                         _______ _______ _______ _____ _____    ______ ____
ROOT
ATOM      1  C   UNL     1      33.710 -12.360 -24.422  0.00  0.00    +0.019 C 
ATOM      2  C   UNL     1      33.597 -13.345 -25.374  0.00  0.00    +0.152 C 
ATOM      3  C   UNL     1      33.770 -12.628 -23.074  0.00  0.00    +0.023 C 
ATOM      4  C   UNL     1      33.538 -14.674 -24.955  0.00  0.00    +0.178 C 
ATOM      5  C   UNL     1      33.711 -13.957 -22.654  0.00  0.00    +0.144 C 
ATOM      6  C   UNL     1      33.596 -14.980 -23.596  0.00  0.00    +0.051 C 
ENDROOT
BRANCH   4   9
ATOM      7  O   UNL     1      32.463 -15.716 -26.710  0.00  0.00    -0.126 OA
ATOM      8  O   UNL     1      34.276 -16.647 -25.894  0.00  0.00    -0.126 OA
ATOM      9  N   UNL     1      33.420 -15.731 -25.899  0.00  0.00    +0.061 N 
ENDBRANCH   4   9
BRANCH   5  12
ATOM     10  O   UNL     1      32.761 -14.058 -20.556  0.00  0.00    -0.126 OA
ATOM     11  O   UNL     1      34.831 -14.745 -20.799  0.00  0.00    -0.126 OA
ATOM     12  N   UNL     1      33.770 -14.268 -21.270  0.00  0.00    +0.058 N 
ENDBRANCH   5  12
BRANCH   2  13
ATOM     13  O   UNL     1      33.540 -13.038 -26.703  0.00  0.00    -0.504 OA
ATOM     14  H   UNL     1      34.300 -12.705 -27.140  0.00  0.00    +0.292 HD
ENDBRANCH   2  13
BRANCH   1  15
ATOM     15  C   UNL     1      33.776 -10.893 -24.862  0.00  0.00    +0.048 C 
ATOM     16  C   UNL     1      35.135 -10.572 -25.533  0.00  0.00    +0.010 C 
BRANCH  15  18
ATOM     17 CL   UNL     1      32.136  -7.071 -20.533  0.00  0.00    -0.082 Cl
ATOM     18  C   UNL     1      33.369  -9.944 -23.786  0.00  0.00    -0.018 C 
ATOM     19  C   UNL     1      32.218 -10.189 -23.038  0.00  0.00    -0.003 C 
ATOM     20  C   UNL     1      34.138  -8.809 -23.529  0.00  0.00    -0.003 C 
ATOM     21  C   UNL     1      31.837  -9.301 -22.031  0.00  0.00    +0.011 C 
ATOM     22  C   UNL     1      33.758  -7.920 -22.523  0.00  0.00    +0.011 C 
ATOM     23  C   UNL     1      32.607  -8.167 -21.774  0.00  0.00    +0.058 C 
ENDBRANCH  15  18
ENDBRANCH   1  15
TORSDOF 5
ENDMDL
MODEL 7
REMARK VINA RESULT:      -8.8     13.223     15.729
REMARK  Name = 446716
REMARK  5 active torsions:
REMARK  status: ('A' for Active; 'I' for Inactive)
REMARK    1  A    between atoms: C_1  and  C_15
REMARK    2  A    between atoms: C_2  and  O_13
REMARK    3  A    between atoms: C_4  and  N_9
REMARK    4  A    between atoms: C_5  and  N_12
REMARK    5  A    between atoms: C_15  and  C_18
REMARK                            x       y       z     vdW  Elec       q    Type
REMARK                         _______ _______ _______ _____ _____    ______ ____
ROOT
ATOM      1  C   UNL     1      33.712 -12.325 -24.430  0.00  0.00    +0.019 C 
ATOM      2  C   UNL     1      33.594 -13.306 -25.386  0.00  0.00    +0.152 C 
ATOM      3  C   UNL     1      33.763 -12.597 -23.083  0.00  0.00    +0.023 C 
ATOM      4  C   UNL     1      33.522 -14.635 -24.971  0.00  0.00    +0.178 C 
ATOM      5  C   UNL     1      33.691 -13.927 -22.668  0.00  0.00    +0.144 C 
ATOM      6  C   UNL     1      33.571 -14.946 -23.613  0.00  0.00    +0.051 C 
ENDROOT
BRANCH   4   9
ATOM      7  O   UNL     1      34.260 -16.600 -25.928  0.00  0.00    -0.126 OA
ATOM      8  O   UNL     1      32.433 -15.675 -26.718  0.00  0.00    -0.126 OA
ATOM      9  N   UNL     1      33.399 -15.688 -25.919  0.00  0.00    +0.061 N 
ENDBRANCH   4   9
BRANCH   5  12
ATOM     10  O   UNL     1      32.740 -14.001 -20.568  0.00  0.00    -0.126 OA
ATOM     11  O   UNL     1      34.787 -14.755 -20.815  0.00  0.00    -0.126 OA
ATOM     12  N   UNL     1      33.741 -14.242 -21.284  0.00  0.00    +0.058 N 
ENDBRANCH   5  12
BRANCH   2  13
ATOM     13  O   UNL     1      33.546 -12.994 -26.715  0.00  0.00    -0.504 OA
ATOM     14  H   UNL     1      33.759 -12.128 -27.001  0.00  0.00    +0.292 HD
ENDBRANCH   2  13
BRANCH   1  15
ATOM     15  C   UNL     1      33.792 -10.857 -24.866  0.00  0.00    +0.048 C 
ATOM     16  C   UNL     1      35.164 -10.540 -25.512  0.00  0.00    +0.010 C 
BRANCH  15  18
ATOM     17 CL   UNL     1      32.100  -7.037 -20.555  0.00  0.00    -0.082 Cl
ATOM     18  C   UNL     1      33.371  -9.908 -23.795  0.00  0.00    -0.018 C 
ATOM     19  C   UNL     1      34.128  -8.765 -23.539  0.00  0.00    -0.003 C 
ATOM     20  C   UNL     1      32.221 -10.163 -23.048  0.00  0.00    -0.003 C 
ATOM     21  C   UNL     1      33.735  -7.877 -22.537  0.00  0.00    +0.011 C 
ATOM     22  C   UNL     1      31.827  -9.275 -22.046  0.00  0.00    +0.011 C 
ATOM     23  C   UNL     1      32.584  -8.132 -21.792  0.00  0.00    +0.058 C 
ENDBRANCH  15  18
ENDBRANCH   1  15
TORSDOF 5
ENDMDL
MODEL 8
REMARK VINA RESULT:      -8.6      2.698      4.821
REMARK  Name = 446716
REMARK  5 active torsions:
REMARK  status: ('A' for Active; 'I' for Inactive)
REMARK    1  A    between atoms: C_1  and  C_15
REMARK    2  A    between atoms: C_2  and  O_13
REMARK    3  A    between atoms: C_4  and  N_9
REMARK    4  A    between atoms: C_5  and  N_12
REMARK    5  A    between atoms: C_15  and  C_18
REMARK                            x       y       z     vdW  Elec       q    Type
REMARK                         _______ _______ _______ _____ _____    ______ ____
ROOT
ATOM      1  C   UNL     1      35.779 -24.147 -14.247  0.00  0.00    +0.019 C 
ATOM      2  C   UNL     1      36.791 -25.006 -14.604  0.00  0.00    +0.152 C 
ATOM      3  C   UNL     1      35.543 -23.770 -12.945  0.00  0.00    +0.023 C 
ATOM      4  C   UNL     1      37.614 -25.519 -13.602  0.00  0.00    +0.178 C 
ATOM      5  C   UNL     1      36.367 -24.283 -11.943  0.00  0.00    +0.144 C 
ATOM      6  C   UNL     1      37.403 -25.157 -12.272  0.00  0.00    +0.051 C 
ENDROOT
BRANCH   4   9
ATOM      7  O   UNL     1      38.447 -27.380 -14.681  0.00  0.00    -0.126 OA
ATOM      8  O   UNL     1      39.808 -26.205 -13.422  0.00  0.00    -0.126 OA
ATOM      9  N   UNL     1      38.676 -26.412 -13.917  0.00  0.00    +0.061 N 
ENDBRANCH   4   9
BRANCH   5  12
ATOM     10  O   UNL     1      35.345 -24.581  -9.897  0.00  0.00    -0.126 OA
ATOM     11  O   UNL     1      36.771 -22.928 -10.121  0.00  0.00    -0.126 OA
ATOM     12  N   UNL     1      36.150 -23.913 -10.589  0.00  0.00    +0.058 N 
ENDBRANCH   5  12
BRANCH   2  13
ATOM     13  O   UNL     1      36.993 -25.357 -15.908  0.00  0.00    -0.504 OA
ATOM     14  H   UNL     1      37.146 -26.253 -16.134  0.00  0.00    +0.292 HD
ENDBRANCH   2  13
BRANCH   1  15
ATOM     15  C   UNL     1      34.862 -23.573 -15.334  0.00  0.00    +0.048 C 
ATOM     16  C   UNL     1      35.161 -22.073 -15.581  0.00  0.00    +0.010 C 
BRANCH  15  18
ATOM     17 CL   UNL     1      29.069 -24.873 -14.445  0.00  0.00    -0.082 Cl
ATOM     18  C   UNL     1      33.423 -23.897 -15.113  0.00  0.00    -0.018 C 
ATOM     19  C   UNL     1      32.449 -23.346 -15.945  0.00  0.00    -0.003 C 
ATOM     20  C   UNL     1      33.050 -24.750 -14.074  0.00  0.00    -0.003 C 
ATOM     21  C   UNL     1      31.103 -23.647 -15.739  0.00  0.00    +0.011 C 
ATOM     22  C   UNL     1      31.704 -25.052 -13.868  0.00  0.00    +0.011 C 
ATOM     23  C   UNL     1      30.731 -24.501 -14.700  0.00  0.00    +0.058 C 
ENDBRANCH  15  18
ENDBRANCH   1  15
TORSDOF 5
ENDMDL
MODEL 9
REMARK VINA RESULT:      -8.6      2.437      4.415
REMARK  Name = 446716
REMARK  5 active torsions:
REMARK  status: ('A' for Active; 'I' for Inactive)
REMARK    1  A    between atoms: C_1  and  C_15
REMARK    2  A    between atoms: C_2  and  O_13
REMARK    3  A    between atoms: C_4  and  N_9
REMARK    4  A    between atoms: C_5  and  N_12
REMARK    5  A    between atoms: C_15  and  C_18
REMARK                            x       y       z     vdW  Elec       q    Type
REMARK                         _______ _______ _______ _____ _____    ______ ____
ROOT
ATOM      1  C   UNL     1      36.960 -23.666 -14.838  0.00  0.00    +0.019 C 
ATOM      2  C   UNL     1      38.238 -24.162 -14.945  0.00  0.00    +0.152 C 
ATOM      3  C   UNL     1      36.227 -23.736 -13.676  0.00  0.00    +0.023 C 
ATOM      4  C   UNL     1      38.816 -24.762 -13.827  0.00  0.00    +0.178 C 
ATOM      5  C   UNL     1      36.805 -24.336 -12.557  0.00  0.00    +0.144 C 
ATOM      6  C   UNL     1      38.100 -24.849 -12.633  0.00  0.00    +0.051 C 
ENDROOT
BRANCH   4   9
ATOM      7  O   UNL     1      41.081 -24.530 -14.199  0.00  0.00    -0.126 OA
ATOM      8  O   UNL     1      40.314 -26.503 -13.619  0.00  0.00    -0.126 OA
ATOM      9  N   UNL     1      40.135 -25.291 -13.885  0.00  0.00    +0.061 N 
ENDBRANCH   4   9
BRANCH   5  12
ATOM     10  O   UNL     1      36.590 -23.977 -10.290  0.00  0.00    -0.126 OA
ATOM     11  O   UNL     1      34.934 -24.947 -11.356  0.00  0.00    -0.126 OA
ATOM     12  N   UNL     1      36.076 -24.424 -11.343  0.00  0.00    +0.058 N 
ENDBRANCH   5  12
BRANCH   2  13
ATOM     13  O   UNL     1      38.933 -24.073 -16.117  0.00  0.00    -0.504 OA
ATOM     14  H   UNL     1      38.992 -24.817 -16.684  0.00  0.00    +0.292 HD
ENDBRANCH   2  13
BRANCH   1  15
ATOM     15  C   UNL     1      36.307 -23.002 -16.056  0.00  0.00    +0.048 C 
ATOM     16  C   UNL     1      36.859 -21.571 -16.275  0.00  0.00    +0.010 C 
BRANCH  15  18
ATOM     17 CL   UNL     1      30.318 -23.412 -16.022  0.00  0.00    -0.082 Cl
ATOM     18  C   UNL     1      34.819 -23.105 -16.047  0.00  0.00    -0.018 C 
ATOM     19  C   UNL     1      34.112 -23.090 -17.249  0.00  0.00    -0.003 C 
ATOM     20  C   UNL     1      34.134 -23.214 -14.837  0.00  0.00    -0.003 C 
ATOM     21  C   UNL     1      32.720 -23.185 -17.242  0.00  0.00    +0.011 C 
ATOM     22  C   UNL     1      32.742 -23.310 -14.829  0.00  0.00    +0.011 C 
ATOM     23  C   UNL     1      32.036 -23.295 -16.031  0.00  0.00    +0.058 C 
ENDBRANCH  15  18
ENDBRANCH   1  15
TORSDOF 5
ENDMDL
