MODEL 1
REMARK VINA RESULT:     -11.5      0.000      0.000
REMARK  Name = 10250490
REMARK  6 active torsions:
REMARK  status: ('A' for Active; 'I' for Inactive)
REMARK    1  A    between atoms: N_2  and  C_18
REMARK    2  A    between atoms: C_3  and  C_6
REMARK    3  A    between atoms: C_5  and  N_12
REMARK    4  A    between atoms: C_18  and  C_19
REMARK    5  A    between atoms: C_19  and  N_21
REMARK    6  A    between atoms: C_22  and  C_26
REMARK                            x       y       z     vdW  Elec       q    Type
REMARK                         _______ _______ _______ _____ _____    ______ ____
ROOT
ATOM      1  O   UNL     1      34.083 -23.387 -18.283  0.00  0.00    -0.270 OA
ATOM      2  N   UNL     1      35.818 -22.263 -17.235  0.00  0.00    -0.299 N 
ATOM      3  C   UNL     1      34.872 -22.427 -18.252  0.00  0.00    +0.246 C 
ATOM      4  H   UNL     1      36.412 -21.478 -17.271  0.00  0.00    +0.150 HD
ENDROOT
BRANCH   3   6
ATOM      5  C   UNL     1      34.835 -19.510 -21.336  0.00  0.00    +0.058 C 
ATOM      6  C   UNL     1      34.858 -21.427 -19.308  0.00  0.00    +0.053 C 
ATOM      7  C   UNL     1      33.634 -20.019 -20.841  0.00  0.00    +0.015 C 
ATOM      8  C   UNL     1      36.049 -19.961 -20.815  0.00  0.00    +0.015 C 
ATOM      9  C   UNL     1      33.646 -20.977 -19.828  0.00  0.00    +0.006 C 
ATOM     10  C   UNL     1      36.060 -20.920 -19.802  0.00  0.00    +0.006 C 
BRANCH   5  12
ATOM     11  O   UNL     1      34.993 -16.650 -20.938  0.00  0.00    -0.269 OA
ATOM     12  N   UNL     1      34.822 -18.515 -22.390  0.00  0.00    -0.233 N 
ATOM     13  C   UNL     1      34.947 -17.140 -22.066  0.00  0.00    +0.257 C 
ATOM     14  C   UNL     1      34.665 -18.899 -23.724  0.00  0.00    +0.072 C 
ATOM     15  C   UNL     1      34.972 -16.184 -23.217  0.00  0.00    +0.059 C 
ATOM     16  C   UNL     1      34.657 -18.022 -24.734  0.00  0.00    +0.017 C 
ATOM     17  C   UNL     1      34.822 -16.624 -24.469  0.00  0.00    +0.006 C 
ENDBRANCH   5  12
ENDBRANCH   3   6
BRANCH   2  18
ATOM     18  C   UNL     1      35.971 -23.183 -16.130  0.00  0.00    +0.111 C 
BRANCH  18  19
ATOM     19  C   UNL     1      35.074 -22.825 -14.956  0.00  0.00    +0.111 C 
BRANCH  19  21
ATOM     20  O   UNL     1      33.347 -24.285 -13.189  0.00  0.00    -0.270 OA
ATOM     21  N   UNL     1      33.702 -23.182 -15.198  0.00  0.00    -0.299 N 
ATOM     22  C   UNL     1      32.940 -23.894 -14.280  0.00  0.00    +0.252 C 
ATOM     23  H   UNL     1      33.287 -22.911 -16.049  0.00  0.00    +0.150 HD
BRANCH  22  26
ATOM     24 CL   UNL     1      28.154 -23.921 -16.941  0.00  0.00    -0.075 Cl
ATOM     25  S   UNL     1      30.926 -23.383 -16.022  0.00  0.00    -0.071 S 
ATOM     26  C   UNL     1      31.547 -24.207 -14.690  0.00  0.00    +0.084 C 
ATOM     27  C   UNL     1      30.715 -25.086 -14.109  0.00  0.00    +0.012 C 
ATOM     28  C   UNL     1      29.464 -25.101 -14.793  0.00  0.00    +0.019 C 
ATOM     29  C   UNL     1      29.443 -24.223 -15.853  0.00  0.00    +0.087 C 
ENDBRANCH  22  26
ENDBRANCH  19  21
ENDBRANCH  18  19
ENDBRANCH   2  18
TORSDOF 6
ENDMDL
MODEL 2
REMARK VINA RESULT:     -11.4      3.175      4.022
REMARK  Name = 10250490
REMARK  6 active torsions:
REMARK  status: ('A' for Active; 'I' for Inactive)
REMARK    1  A    between atoms: N_2  and  C_18
REMARK    2  A    between atoms: C_3  and  C_6
REMARK    3  A    between atoms: C_5  and  N_12
REMARK    4  A    between atoms: C_18  and  C_19
REMARK    5  A    between atoms: C_19  and  N_21
REMARK    6  A    between atoms: C_22  and  C_26
REMARK                            x       y       z     vdW  Elec       q    Type
REMARK                         _______ _______ _______ _____ _____    ______ ____
ROOT
ATOM      1  O   UNL     1      35.342 -22.825 -17.899  0.00  0.00    -0.270 OA
ATOM      2  N   UNL     1      33.028 -22.716 -17.980  0.00  0.00    -0.299 N 
ATOM      3  C   UNL     1      34.310 -22.349 -18.403  0.00  0.00    +0.246 C 
ATOM      4  H   UNL     1      32.253 -22.300 -18.424  0.00  0.00    +0.150 HD
ENDROOT
BRANCH   3   6
ATOM      5  C   UNL     1      34.566 -19.444 -21.488  0.00  0.00    +0.058 C 
ATOM      6  C   UNL     1      34.397 -21.353 -19.459  0.00  0.00    +0.053 C 
ATOM      7  C   UNL     1      33.320 -19.818 -20.982  0.00  0.00    +0.015 C 
ATOM      8  C   UNL     1      35.727 -20.025 -20.978  0.00  0.00    +0.015 C 
ATOM      9  C   UNL     1      33.236 -20.772 -19.968  0.00  0.00    +0.006 C 
ATOM     10  C   UNL     1      35.643 -20.980 -19.964  0.00  0.00    +0.006 C 
BRANCH   5  12
ATOM     11  O   UNL     1      34.877 -16.597 -21.085  0.00  0.00    -0.269 OA
ATOM     12  N   UNL     1      34.652 -18.453 -22.542  0.00  0.00    -0.233 N 
ATOM     13  C   UNL     1      34.846 -17.086 -22.214  0.00  0.00    +0.257 C 
ATOM     14  C   UNL     1      34.525 -18.831 -23.881  0.00  0.00    +0.072 C 
ATOM     15  C   UNL     1      34.972 -16.137 -23.364  0.00  0.00    +0.059 C 
ATOM     16  C   UNL     1      34.608 -17.958 -24.891  0.00  0.00    +0.017 C 
ATOM     17  C   UNL     1      34.845 -16.571 -24.621  0.00  0.00    +0.006 C 
ENDBRANCH   5  12
ENDBRANCH   3   6
BRANCH   2  18
ATOM     18  C   UNL     1      32.777 -23.674 -16.927  0.00  0.00    +0.111 C 
BRANCH  18  19
ATOM     19  C   UNL     1      33.190 -23.147 -15.562  0.00  0.00    +0.111 C 
BRANCH  19  21
ATOM     20  O   UNL     1      33.789 -24.153 -12.941  0.00  0.00    -0.270 OA
ATOM     21  N   UNL     1      34.439 -23.709 -15.123  0.00  0.00    -0.299 N 
ATOM     22  C   UNL     1      34.638 -24.173 -13.829  0.00  0.00    +0.252 C 
ATOM     23  H   UNL     1      35.182 -23.768 -15.766  0.00  0.00    +0.150 HD
BRANCH  22  26
ATOM     24 CL   UNL     1      39.855 -25.768 -14.302  0.00  0.00    -0.075 Cl
ATOM     25  S   UNL     1      37.112 -24.736 -14.783  0.00  0.00    -0.071 S 
ATOM     26  C   UNL     1      35.993 -24.701 -13.525  0.00  0.00    +0.084 C 
ATOM     27  C   UNL     1      36.431 -25.160 -12.342  0.00  0.00    +0.012 C 
ATOM     28  C   UNL     1      37.789 -25.580 -12.453  0.00  0.00    +0.019 C 
ATOM     29  C   UNL     1      38.283 -25.404 -13.726  0.00  0.00    +0.087 C 
ENDBRANCH  22  26
ENDBRANCH  19  21
ENDBRANCH  18  19
ENDBRANCH   2  18
TORSDOF 6
ENDMDL
MODEL 3
REMARK VINA RESULT:     -11.2      3.296      4.372
REMARK  Name = 10250490
REMARK  6 active torsions:
REMARK  status: ('A' for Active; 'I' for Inactive)
REMARK    1  A    between atoms: N_2  and  C_18
REMARK    2  A    between atoms: C_3  and  C_6
REMARK    3  A    between atoms: C_5  and  N_12
REMARK    4  A    between atoms: C_18  and  C_19
REMARK    5  A    between atoms: C_19  and  N_21
REMARK    6  A    between atoms: C_22  and  C_26
REMARK                            x       y       z     vdW  Elec       q    Type
REMARK                         _______ _______ _______ _____ _____    ______ ____
ROOT
ATOM      1  O   UNL     1      34.538 -23.316 -18.532  0.00  0.00    -0.270 OA
ATOM      2  N   UNL     1      32.493 -22.412 -17.920  0.00  0.00    -0.299 N 
ATOM      3  C   UNL     1      33.682 -22.424 -18.658  0.00  0.00    +0.246 C 
ATOM      4  H   UNL     1      31.858 -21.675 -18.069  0.00  0.00    +0.150 HD
ENDROOT
BRANCH   3   6
ATOM      5  C   UNL     1      34.307 -19.200 -21.347  0.00  0.00    +0.058 C 
ATOM      6  C   UNL     1      33.897 -21.320 -19.580  0.00  0.00    +0.053 C 
ATOM      7  C   UNL     1      35.398 -19.903 -20.834  0.00  0.00    +0.015 C 
ATOM      8  C   UNL     1      33.011 -19.558 -20.975  0.00  0.00    +0.015 C 
ATOM      9  C   UNL     1      35.192 -20.963 -19.951  0.00  0.00    +0.006 C 
ATOM     10  C   UNL     1      32.806 -20.617 -20.091  0.00  0.00    +0.006 C 
BRANCH   5  12
ATOM     11  O   UNL     1      34.833 -19.459 -24.179  0.00  0.00    -0.269 OA
ATOM     12  N   UNL     1      34.522 -18.097 -22.264  0.00  0.00    -0.233 N 
ATOM     13  C   UNL     1      34.731 -18.356 -23.643  0.00  0.00    +0.257 C 
ATOM     14  C   UNL     1      34.546 -16.782 -21.797  0.00  0.00    +0.072 C 
ATOM     15  C   UNL     1      34.896 -17.160 -24.527  0.00  0.00    +0.059 C 
ATOM     16  C   UNL     1      34.729 -15.730 -22.602  0.00  0.00    +0.017 C 
ATOM     17  C   UNL     1      34.902 -15.928 -24.010  0.00  0.00    +0.006 C 
ENDBRANCH   5  12
ENDBRANCH   3   6
BRANCH   2  18
ATOM     18  C   UNL     1      32.146 -23.425 -16.948  0.00  0.00    +0.111 C 
BRANCH  18  19
ATOM     19  C   UNL     1      32.854 -23.214 -15.621  0.00  0.00    +0.111 C 
BRANCH  19  21
ATOM     20  O   UNL     1      34.270 -23.992 -13.248  0.00  0.00    -0.270 OA
ATOM     21  N   UNL     1      34.107 -23.918 -15.561  0.00  0.00    -0.299 N 
ATOM     22  C   UNL     1      34.721 -24.253 -14.360  0.00  0.00    +0.252 C 
ATOM     23  H   UNL     1      34.547 -24.171 -16.405  0.00  0.00    +0.150 HD
BRANCH  22  26
ATOM     24 CL   UNL     1      40.032 -25.514 -13.930  0.00  0.00    -0.075 Cl
ATOM     25  S   UNL     1      37.369 -24.209 -13.781  0.00  0.00    -0.071 S 
ATOM     26  C   UNL     1      36.025 -24.956 -14.468  0.00  0.00    +0.084 C 
ATOM     27  C   UNL     1      36.256 -26.138 -15.062  0.00  0.00    +0.012 C 
ATOM     28  C   UNL     1      37.636 -26.477 -14.957  0.00  0.00    +0.019 C 
ATOM     29  C   UNL     1      38.356 -25.516 -14.284  0.00  0.00    +0.087 C 
ENDBRANCH  22  26
ENDBRANCH  19  21
ENDBRANCH  18  19
ENDBRANCH   2  18
TORSDOF 6
ENDMDL
MODEL 4
REMARK VINA RESULT:     -10.9      6.227     11.926
REMARK  Name = 10250490
REMARK  6 active torsions:
REMARK  status: ('A' for Active; 'I' for Inactive)
REMARK    1  A    between atoms: N_2  and  C_18
REMARK    2  A    between atoms: C_3  and  C_6
REMARK    3  A    between atoms: C_5  and  N_12
REMARK    4  A    between atoms: C_18  and  C_19
REMARK    5  A    between atoms: C_19  and  N_21
REMARK    6  A    between atoms: C_22  and  C_26
REMARK                            x       y       z     vdW  Elec       q    Type
REMARK                         _______ _______ _______ _____ _____    ______ ____
ROOT
ATOM      1  O   UNL     1      34.634 -16.271 -25.892  0.00  0.00    -0.270 OA
ATOM      2  N   UNL     1      33.318 -15.044 -24.430  0.00  0.00    -0.299 N 
ATOM      3  C   UNL     1      34.129 -16.134 -24.764  0.00  0.00    +0.246 C 
ATOM      4  H   UNL     1      32.951 -14.997 -23.518  0.00  0.00    +0.150 HD
ENDROOT
BRANCH   3   6
ATOM      5  C   UNL     1      34.761 -19.056 -21.750  0.00  0.00    +0.058 C 
ATOM      6  C   UNL     1      34.346 -17.135 -23.732  0.00  0.00    +0.053 C 
ATOM      7  C   UNL     1      34.818 -19.417 -23.097  0.00  0.00    +0.015 C 
ATOM      8  C   UNL     1      34.497 -17.732 -21.396  0.00  0.00    +0.015 C 
ATOM      9  C   UNL     1      34.611 -18.457 -24.087  0.00  0.00    +0.006 C 
ATOM     10  C   UNL     1      34.289 -16.772 -22.386  0.00  0.00    +0.006 C 
BRANCH   5  12
ATOM     11  O   UNL     1      32.676 -20.526 -20.388  0.00  0.00    -0.269 OA
ATOM     12  N   UNL     1      34.975 -20.054 -20.721  0.00  0.00    -0.233 N 
ATOM     13  C   UNL     1      33.867 -20.737 -20.157  0.00  0.00    +0.257 C 
ATOM     14  C   UNL     1      36.264 -20.335 -20.264  0.00  0.00    +0.072 C 
ATOM     15  C   UNL     1      34.180 -21.785 -19.136  0.00  0.00    +0.059 C 
ATOM     16  C   UNL     1      36.516 -21.254 -19.326  0.00  0.00    +0.017 C 
ATOM     17  C   UNL     1      35.440 -22.004 -18.751  0.00  0.00    +0.006 C 
ENDBRANCH   5  12
ENDBRANCH   3   6
BRANCH   2  18
ATOM     18  C   UNL     1      32.990 -13.980 -25.352  0.00  0.00    +0.111 C 
BRANCH  18  19
ATOM     19  C   UNL     1      34.110 -12.959 -25.473  0.00  0.00    +0.111 C 
BRANCH  19  21
ATOM     20  O   UNL     1      35.443 -10.428 -25.710  0.00  0.00    -0.270 OA
ATOM     21  N   UNL     1      33.843 -11.773 -24.705  0.00  0.00    -0.299 N 
ATOM     22  C   UNL     1      34.543 -10.587 -24.890  0.00  0.00    +0.252 C 
ATOM     23  H   UNL     1      33.135 -11.803 -24.020  0.00  0.00    +0.150 HD
BRANCH  22  26
ATOM     24 CL   UNL     1      31.896  -7.443 -21.271  0.00  0.00    -0.075 Cl
ATOM     25  S   UNL     1      32.757  -9.626 -23.090  0.00  0.00    -0.071 S 
ATOM     26  C   UNL     1      34.165  -9.460 -23.999  0.00  0.00    +0.084 C 
ATOM     27  C   UNL     1      34.831  -8.306 -23.835  0.00  0.00    +0.012 C 
ATOM     28  C   UNL     1      34.151  -7.477 -22.895  0.00  0.00    +0.019 C 
ATOM     29  C   UNL     1      33.008  -8.074 -22.412  0.00  0.00    +0.087 C 
ENDBRANCH  22  26
ENDBRANCH  19  21
ENDBRANCH  18  19
ENDBRANCH   2  18
TORSDOF 6
ENDMDL
MODEL 5
REMARK VINA RESULT:     -10.9      6.252      9.881
REMARK  Name = 10250490
REMARK  6 active torsions:
REMARK  status: ('A' for Active; 'I' for Inactive)
REMARK    1  A    between atoms: N_2  and  C_18
REMARK    2  A    between atoms: C_3  and  C_6
REMARK    3  A    between atoms: C_5  and  N_12
REMARK    4  A    between atoms: C_18  and  C_19
REMARK    5  A    between atoms: C_19  and  N_21
REMARK    6  A    between atoms: C_22  and  C_26
REMARK                            x       y       z     vdW  Elec       q    Type
REMARK                         _______ _______ _______ _____ _____    ______ ____
ROOT
ATOM      1  O   UNL     1      32.355 -14.830 -22.126  0.00  0.00    -0.270 OA
ATOM      2  N   UNL     1      33.632 -14.367 -24.005  0.00  0.00    -0.299 N 
ATOM      3  C   UNL     1      32.838 -13.998 -22.914  0.00  0.00    +0.246 C 
ATOM      4  H   UNL     1      33.983 -13.657 -24.589  0.00  0.00    +0.150 HD
ENDROOT
BRANCH   3   6
ATOM      5  C   UNL     1      32.063  -9.855 -22.409  0.00  0.00    +0.058 C 
ATOM      6  C   UNL     1      32.573 -12.578 -22.742  0.00  0.00    +0.053 C 
ATOM      7  C   UNL     1      33.013 -10.280 -23.339  0.00  0.00    +0.015 C 
ATOM      8  C   UNL     1      31.367 -10.793 -21.646  0.00  0.00    +0.015 C 
ATOM      9  C   UNL     1      33.267 -11.641 -23.505  0.00  0.00    +0.006 C 
ATOM     10  C   UNL     1      31.622 -12.155 -21.812  0.00  0.00    +0.006 C 
BRANCH   5  12
ATOM     11  O   UNL     1      32.669  -8.320 -20.034  0.00  0.00    -0.269 OA
ATOM     12  N   UNL     1      31.800  -8.440 -22.236  0.00  0.00    -0.233 N 
ATOM     13  C   UNL     1      32.182  -7.791 -21.034  0.00  0.00    +0.257 C 
ATOM     14  C   UNL     1      31.151  -7.713 -23.236  0.00  0.00    +0.072 C 
ATOM     15  C   UNL     1      31.917  -6.321 -20.957  0.00  0.00    +0.059 C 
ATOM     16  C   UNL     1      30.894  -6.404 -23.130  0.00  0.00    +0.017 C 
ATOM     17  C   UNL     1      31.297  -5.689 -21.956  0.00  0.00    +0.006 C 
ENDBRANCH   5  12
ENDBRANCH   3   6
BRANCH   2  18
ATOM     18  C   UNL     1      33.965 -15.738 -24.323  0.00  0.00    +0.111 C 
BRANCH  18  19
ATOM     19  C   UNL     1      35.021 -16.303 -23.387  0.00  0.00    +0.111 C 
BRANCH  19  21
ATOM     20  O   UNL     1      36.494 -18.444 -22.168  0.00  0.00    -0.270 OA
ATOM     21  N   UNL     1      34.491 -17.336 -22.538  0.00  0.00    -0.299 N 
ATOM     22  C   UNL     1      35.284 -18.336 -21.990  0.00  0.00    +0.252 C 
ATOM     23  H   UNL     1      33.526 -17.333 -22.337  0.00  0.00    +0.150 HD
BRANCH  22  26
ATOM     24 CL   UNL     1      34.234 -22.581 -18.693  0.00  0.00    -0.075 Cl
ATOM     25  S   UNL     1      35.522 -20.512 -20.391  0.00  0.00    -0.071 S 
ATOM     26  C   UNL     1      34.580 -19.344 -21.155  0.00  0.00    +0.084 C 
ATOM     27  C   UNL     1      33.259 -19.428 -20.939  0.00  0.00    +0.012 C 
ATOM     28  C   UNL     1      32.972 -20.531 -20.082  0.00  0.00    +0.019 C 
ATOM     29  C   UNL     1      34.113 -21.206 -19.709  0.00  0.00    +0.087 C 
ENDBRANCH  22  26
ENDBRANCH  19  21
ENDBRANCH  18  19
ENDBRANCH   2  18
TORSDOF 6
ENDMDL
MODEL 6
REMARK VINA RESULT:     -10.6      5.164      9.092
REMARK  Name = 10250490
REMARK  6 active torsions:
REMARK  status: ('A' for Active; 'I' for Inactive)
REMARK    1  A    between atoms: N_2  and  C_18
REMARK    2  A    between atoms: C_3  and  C_6
REMARK    3  A    between atoms: C_5  and  N_12
REMARK    4  A    between atoms: C_18  and  C_19
REMARK    5  A    between atoms: C_19  and  N_21
REMARK    6  A    between atoms: C_22  and  C_26
REMARK                            x       y       z     vdW  Elec       q    Type
REMARK                         _______ _______ _______ _____ _____    ______ ____
ROOT
ATOM      1  O   UNL     1      32.764 -15.622 -26.552  0.00  0.00    -0.270 OA
ATOM      2  N   UNL     1      34.064 -16.271 -24.746  0.00  0.00    -0.299 N 
ATOM      3  C   UNL     1      33.378 -15.324 -25.513  0.00  0.00    +0.246 C 
ATOM      4  H   UNL     1      34.529 -15.966 -23.933  0.00  0.00    +0.150 HD
ENDROOT
BRANCH   3   6
ATOM      5  C   UNL     1      33.523 -11.295 -24.182  0.00  0.00    +0.058 C 
ATOM      6  C   UNL     1      33.428 -13.944 -25.056  0.00  0.00    +0.053 C 
ATOM      7  C   UNL     1      33.212 -12.317 -23.284  0.00  0.00    +0.015 C 
ATOM      8  C   UNL     1      33.787 -11.599 -25.518  0.00  0.00    +0.015 C 
ATOM      9  C   UNL     1      33.165 -13.640 -23.721  0.00  0.00    +0.006 C 
ATOM     10  C   UNL     1      33.739 -12.923 -25.955  0.00  0.00    +0.006 C 
BRANCH   5  12
ATOM     11  O   UNL     1      31.426  -9.945 -22.717  0.00  0.00    -0.269 OA
ATOM     12  N   UNL     1      33.570  -9.919 -23.728  0.00  0.00    -0.233 N 
ATOM     13  C   UNL     1      32.490  -9.384 -22.980  0.00  0.00    +0.257 C 
ATOM     14  C   UNL     1      34.663  -9.108 -24.039  0.00  0.00    +0.072 C 
ATOM     15  C   UNL     1      32.641  -7.972 -22.510  0.00  0.00    +0.059 C 
ATOM     16  C   UNL     1      34.761  -7.837 -23.635  0.00  0.00    +0.017 C 
ATOM     17  C   UNL     1      33.719  -7.257 -22.841  0.00  0.00    +0.006 C 
ENDBRANCH   5  12
ENDBRANCH   3   6
BRANCH   2  18
ATOM     18  C   UNL     1      34.127 -17.676 -25.081  0.00  0.00    +0.111 C 
BRANCH  18  19
ATOM     19  C   UNL     1      35.237 -18.396 -24.333  0.00  0.00    +0.111 C 
BRANCH  19  21
ATOM     20  O   UNL     1      35.111 -17.700 -21.551  0.00  0.00    -0.270 OA
ATOM     21  N   UNL     1      34.726 -19.213 -23.266  0.00  0.00    -0.299 N 
ATOM     22  C   UNL     1      34.706 -18.791 -21.942  0.00  0.00    +0.252 C 
ATOM     23  H   UNL     1      34.378 -20.108 -23.483  0.00  0.00    +0.150 HD
BRANCH  22  26
ATOM     24 CL   UNL     1      34.330 -22.741 -18.167  0.00  0.00    -0.075 Cl
ATOM     25  S   UNL     1      35.277 -20.756 -20.164  0.00  0.00    -0.071 S 
ATOM     26  C   UNL     1      34.170 -19.763 -20.955  0.00  0.00    +0.084 C 
ATOM     27  C   UNL     1      32.883 -19.942 -20.618  0.00  0.00    +0.012 C 
ATOM     28  C   UNL     1      32.772 -20.969 -19.636  0.00  0.00    +0.019 C 
ATOM     29  C   UNL     1      33.998 -21.497 -19.298  0.00  0.00    +0.087 C 
ENDBRANCH  22  26
ENDBRANCH  19  21
ENDBRANCH  18  19
ENDBRANCH   2  18
TORSDOF 6
ENDMDL
MODEL 7
REMARK VINA RESULT:     -10.5      4.125      9.923
REMARK  Name = 10250490
REMARK  6 active torsions:
REMARK  status: ('A' for Active; 'I' for Inactive)
REMARK    1  A    between atoms: N_2  and  C_18
REMARK    2  A    between atoms: C_3  and  C_6
REMARK    3  A    between atoms: C_5  and  N_12
REMARK    4  A    between atoms: C_18  and  C_19
REMARK    5  A    between atoms: C_19  and  N_21
REMARK    6  A    between atoms: C_22  and  C_26
REMARK                            x       y       z     vdW  Elec       q    Type
REMARK                         _______ _______ _______ _____ _____    ______ ____
ROOT
ATOM      1  O   UNL     1      33.031 -22.134 -19.599  0.00  0.00    -0.270 OA
ATOM      2  N   UNL     1      34.777 -20.625 -19.818  0.00  0.00    -0.299 N 
ATOM      3  C   UNL     1      34.119 -21.691 -19.194  0.00  0.00    +0.246 C 
ATOM      4  H   UNL     1      35.637 -20.324 -19.445  0.00  0.00    +0.150 HD
ENDROOT
BRANCH   3   6
ATOM      5  C   UNL     1      35.974 -23.352 -15.756  0.00  0.00    +0.058 C 
ATOM      6  C   UNL     1      34.755 -22.259 -18.016  0.00  0.00    +0.053 C 
ATOM      7  C   UNL     1      36.701 -22.520 -16.608  0.00  0.00    +0.015 C 
ATOM      8  C   UNL     1      34.637 -23.637 -16.035  0.00  0.00    +0.015 C 
ATOM      9  C   UNL     1      36.091 -21.973 -17.737  0.00  0.00    +0.006 C 
ATOM     10  C   UNL     1      34.028 -23.091 -17.164  0.00  0.00    +0.006 C 
BRANCH   5  12
ATOM     11  O   UNL     1      36.885 -26.086 -15.508  0.00  0.00    -0.269 OA
ATOM     12  N   UNL     1      36.609 -23.921 -14.583  0.00  0.00    -0.233 N 
ATOM     13  C   UNL     1      37.048 -25.270 -14.601  0.00  0.00    +0.257 C 
ATOM     14  C   UNL     1      36.771 -23.157 -13.426  0.00  0.00    +0.072 C 
ATOM     15  C   UNL     1      37.735 -25.763 -13.367  0.00  0.00    +0.059 C 
ATOM     16  C   UNL     1      37.359 -23.631 -12.321  0.00  0.00    +0.017 C 
ATOM     17  C   UNL     1      37.861 -24.973 -12.297  0.00  0.00    +0.006 C 
ENDBRANCH   5  12
ENDBRANCH   3   6
BRANCH   2  18
ATOM     18  C   UNL     1      34.262 -19.940 -20.982  0.00  0.00    +0.111 C 
BRANCH  18  19
ATOM     19  C   UNL     1      35.330 -19.121 -21.686  0.00  0.00    +0.111 C 
BRANCH  19  21
ATOM     20  O   UNL     1      35.257 -16.630 -20.260  0.00  0.00    -0.270 OA
ATOM     21  N   UNL     1      34.817 -17.868 -22.172  0.00  0.00    -0.299 N 
ATOM     22  C   UNL     1      34.823 -16.709 -21.406  0.00  0.00    +0.252 C 
ATOM     23  H   UNL     1      34.445 -17.832 -23.083  0.00  0.00    +0.150 HD
BRANCH  22  26
ATOM     24 CL   UNL     1      31.811 -12.230 -22.332  0.00  0.00    -0.075 Cl
ATOM     25  S   UNL     1      33.067 -14.656 -21.169  0.00  0.00    -0.071 S 
ATOM     26  C   UNL     1      34.232 -15.503 -22.043  0.00  0.00    +0.084 C 
ATOM     27  C   UNL     1      34.526 -15.007 -23.254  0.00  0.00    +0.012 C 
ATOM     28  C   UNL     1      33.747 -13.840 -23.508  0.00  0.00    +0.019 C 
ATOM     29  C   UNL     1      32.912 -13.537 -22.456  0.00  0.00    +0.087 C 
ENDBRANCH  22  26
ENDBRANCH  19  21
ENDBRANCH  18  19
ENDBRANCH   2  18
TORSDOF 6
ENDMDL
MODEL 8
REMARK VINA RESULT:     -10.4      6.075      9.709
REMARK  Name = 10250490
REMARK  6 active torsions:
REMARK  status: ('A' for Active; 'I' for Inactive)
REMARK    1  A    between atoms: N_2  and  C_18
REMARK    2  A    between atoms: C_3  and  C_6
REMARK    3  A    between atoms: C_5  and  N_12
REMARK    4  A    between atoms: C_18  and  C_19
REMARK    5  A    between atoms: C_19  and  N_21
REMARK    6  A    between atoms: C_22  and  C_26
REMARK                            x       y       z     vdW  Elec       q    Type
REMARK                         _______ _______ _______ _____ _____    ______ ____
ROOT
ATOM      1  O   UNL     1      33.112 -14.150 -25.547  0.00  0.00    -0.270 OA
ATOM      2  N   UNL     1      34.019 -14.820 -23.522  0.00  0.00    -0.299 N 
ATOM      3  C   UNL     1      33.395 -13.893 -24.364  0.00  0.00    +0.246 C 
ATOM      4  H   UNL     1      34.214 -14.551 -22.595  0.00  0.00    +0.150 HD
ENDROOT
BRANCH   3   6
ATOM      5  C   UNL     1      32.548 -10.070 -22.725  0.00  0.00    +0.058 C 
ATOM      6  C   UNL     1      33.105 -12.583 -23.804  0.00  0.00    +0.053 C 
ATOM      7  C   UNL     1      33.444 -10.191 -23.788  0.00  0.00    +0.015 C 
ATOM      8  C   UNL     1      31.930 -11.206 -22.202  0.00  0.00    +0.015 C 
ATOM      9  C   UNL     1      33.722 -11.447 -24.327  0.00  0.00    +0.006 C 
ATOM     10  C   UNL     1      32.209 -12.462 -22.741  0.00  0.00    +0.006 C 
BRANCH   5  12
ATOM     11  O   UNL     1      31.208  -7.914 -24.111  0.00  0.00    -0.269 OA
ATOM     12  N   UNL     1      32.261  -8.764 -22.165  0.00  0.00    -0.233 N 
ATOM     13  C   UNL     1      31.559  -7.802 -22.937  0.00  0.00    +0.257 C 
ATOM     14  C   UNL     1      32.690  -8.436 -20.877  0.00  0.00    +0.072 C 
ATOM     15  C   UNL     1      31.262  -6.499 -22.266  0.00  0.00    +0.059 C 
ATOM     16  C   UNL     1      32.441  -7.250 -20.310  0.00  0.00    +0.017 C 
ATOM     17  C   UNL     1      31.699  -6.257 -21.027  0.00  0.00    +0.006 C 
ENDBRANCH   5  12
ENDBRANCH   3   6
BRANCH   2  18
ATOM     18  C   UNL     1      34.392 -16.153 -23.938  0.00  0.00    +0.111 C 
BRANCH  18  19
ATOM     19  C   UNL     1      35.335 -16.820 -22.950  0.00  0.00    +0.111 C 
BRANCH  19  21
ATOM     20  O   UNL     1      36.595 -18.834 -21.340  0.00  0.00    -0.270 OA
ATOM     21  N   UNL     1      34.676 -17.837 -22.177  0.00  0.00    -0.299 N 
ATOM     22  C   UNL     1      35.372 -18.775 -21.424  0.00  0.00    +0.252 C 
ATOM     23  H   UNL     1      33.692 -17.870 -22.182  0.00  0.00    +0.150 HD
BRANCH  22  26
ATOM     24 CL   UNL     1      33.813 -23.076 -18.415  0.00  0.00    -0.075 Cl
ATOM     25  S   UNL     1      35.353 -21.014 -19.895  0.00  0.00    -0.071 S 
ATOM     26  C   UNL     1      34.545 -19.776 -20.702  0.00  0.00    +0.084 C 
ATOM     27  C   UNL     1      33.205 -19.806 -20.621  0.00  0.00    +0.012 C 
ATOM     28  C   UNL     1      32.787 -20.923 -19.841  0.00  0.00    +0.019 C 
ATOM     29  C   UNL     1      33.854 -21.663 -19.383  0.00  0.00    +0.087 C 
ENDBRANCH  22  26
ENDBRANCH  19  21
ENDBRANCH  18  19
ENDBRANCH   2  18
TORSDOF 6
ENDMDL
MODEL 9
REMARK VINA RESULT:     -10.4      4.331     10.028
REMARK  Name = 10250490
REMARK  6 active torsions:
REMARK  status: ('A' for Active; 'I' for Inactive)
REMARK    1  A    between atoms: N_2  and  C_18
REMARK    2  A    between atoms: C_3  and  C_6
REMARK    3  A    between atoms: C_5  and  N_12
REMARK    4  A    between atoms: C_18  and  C_19
REMARK    5  A    between atoms: C_19  and  N_21
REMARK    6  A    between atoms: C_22  and  C_26
REMARK                            x       y       z     vdW  Elec       q    Type
REMARK                         _______ _______ _______ _____ _____    ______ ____
ROOT
ATOM      1  O   UNL     1      33.120 -21.995 -19.547  0.00  0.00    -0.270 OA
ATOM      2  N   UNL     1      35.035 -20.706 -19.748  0.00  0.00    -0.299 N 
ATOM      3  C   UNL     1      34.245 -21.677 -19.125  0.00  0.00    +0.246 C 
ATOM      4  H   UNL     1      35.918 -20.503 -19.362  0.00  0.00    +0.150 HD
ENDROOT
BRANCH   3   6
ATOM      5  C   UNL     1      35.829 -23.492 -15.630  0.00  0.00    +0.058 C 
ATOM      6  C   UNL     1      34.787 -22.300 -17.928  0.00  0.00    +0.053 C 
ATOM      7  C   UNL     1      34.508 -23.738 -16.007  0.00  0.00    +0.015 C 
ATOM      8  C   UNL     1      36.629 -22.650 -16.403  0.00  0.00    +0.015 C 
ATOM      9  C   UNL     1      33.988 -23.142 -17.156  0.00  0.00    +0.006 C 
ATOM     10  C   UNL     1      36.108 -22.054 -17.551  0.00  0.00    +0.006 C 
BRANCH   5  12
ATOM     11  O   UNL     1      36.767 -26.221 -15.438  0.00  0.00    -0.269 OA
ATOM     12  N   UNL     1      36.369 -24.111 -14.435  0.00  0.00    -0.233 N 
ATOM     13  C   UNL     1      36.834 -25.450 -14.481  0.00  0.00    +0.257 C 
ATOM     14  C   UNL     1      36.414 -23.405 -13.231  0.00  0.00    +0.072 C 
ATOM     15  C   UNL     1      37.420 -25.995 -13.217  0.00  0.00    +0.059 C 
ATOM     16  C   UNL     1      36.912 -23.926 -12.104  0.00  0.00    +0.017 C 
ATOM     17  C   UNL     1      37.436 -25.260 -12.102  0.00  0.00    +0.006 C 
ENDBRANCH   5  12
ENDBRANCH   3   6
BRANCH   2  18
ATOM     18  C   UNL     1      34.627 -19.982 -20.931  0.00  0.00    +0.111 C 
BRANCH  18  19
ATOM     19  C   UNL     1      35.646 -18.932 -21.342  0.00  0.00    +0.111 C 
BRANCH  19  21
ATOM     20  O   UNL     1      35.065 -16.314 -20.318  0.00  0.00    -0.270 OA
ATOM     21  N   UNL     1      35.039 -17.844 -22.061  0.00  0.00    -0.299 N 
ATOM     22  C   UNL     1      34.795 -16.606 -21.480  0.00  0.00    +0.252 C 
ATOM     23  H   UNL     1      34.786 -17.984 -23.003  0.00  0.00    +0.150 HD
BRANCH  22  26
ATOM     24 CL   UNL     1      32.983 -13.858 -25.857  0.00  0.00    -0.075 Cl
ATOM     25  S   UNL     1      34.255 -15.809 -24.015  0.00  0.00    -0.071 S 
ATOM     26  C   UNL     1      34.137 -15.595 -22.349  0.00  0.00    +0.084 C 
ATOM     27  C   UNL     1      33.451 -14.514 -21.947  0.00  0.00    +0.012 C 
ATOM     28  C   UNL     1      32.974 -13.789 -23.078  0.00  0.00    +0.019 C 
ATOM     29  C   UNL     1      33.340 -14.384 -24.266  0.00  0.00    +0.087 C 
ENDBRANCH  22  26
ENDBRANCH  19  21
ENDBRANCH  18  19
ENDBRANCH   2  18
TORSDOF 6
ENDMDL
