MODEL 1
REMARK VINA RESULT:      -9.0      0.000      0.000
REMARK  Name = 114811
REMARK  7 active torsions:
REMARK  status: ('A' for Active; 'I' for Inactive)
REMARK    1  A    between atoms: C_1  and  C_2
REMARK    2  A    between atoms: C_1  and  O_12
REMARK    3  A    between atoms: C_1  and  C_14
REMARK    4  A    between atoms: C_5  and  S_8
REMARK    5  A    between atoms: C_14  and  N_16
REMARK    6  A    between atoms: C_14  and  C_23
REMARK    7  A    between atoms: C_17  and  C_21
REMARK                            x       y       z     vdW  Elec       q    Type
REMARK                         _______ _______ _______ _____ _____    ______ ____
ROOT
ATOM      1  C   UNL     1      35.186 -17.744 -22.111  0.00  0.00    +0.153 C 
ENDROOT
BRANCH   1   2
ATOM      2  C   UNL     1      34.823 -18.957 -21.285  0.00  0.00    +0.006 C 
ATOM      3  C   UNL     1      33.488 -19.246 -21.057  0.00  0.00    -0.001 C 
ATOM      4  C   UNL     1      35.833 -19.754 -20.772  0.00  0.00    -0.001 C 
ATOM      5  C   UNL     1      34.158 -21.179 -19.771  0.00  0.00    +0.106 C 
ATOM      6  C   UNL     1      33.154 -20.365 -20.294  0.00  0.00    +0.018 C 
ATOM      7  C   UNL     1      35.499 -20.873 -20.010  0.00  0.00    +0.018 C 
BRANCH   5   8
ATOM      8  S   UNL     1      33.739 -22.579 -18.818  0.00  0.00    +0.010 S 
ATOM      9  O   UNL     1      32.409 -22.365 -18.265  0.00  0.00    -0.169 OA
ATOM     10  O   UNL     1      34.010 -23.779 -19.598  0.00  0.00    -0.169 OA
ATOM     11  C   UNL     1      34.900 -22.563 -17.472  0.00  0.00    +0.182 C 
ENDBRANCH   5   8
ENDBRANCH   1   2
BRANCH   1  12
ATOM     12  O   UNL     1      35.046 -18.115 -23.487  0.00  0.00    -0.378 OA
ATOM     13  H   UNL     1      35.912 -18.070 -23.923  0.00  0.00    +0.211 HD
ENDBRANCH   1  12
BRANCH   1  14
ATOM     14  C   UNL     1      34.316 -16.504 -21.821  0.00  0.00    +0.138 C 
BRANCH  14  16
ATOM     15  O   UNL     1      32.334 -14.592 -22.621  0.00  0.00    -0.272 OA
ATOM     16  N   UNL     1      34.416 -15.566 -22.922  0.00  0.00    -0.299 N 
ATOM     17  C   UNL     1      33.401 -14.679 -23.229  0.00  0.00    +0.253 C 
ATOM     18  H   UNL     1      35.235 -15.560 -23.469  0.00  0.00    +0.150 HD
BRANCH  17  21
ATOM     19 CL   UNL     1      32.706 -14.291 -25.769  0.00  0.00    -0.087 Cl
ATOM     20 CL   UNL     1      33.434 -12.120 -23.955  0.00  0.00    -0.087 Cl
ATOM     21  C   UNL     1      33.737 -13.803 -24.413  0.00  0.00    +0.234 C 
ENDBRANCH  17  21
ENDBRANCH  14  16
BRANCH  14  23
ATOM     22  F   UNL     1      33.569 -15.340 -19.910  0.00  0.00    -0.232 F 
ATOM     23  C   UNL     1      34.695 -15.793 -20.525  0.00  0.00    +0.215 C 
ENDBRANCH  14  23
ENDBRANCH   1  14
TORSDOF 7
ENDMDL
MODEL 2
REMARK VINA RESULT:      -9.0      2.249      2.566
REMARK  Name = 114811
REMARK  7 active torsions:
REMARK  status: ('A' for Active; 'I' for Inactive)
REMARK    1  A    between atoms: C_1  and  C_2
REMARK    2  A    between atoms: C_1  and  O_12
REMARK    3  A    between atoms: C_1  and  C_14
REMARK    4  A    between atoms: C_5  and  S_8
REMARK    5  A    between atoms: C_14  and  N_16
REMARK    6  A    between atoms: C_14  and  C_23
REMARK    7  A    between atoms: C_17  and  C_21
REMARK                            x       y       z     vdW  Elec       q    Type
REMARK                         _______ _______ _______ _____ _____    ______ ____
ROOT
ATOM      1  C   UNL     1      35.944 -18.230 -22.000  0.00  0.00    +0.153 C 
ENDROOT
BRANCH   1   2
ATOM      2  C   UNL     1      35.379 -19.352 -21.159  0.00  0.00    +0.006 C 
ATOM      3  C   UNL     1      34.010 -19.431 -20.966  0.00  0.00    -0.001 C 
ATOM      4  C   UNL     1      36.243 -20.279 -20.598  0.00  0.00    -0.001 C 
ATOM      5  C   UNL     1      34.344 -21.408 -19.619  0.00  0.00    +0.106 C 
ATOM      6  C   UNL     1      33.489 -20.466 -20.190  0.00  0.00    +0.018 C 
ATOM      7  C   UNL     1      35.722 -21.314 -19.823  0.00  0.00    +0.018 C 
BRANCH   5   8
ATOM      8  S   UNL     1      33.692 -22.704 -18.649  0.00  0.00    +0.010 S 
ATOM      9  O   UNL     1      32.348 -22.323 -18.235  0.00  0.00    -0.169 OA
ATOM     10  O   UNL     1      33.901 -23.966 -19.345  0.00  0.00    -0.169 OA
ATOM     11  C   UNL     1      34.722 -22.735 -17.200  0.00  0.00    +0.182 C 
ENDBRANCH   5   8
ENDBRANCH   1   2
BRANCH   1  12
ATOM     12  O   UNL     1      37.360 -18.430 -22.070  0.00  0.00    -0.378 OA
ATOM     13  H   UNL     1      37.786 -17.616 -22.381  0.00  0.00    +0.211 HD
ENDBRANCH   1  12
BRANCH   1  14
ATOM     14  C   UNL     1      35.363 -18.161 -23.427  0.00  0.00    +0.138 C 
BRANCH  14  16
ATOM     15  O   UNL     1      34.858 -16.682 -25.831  0.00  0.00    -0.272 OA
ATOM     16  N   UNL     1      34.523 -16.988 -23.558  0.00  0.00    -0.299 N 
ATOM     17  C   UNL     1      34.341 -16.342 -24.767  0.00  0.00    +0.253 C 
ATOM     18  H   UNL     1      34.065 -16.639 -22.758  0.00  0.00    +0.150 HD
BRANCH  17  21
ATOM     19 CL   UNL     1      34.179 -13.971 -23.568  0.00  0.00    -0.087 Cl
ATOM     20 CL   UNL     1      33.196 -14.471 -26.272  0.00  0.00    -0.087 Cl
ATOM     21  C   UNL     1      33.421 -15.148 -24.653  0.00  0.00    +0.234 C 
ENDBRANCH  17  21
ENDBRANCH  14  16
BRANCH  14  23
ATOM     22  F   UNL     1      34.885 -19.784 -25.071  0.00  0.00    -0.232 F 
ATOM     23  C   UNL     1      34.555 -19.398 -23.809  0.00  0.00    +0.215 C 
ENDBRANCH  14  23
ENDBRANCH   1  14
TORSDOF 7
ENDMDL
MODEL 3
REMARK VINA RESULT:      -8.3      6.130      8.760
REMARK  Name = 114811
REMARK  7 active torsions:
REMARK  status: ('A' for Active; 'I' for Inactive)
REMARK    1  A    between atoms: C_1  and  C_2
REMARK    2  A    between atoms: C_1  and  O_12
REMARK    3  A    between atoms: C_1  and  C_14
REMARK    4  A    between atoms: C_5  and  S_8
REMARK    5  A    between atoms: C_14  and  N_16
REMARK    6  A    between atoms: C_14  and  C_23
REMARK    7  A    between atoms: C_17  and  C_21
REMARK                            x       y       z     vdW  Elec       q    Type
REMARK                         _______ _______ _______ _____ _____    ______ ____
ROOT
ATOM      1  C   UNL     1      33.183 -23.096 -18.380  0.00  0.00    +0.153 C 
ENDROOT
BRANCH   1   2
ATOM      2  C   UNL     1      33.850 -21.972 -19.140  0.00  0.00    +0.006 C 
ATOM      3  C   UNL     1      35.233 -21.900 -19.169  0.00  0.00    -0.001 C 
ATOM      4  C   UNL     1      33.063 -21.035 -19.792  0.00  0.00    -0.001 C 
ATOM      5  C   UNL     1      35.069 -19.911 -20.533  0.00  0.00    +0.106 C 
ATOM      6  C   UNL     1      35.846 -20.861 -19.870  0.00  0.00    +0.018 C 
ATOM      7  C   UNL     1      33.677 -19.998 -20.493  0.00  0.00    +0.018 C 
BRANCH   5   8
ATOM      8  S   UNL     1      35.838 -18.614 -21.411  0.00  0.00    +0.010 S 
ATOM      9  O   UNL     1      35.384 -17.354 -20.840  0.00  0.00    -0.169 OA
ATOM     10  O   UNL     1      37.265 -18.890 -21.507  0.00  0.00    -0.169 OA
ATOM     11  C   UNL     1      35.174 -18.739 -23.056  0.00  0.00    +0.182 C 
ENDBRANCH   5   8
ENDBRANCH   1   2
BRANCH   1  12
ATOM     12  O   UNL     1      33.844 -24.308 -18.758  0.00  0.00    -0.378 OA
ATOM     13  H   UNL     1      33.897 -24.358 -19.726  0.00  0.00    +0.211 HD
ENDBRANCH   1  12
BRANCH   1  14
ATOM     14  C   UNL     1      33.240 -22.936 -16.847  0.00  0.00    +0.138 C 
BRANCH  14  16
ATOM     15  O   UNL     1      35.675 -22.174 -15.539  0.00  0.00    -0.272 OA
ATOM     16  N   UNL     1      34.239 -23.828 -16.297  0.00  0.00    -0.299 N 
ATOM     17  C   UNL     1      35.387 -23.362 -15.682  0.00  0.00    +0.253 C 
ATOM     18  H   UNL     1      34.097 -24.801 -16.362  0.00  0.00    +0.150 HD
BRANCH  17  21
ATOM     19 CL   UNL     1      37.952 -23.918 -15.243  0.00  0.00    -0.087 Cl
ATOM     20 CL   UNL     1      35.788 -24.875 -13.531  0.00  0.00    -0.087 Cl
ATOM     21  C   UNL     1      36.274 -24.481 -15.186  0.00  0.00    +0.234 C 
ENDBRANCH  17  21
ENDBRANCH  14  16
BRANCH  14  23
ATOM     22  F   UNL     1      30.919 -22.512 -16.802  0.00  0.00    -0.232 F 
ATOM     23  C   UNL     1      31.901 -23.204 -16.164  0.00  0.00    +0.215 C 
ENDBRANCH  14  23
ENDBRANCH   1  14
TORSDOF 7
ENDMDL
MODEL 4
REMARK VINA RESULT:      -8.2      9.289     10.891
REMARK  Name = 114811
REMARK  7 active torsions:
REMARK  status: ('A' for Active; 'I' for Inactive)
REMARK    1  A    between atoms: C_1  and  C_2
REMARK    2  A    between atoms: C_1  and  O_12
REMARK    3  A    between atoms: C_1  and  C_14
REMARK    4  A    between atoms: C_5  and  S_8
REMARK    5  A    between atoms: C_14  and  N_16
REMARK    6  A    between atoms: C_14  and  C_23
REMARK    7  A    between atoms: C_17  and  C_21
REMARK                            x       y       z     vdW  Elec       q    Type
REMARK                         _______ _______ _______ _____ _____    ______ ____
ROOT
ATOM      1  C   UNL     1      34.030 -23.644 -13.900  0.00  0.00    +0.153 C 
ENDROOT
BRANCH   1   2
ATOM      2  C   UNL     1      32.640 -23.470 -14.467  0.00  0.00    +0.006 C 
ATOM      3  C   UNL     1      31.551 -23.488 -13.611  0.00  0.00    -0.001 C 
ATOM      4  C   UNL     1      32.482 -23.296 -15.833  0.00  0.00    -0.001 C 
ATOM      5  C   UNL     1      30.093 -23.151 -15.507  0.00  0.00    +0.106 C 
ATOM      6  C   UNL     1      30.269 -23.328 -14.135  0.00  0.00    +0.018 C 
ATOM      7  C   UNL     1      31.200 -23.135 -16.356  0.00  0.00    +0.018 C 
BRANCH   5   8
ATOM      8  S   UNL     1      28.487 -22.949 -16.162  0.00  0.00    +0.010 S 
ATOM      9  O   UNL     1      27.555 -22.857 -15.046  0.00  0.00    -0.169 OA
ATOM     10  O   UNL     1      28.516 -21.894 -17.166  0.00  0.00    -0.169 OA
ATOM     11  C   UNL     1      28.164 -24.472 -17.020  0.00  0.00    +0.182 C 
ENDBRANCH   5   8
ENDBRANCH   1   2
BRANCH   1  12
ATOM     12  O   UNL     1      33.969 -24.725 -12.963  0.00  0.00    -0.378 OA
ATOM     13  H   UNL     1      33.872 -25.563 -13.443  0.00  0.00    +0.211 HD
ENDBRANCH   1  12
BRANCH   1  14
ATOM     14  C   UNL     1      35.108 -23.944 -14.962  0.00  0.00    +0.138 C 
BRANCH  14  16
ATOM     15  O   UNL     1      36.053 -26.481 -15.909  0.00  0.00    -0.272 OA
ATOM     16  N   UNL     1      36.164 -24.744 -14.377  0.00  0.00    -0.299 N 
ATOM     17  C   UNL     1      36.550 -25.960 -14.910  0.00  0.00    +0.253 C 
ATOM     18  H   UNL     1      36.624 -24.410 -13.572  0.00  0.00    +0.150 HD
BRANCH  17  21
ATOM     19 CL   UNL     1      39.199 -25.882 -14.661  0.00  0.00    -0.087 Cl
ATOM     20 CL   UNL     1      37.388 -26.300 -12.408  0.00  0.00    -0.087 Cl
ATOM     21  C   UNL     1      37.672 -26.604 -14.128  0.00  0.00    +0.234 C 
ENDBRANCH  17  21
ENDBRANCH  14  16
BRANCH  14  23
ATOM     22  F   UNL     1      35.654 -22.766 -16.932  0.00  0.00    -0.232 F 
ATOM     23  C   UNL     1      35.716 -22.686 -15.575  0.00  0.00    +0.215 C 
ENDBRANCH  14  23
ENDBRANCH   1  14
TORSDOF 7
ENDMDL
MODEL 5
REMARK VINA RESULT:      -8.1      7.913     10.885
REMARK  Name = 114811
REMARK  7 active torsions:
REMARK  status: ('A' for Active; 'I' for Inactive)
REMARK    1  A    between atoms: C_1  and  C_2
REMARK    2  A    between atoms: C_1  and  O_12
REMARK    3  A    between atoms: C_1  and  C_14
REMARK    4  A    between atoms: C_5  and  S_8
REMARK    5  A    between atoms: C_14  and  N_16
REMARK    6  A    between atoms: C_14  and  C_23
REMARK    7  A    between atoms: C_17  and  C_21
REMARK                            x       y       z     vdW  Elec       q    Type
REMARK                         _______ _______ _______ _____ _____    ______ ____
ROOT
ATOM      1  C   UNL     1      34.099 -23.820 -13.180  0.00  0.00    +0.153 C 
ENDROOT
BRANCH   1   2
ATOM      2  C   UNL     1      34.049 -23.516 -14.660  0.00  0.00    +0.006 C 
ATOM      3  C   UNL     1      35.198 -23.082 -15.302  0.00  0.00    -0.001 C 
ATOM      4  C   UNL     1      32.855 -23.676 -15.345  0.00  0.00    -0.001 C 
ATOM      5  C   UNL     1      33.957 -22.957 -17.371  0.00  0.00    +0.106 C 
ATOM      6  C   UNL     1      35.151 -22.800 -16.667  0.00  0.00    +0.018 C 
ATOM      7  C   UNL     1      32.809 -23.395 -16.710  0.00  0.00    +0.018 C 
BRANCH   5   8
ATOM      8  S   UNL     1      33.900 -22.605 -19.080  0.00  0.00    +0.010 S 
ATOM      9  O   UNL     1      34.056 -23.860 -19.802  0.00  0.00    -0.169 OA
ATOM     10  O   UNL     1      32.747 -21.757 -19.349  0.00  0.00    -0.169 OA
ATOM     11  C   UNL     1      35.350 -21.620 -19.378  0.00  0.00    +0.182 C 
ENDBRANCH   5   8
ENDBRANCH   1   2
BRANCH   1  12
ATOM     12  O   UNL     1      33.371 -25.037 -12.978  0.00  0.00    -0.378 OA
ATOM     13  H   UNL     1      33.831 -25.765 -13.425  0.00  0.00    +0.211 HD
ENDBRANCH   1  12
BRANCH   1  14
ATOM     14  C   UNL     1      35.527 -23.976 -12.619  0.00  0.00    +0.138 C 
BRANCH  14  16
ATOM     15  O   UNL     1      38.336 -24.203 -13.151  0.00  0.00    -0.272 OA
ATOM     16  N   UNL     1      36.194 -25.082 -13.274  0.00  0.00    -0.299 N 
ATOM     17  C   UNL     1      37.561 -25.099 -13.485  0.00  0.00    +0.253 C 
ATOM     18  H   UNL     1      35.656 -25.849 -13.579  0.00  0.00    +0.150 HD
BRANCH  17  21
ATOM     19 CL   UNL     1      36.826 -26.771 -15.422  0.00  0.00    -0.087 Cl
ATOM     20 CL   UNL     1      39.605 -26.034 -14.907  0.00  0.00    -0.087 Cl
ATOM     21  C   UNL     1      38.023 -26.357 -14.183  0.00  0.00    +0.234 C 
ENDBRANCH  17  21
ENDBRANCH  14  16
BRANCH  14  23
ATOM     22  F   UNL     1      36.606 -23.512 -10.573  0.00  0.00    -0.232 F 
ATOM     23  C   UNL     1      35.560 -24.197 -11.109  0.00  0.00    +0.215 C 
ENDBRANCH  14  23
ENDBRANCH   1  14
TORSDOF 7
ENDMDL
MODEL 6
REMARK VINA RESULT:      -8.0      3.837      5.831
REMARK  Name = 114811
REMARK  7 active torsions:
REMARK  status: ('A' for Active; 'I' for Inactive)
REMARK    1  A    between atoms: C_1  and  C_2
REMARK    2  A    between atoms: C_1  and  O_12
REMARK    3  A    between atoms: C_1  and  C_14
REMARK    4  A    between atoms: C_5  and  S_8
REMARK    5  A    between atoms: C_14  and  N_16
REMARK    6  A    between atoms: C_14  and  C_23
REMARK    7  A    between atoms: C_17  and  C_21
REMARK                            x       y       z     vdW  Elec       q    Type
REMARK                         _______ _______ _______ _____ _____    ______ ____
ROOT
ATOM      1  C   UNL     1      32.775 -13.114 -23.849  0.00  0.00    +0.153 C 
ENDROOT
BRANCH   1   2
ATOM      2  C   UNL     1      33.475 -14.361 -23.355  0.00  0.00    +0.006 C 
ATOM      3  C   UNL     1      33.758 -15.378 -24.250  0.00  0.00    -0.001 C 
ATOM      4  C   UNL     1      33.816 -14.459 -22.016  0.00  0.00    -0.001 C 
ATOM      5  C   UNL     1      34.754 -16.643 -22.449  0.00  0.00    +0.106 C 
ATOM      6  C   UNL     1      34.403 -16.528 -23.793  0.00  0.00    +0.018 C 
ATOM      7  C   UNL     1      34.461 -15.608 -21.560  0.00  0.00    +0.018 C 
BRANCH   5   8
ATOM      8  S   UNL     1      35.562 -18.082 -21.879  0.00  0.00    +0.010 S 
ATOM      9  O   UNL     1      36.734 -18.301 -22.715  0.00  0.00    -0.169 OA
ATOM     10  O   UNL     1      35.714 -17.996 -20.432  0.00  0.00    -0.169 OA
ATOM     11  C   UNL     1      34.408 -19.395 -22.202  0.00  0.00    +0.182 C 
ENDBRANCH   5   8
ENDBRANCH   1   2
BRANCH   1  12
ATOM     12  O   UNL     1      31.961 -12.635 -22.773  0.00  0.00    -0.378 OA
ATOM     13  H   UNL     1      32.388 -11.865 -22.365  0.00  0.00    +0.211 HD
ENDBRANCH   1  12
BRANCH   1  14
ATOM     14  C   UNL     1      33.735 -11.996 -24.306  0.00  0.00    +0.138 C 
BRANCH  14  16
ATOM     15  O   UNL     1      35.266  -9.586 -24.040  0.00  0.00    -0.272 OA
ATOM     16  N   UNL     1      33.250 -10.713 -23.840  0.00  0.00    -0.299 N 
ATOM     17  C   UNL     1      34.070  -9.604 -23.746  0.00  0.00    +0.253 C 
ATOM     18  H   UNL     1      32.303 -10.627 -23.581  0.00  0.00    +0.150 HD
BRANCH  17  21
ATOM     19 CL   UNL     1      34.046  -6.956 -24.013  0.00  0.00    -0.087 Cl
ATOM     20 CL   UNL     1      31.627  -8.555 -23.659  0.00  0.00    -0.087 Cl
ATOM     21  C   UNL     1      33.338  -8.383 -23.239  0.00  0.00    +0.234 C 
ENDBRANCH  17  21
ENDBRANCH  14  16
BRANCH  14  23
ATOM     22  F   UNL     1      33.181 -12.925 -26.403  0.00  0.00    -0.232 F 
ATOM     23  C   UNL     1      33.917 -11.941 -25.820  0.00  0.00    +0.215 C 
ENDBRANCH  14  23
ENDBRANCH   1  14
TORSDOF 7
ENDMDL
MODEL 7
REMARK VINA RESULT:      -8.0      4.951      8.891
REMARK  Name = 114811
REMARK  7 active torsions:
REMARK  status: ('A' for Active; 'I' for Inactive)
REMARK    1  A    between atoms: C_1  and  C_2
REMARK    2  A    between atoms: C_1  and  O_12
REMARK    3  A    between atoms: C_1  and  C_14
REMARK    4  A    between atoms: C_5  and  S_8
REMARK    5  A    between atoms: C_14  and  N_16
REMARK    6  A    between atoms: C_14  and  C_23
REMARK    7  A    between atoms: C_17  and  C_21
REMARK                            x       y       z     vdW  Elec       q    Type
REMARK                         _______ _______ _______ _____ _____    ______ ____
ROOT
ATOM      1  C   UNL     1      32.955 -14.562 -23.283  0.00  0.00    +0.153 C 
ENDROOT
BRANCH   1   2
ATOM      2  C   UNL     1      32.906 -13.051 -23.265  0.00  0.00    +0.006 C 
ATOM      3  C   UNL     1      32.024 -12.412 -22.409  0.00  0.00    -0.001 C 
ATOM      4  C   UNL     1      33.743 -12.336 -24.106  0.00  0.00    -0.001 C 
ATOM      5  C   UNL     1      32.815 -10.283 -23.233  0.00  0.00    +0.106 C 
ATOM      6  C   UNL     1      31.978 -11.018 -22.394  0.00  0.00    +0.018 C 
ATOM      7  C   UNL     1      33.698 -10.943 -24.089  0.00  0.00    +0.018 C 
BRANCH   5   8
ATOM      8  S   UNL     1      32.759  -8.539 -23.211  0.00  0.00    +0.010 S 
ATOM      9  O   UNL     1      34.006  -8.042 -23.775  0.00  0.00    -0.169 OA
ATOM     10  O   UNL     1      31.488  -8.101 -23.773  0.00  0.00    -0.169 OA
ATOM     11  C   UNL     1      32.735  -8.118 -21.484  0.00  0.00    +0.182 C 
ENDBRANCH   5   8
ENDBRANCH   1   2
BRANCH   1  12
ATOM     12  O   UNL     1      33.801 -14.941 -24.374  0.00  0.00    -0.378 OA
ATOM     13  H   UNL     1      33.627 -15.866 -24.610  0.00  0.00    +0.211 HD
ENDBRANCH   1  12
BRANCH   1  14
ATOM     14  C   UNL     1      33.488 -15.188 -21.978  0.00  0.00    +0.138 C 
BRANCH  14  16
ATOM     15  O   UNL     1      35.282 -16.579 -20.226  0.00  0.00    -0.272 OA
ATOM     16  N   UNL     1      34.220 -16.401 -22.279  0.00  0.00    -0.299 N 
ATOM     17  C   UNL     1      35.066 -16.999 -21.363  0.00  0.00    +0.253 C 
ATOM     18  H   UNL     1      34.112 -16.815 -23.167  0.00  0.00    +0.150 HD
BRANCH  17  21
ATOM     19 CL   UNL     1      34.991 -19.645 -21.082  0.00  0.00    -0.087 Cl
ATOM     20 CL   UNL     1      35.413 -18.316 -23.648  0.00  0.00    -0.087 Cl
ATOM     21  C   UNL     1      35.713 -18.253 -21.905  0.00  0.00    +0.234 C 
ENDBRANCH  17  21
ENDBRANCH  14  16
BRANCH  14  23
ATOM     22  F   UNL     1      32.559 -14.748 -19.854  0.00  0.00    -0.232 F 
ATOM     23  C   UNL     1      32.387 -15.507 -20.970  0.00  0.00    +0.215 C 
ENDBRANCH  14  23
ENDBRANCH   1  14
TORSDOF 7
ENDMDL
MODEL 8
REMARK VINA RESULT:      -7.9      2.844      3.531
REMARK  Name = 114811
REMARK  7 active torsions:
REMARK  status: ('A' for Active; 'I' for Inactive)
REMARK    1  A    between atoms: C_1  and  C_2
REMARK    2  A    between atoms: C_1  and  O_12
REMARK    3  A    between atoms: C_1  and  C_14
REMARK    4  A    between atoms: C_5  and  S_8
REMARK    5  A    between atoms: C_14  and  N_16
REMARK    6  A    between atoms: C_14  and  C_23
REMARK    7  A    between atoms: C_17  and  C_21
REMARK                            x       y       z     vdW  Elec       q    Type
REMARK                         _______ _______ _______ _____ _____    ______ ____
ROOT
ATOM      1  C   UNL     1      34.901 -20.236 -21.072  0.00  0.00    +0.153 C 
ENDROOT
BRANCH   1   2
ATOM      2  C   UNL     1      35.109 -20.993 -19.781  0.00  0.00    +0.006 C 
ATOM      3  C   UNL     1      34.054 -21.706 -19.236  0.00  0.00    -0.001 C 
ATOM      4  C   UNL     1      36.351 -20.958 -19.167  0.00  0.00    -0.001 C 
ATOM      5  C   UNL     1      35.490 -22.380 -17.414  0.00  0.00    +0.106 C 
ATOM      6  C   UNL     1      34.246 -22.404 -18.043  0.00  0.00    +0.018 C 
ATOM      7  C   UNL     1      36.543 -21.657 -17.976  0.00  0.00    +0.018 C 
BRANCH   5   8
ATOM      8  S   UNL     1      35.730 -23.255 -15.923  0.00  0.00    +0.010 S 
ATOM      9  O   UNL     1      35.114 -22.490 -14.848  0.00  0.00    -0.169 OA
ATOM     10  O   UNL     1      35.351 -24.647 -16.126  0.00  0.00    -0.169 OA
ATOM     11  C   UNL     1      37.490 -23.228 -15.672  0.00  0.00    +0.182 C 
ENDBRANCH   5   8
ENDBRANCH   1   2
BRANCH   1  12
ATOM     12  O   UNL     1      33.488 -20.100 -21.257  0.00  0.00    -0.378 OA
ATOM     13  H   UNL     1      33.079 -19.827 -20.420  0.00  0.00    +0.211 HD
ENDBRANCH   1  12
BRANCH   1  14
ATOM     14  C   UNL     1      35.560 -18.841 -21.094  0.00  0.00    +0.138 C 
BRANCH  14  16
ATOM     15  O   UNL     1      35.210 -16.187 -20.067  0.00  0.00    -0.272 OA
ATOM     16  N   UNL     1      34.606 -17.855 -21.559  0.00  0.00    -0.299 N 
ATOM     17  C   UNL     1      34.513 -16.596 -20.996  0.00  0.00    +0.253 C 
ATOM     18  H   UNL     1      34.003 -18.090 -22.302  0.00  0.00    +0.150 HD
BRANCH  17  21
ATOM     19 CL   UNL     1      32.416 -15.080 -20.375  0.00  0.00    -0.087 Cl
ATOM     20 CL   UNL     1      34.254 -14.458 -22.557  0.00  0.00    -0.087 Cl
ATOM     21  C   UNL     1      33.448 -15.746 -21.650  0.00  0.00    +0.234 C 
ENDBRANCH  17  21
ENDBRANCH  14  16
BRANCH  14  23
ATOM     22  F   UNL     1      37.911 -19.009 -21.207  0.00  0.00    -0.232 F 
ATOM     23  C   UNL     1      36.809 -18.779 -21.970  0.00  0.00    +0.215 C 
ENDBRANCH  14  23
ENDBRANCH   1  14
TORSDOF 7
ENDMDL
MODEL 9
REMARK VINA RESULT:      -7.8      2.403      2.983
REMARK  Name = 114811
REMARK  7 active torsions:
REMARK  status: ('A' for Active; 'I' for Inactive)
REMARK    1  A    between atoms: C_1  and  C_2
REMARK    2  A    between atoms: C_1  and  O_12
REMARK    3  A    between atoms: C_1  and  C_14
REMARK    4  A    between atoms: C_5  and  S_8
REMARK    5  A    between atoms: C_14  and  N_16
REMARK    6  A    between atoms: C_14  and  C_23
REMARK    7  A    between atoms: C_17  and  C_21
REMARK                            x       y       z     vdW  Elec       q    Type
REMARK                         _______ _______ _______ _____ _____    ______ ____
ROOT
ATOM      1  C   UNL     1      34.769 -19.414 -21.900  0.00  0.00    +0.153 C 
ENDROOT
BRANCH   1   2
ATOM      2  C   UNL     1      34.487 -20.367 -20.760  0.00  0.00    +0.006 C 
ATOM      3  C   UNL     1      35.538 -21.048 -20.170  0.00  0.00    -0.001 C 
ATOM      4  C   UNL     1      33.181 -20.539 -20.329  0.00  0.00    -0.001 C 
ATOM      5  C   UNL     1      33.968 -22.111 -18.673  0.00  0.00    +0.106 C 
ATOM      6  C   UNL     1      35.277 -21.927 -19.119  0.00  0.00    +0.018 C 
ATOM      7  C   UNL     1      32.920 -21.418 -19.279  0.00  0.00    +0.018 C 
BRANCH   5   8
ATOM      8  S   UNL     1      33.642 -23.210 -17.356  0.00  0.00    +0.010 S 
ATOM      9  O   UNL     1      33.666 -24.566 -17.887  0.00  0.00    -0.169 OA
ATOM     10  O   UNL     1      34.496 -22.862 -16.228  0.00  0.00    -0.169 OA
ATOM     11  C   UNL     1      31.971 -22.841 -16.875  0.00  0.00    +0.182 C 
ENDBRANCH   5   8
ENDBRANCH   1   2
BRANCH   1  12
ATOM     12  O   UNL     1      33.506 -18.918 -22.354  0.00  0.00    -0.378 OA
ATOM     13  H   UNL     1      33.349 -18.039 -21.974  0.00  0.00    +0.211 HD
ENDBRANCH   1  12
BRANCH   1  14
ATOM     14  C   UNL     1      35.680 -18.230 -21.517  0.00  0.00    +0.138 C 
BRANCH  14  16
ATOM     15  O   UNL     1      34.991 -15.982 -19.875  0.00  0.00    -0.272 OA
ATOM     16  N   UNL     1      35.082 -16.987 -21.962  0.00  0.00    -0.299 N 
ATOM     17  C   UNL     1      34.786 -15.957 -21.088  0.00  0.00    +0.253 C 
ATOM     18  H   UNL     1      34.880 -16.872 -22.919  0.00  0.00    +0.150 HD
BRANCH  17  21
ATOM     19 CL   UNL     1      34.511 -14.908 -23.519  0.00  0.00    -0.087 Cl
ATOM     20 CL   UNL     1      32.430 -14.782 -21.474  0.00  0.00    -0.087 Cl
ATOM     21  C   UNL     1      34.172 -14.765 -21.786  0.00  0.00    +0.234 C 
ENDBRANCH  17  21
ENDBRANCH  14  16
BRANCH  14  23
ATOM     22  F   UNL     1      37.882 -19.026 -21.228  0.00  0.00    -0.232 F 
ATOM     23  C   UNL     1      37.088 -18.341 -22.095  0.00  0.00    +0.215 C 
ENDBRANCH  14  23
ENDBRANCH   1  14
TORSDOF 7
ENDMDL
