MODEL 1
REMARK VINA RESULT:      -9.4      0.000      0.000
REMARK  Name = 3003141
REMARK  3 active torsions:
REMARK  status: ('A' for Active; 'I' for Inactive)
REMARK    1  A    between atoms: C_3  and  C_9
REMARK    2  A    between atoms: C_6  and  N_15
REMARK    3  A    between atoms: C_6  and  C_21
REMARK                            x       y       z     vdW  Elec       q    Type
REMARK                         _______ _______ _______ _____ _____    ______ ____
ROOT
ATOM      1  S   UNL     1      33.917 -16.686 -21.838  0.00  0.00    -0.101 S 
ATOM      2  S   UNL     1      34.670 -16.713 -24.700  0.00  0.00    -0.104 S 
ATOM      3  C   UNL     1      34.445 -18.307 -22.512  0.00  0.00    +0.087 C 
ATOM      4  C   UNL     1      35.404 -18.028 -23.673  0.00  0.00    +0.078 C 
ATOM      5  C   UNL     1      33.943 -15.862 -23.369  0.00  0.00    +0.075 C 
ATOM      6  C   UNL     1      33.428 -14.634 -23.516  0.00  0.00    +0.138 C 
ENDROOT
BRANCH   3   9
ATOM      7 CL   UNL     1      32.517 -20.177 -20.985  0.00  0.00    -0.083 Cl
ATOM      8 CL   UNL     1      36.858 -21.836 -18.270  0.00  0.00    -0.082 Cl
ATOM      9  C   UNL     1      35.021 -19.205 -21.441  0.00  0.00    -0.001 C 
ATOM     10  C   UNL     1      34.217 -20.077 -20.706  0.00  0.00    +0.055 C 
ATOM     11  C   UNL     1      36.393 -19.147 -21.195  0.00  0.00    -0.002 C 
ATOM     12  C   UNL     1      34.785 -20.891 -19.725  0.00  0.00    +0.022 C 
ATOM     13  C   UNL     1      36.961 -19.960 -20.214  0.00  0.00    +0.011 C 
ATOM     14  C   UNL     1      36.156 -20.833 -19.479  0.00  0.00    +0.058 C 
ENDBRANCH   3   9
BRANCH   6  15
ATOM     15  N   UNL     1      33.409 -13.894 -24.739  0.00  0.00    -0.237 N 
ATOM     16  N   UNL     1      33.690 -12.233 -26.112  0.00  0.00    -0.224 NA
ATOM     17  C   UNL     1      32.965 -14.370 -25.907  0.00  0.00    +0.092 C 
ATOM     18  C   UNL     1      33.835 -12.632 -24.869  0.00  0.00    +0.172 C 
ATOM     19  C   UNL     1      33.147 -13.312 -26.765  0.00  0.00    +0.117 C 
ENDBRANCH   6  15
BRANCH   6  21
ATOM     20  N   UNL     1      32.390 -13.587 -21.375  0.00  0.00    -0.189 NA
ATOM     21  C   UNL     1      32.860 -14.056 -22.326  0.00  0.00    +0.117 C 
ENDBRANCH   6  21
TORSDOF 3
ENDMDL
MODEL 2
REMARK VINA RESULT:      -9.1      4.331      6.016
REMARK  Name = 3003141
REMARK  3 active torsions:
REMARK  status: ('A' for Active; 'I' for Inactive)
REMARK    1  A    between atoms: C_3  and  C_9
REMARK    2  A    between atoms: C_6  and  N_15
REMARK    3  A    between atoms: C_6  and  C_21
REMARK                            x       y       z     vdW  Elec       q    Type
REMARK                         _______ _______ _______ _____ _____    ______ ____
ROOT
ATOM      1  S   UNL     1      32.463 -12.607 -22.386  0.00  0.00    -0.101 S 
ATOM      2  S   UNL     1      33.340 -10.428 -24.186  0.00  0.00    -0.104 S 
ATOM      3  C   UNL     1      33.125 -13.130 -24.013  0.00  0.00    +0.087 C 
ATOM      4  C   UNL     1      34.113 -12.053 -24.472  0.00  0.00    +0.078 C 
ATOM      5  C   UNL     1      32.501 -10.905 -22.739  0.00  0.00    +0.075 C 
ATOM      6  C   UNL     1      31.914 -10.007 -21.938  0.00  0.00    +0.138 C 
ENDROOT
BRANCH   3   9
ATOM      7 CL   UNL     1      32.815 -14.929 -26.506  0.00  0.00    -0.083 Cl
ATOM      8 CL   UNL     1      35.505 -18.654 -23.701  0.00  0.00    -0.082 Cl
ATOM      9  C   UNL     1      33.713 -14.523 -23.965  0.00  0.00    -0.001 C 
ATOM     10  C   UNL     1      33.614 -15.396 -25.049  0.00  0.00    +0.055 C 
ATOM     11  C   UNL     1      34.364 -14.927 -22.801  0.00  0.00    -0.002 C 
ATOM     12  C   UNL     1      34.168 -16.674 -24.967  0.00  0.00    +0.022 C 
ATOM     13  C   UNL     1      34.919 -16.205 -22.719  0.00  0.00    +0.011 C 
ATOM     14  C   UNL     1      34.820 -17.079 -23.803  0.00  0.00    +0.058 C 
ENDBRANCH   3   9
BRANCH   6  15
ATOM     15  N   UNL     1      31.900  -8.595 -22.161  0.00  0.00    -0.237 N 
ATOM     16  N   UNL     1      31.322  -6.678 -23.009  0.00  0.00    -0.224 NA
ATOM     17  C   UNL     1      32.681  -7.718 -21.523  0.00  0.00    +0.092 C 
ATOM     18  C   UNL     1      31.101  -7.973 -23.036  0.00  0.00    +0.172 C 
ATOM     19  C   UNL     1      32.308  -6.512 -22.067  0.00  0.00    +0.117 C 
ENDBRANCH   6  15
BRANCH   6  21
ATOM     20  N   UNL     1      30.734 -10.976 -19.833  0.00  0.00    -0.189 NA
ATOM     21  C   UNL     1      31.258 -10.550 -20.777  0.00  0.00    +0.117 C 
ENDBRANCH   6  21
TORSDOF 3
ENDMDL
MODEL 3
REMARK VINA RESULT:      -9.0      1.867      2.856
REMARK  Name = 3003141
REMARK  3 active torsions:
REMARK  status: ('A' for Active; 'I' for Inactive)
REMARK    1  A    between atoms: C_3  and  C_9
REMARK    2  A    between atoms: C_6  and  N_15
REMARK    3  A    between atoms: C_6  and  C_21
REMARK                            x       y       z     vdW  Elec       q    Type
REMARK                         _______ _______ _______ _____ _____    ______ ____
ROOT
ATOM      1  S   UNL     1      34.145 -17.023 -23.240  0.00  0.00    -0.101 S 
ATOM      2  S   UNL     1      34.411 -14.578 -21.595  0.00  0.00    -0.104 S 
ATOM      3  C   UNL     1      34.930 -17.244 -21.598  0.00  0.00    +0.087 C 
ATOM      4  C   UNL     1      34.377 -16.152 -20.677  0.00  0.00    +0.078 C 
ATOM      5  C   UNL     1      34.056 -15.290 -23.142  0.00  0.00    +0.075 C 
ATOM      6  C   UNL     1      33.732 -14.540 -24.203  0.00  0.00    +0.138 C 
ENDROOT
BRANCH   3   9
ATOM      7 CL   UNL     1      37.447 -18.991 -21.198  0.00  0.00    -0.083 Cl
ATOM      8 CL   UNL     1      34.072 -22.814 -19.475  0.00  0.00    -0.082 Cl
ATOM      9  C   UNL     1      34.747 -18.647 -21.066  0.00  0.00    -0.001 C 
ATOM     10  C   UNL     1      35.832 -19.499 -20.859  0.00  0.00    +0.055 C 
ATOM     11  C   UNL     1      33.453 -19.085 -20.782  0.00  0.00    -0.002 C 
ATOM     12  C   UNL     1      35.624 -20.788 -20.367  0.00  0.00    +0.022 C 
ATOM     13  C   UNL     1      33.245 -20.374 -20.290  0.00  0.00    +0.011 C 
ATOM     14  C   UNL     1      34.331 -21.225 -20.082  0.00  0.00    +0.058 C 
ENDBRANCH   3   9
BRANCH   6  15
ATOM     15  N   UNL     1      33.641 -13.114 -24.203  0.00  0.00    -0.237 N 
ATOM     16  N   UNL     1      33.091 -11.114 -23.552  0.00  0.00    -0.224 NA
ATOM     17  C   UNL     1      34.194 -12.318 -25.123  0.00  0.00    +0.092 C 
ATOM     18  C   UNL     1      32.992 -12.395 -23.279  0.00  0.00    +0.172 C 
ATOM     19  C   UNL     1      33.839 -11.058 -24.702  0.00  0.00    +0.117 C 
ENDBRANCH   6  15
BRANCH   6  21
ATOM     20  N   UNL     1      33.246 -15.844 -26.399  0.00  0.00    -0.189 NA
ATOM     21  C   UNL     1      33.465 -15.269 -25.415  0.00  0.00    +0.117 C 
ENDBRANCH   6  21
TORSDOF 3
ENDMDL
MODEL 4
REMARK VINA RESULT:      -8.9      4.408      8.178
REMARK  Name = 3003141
REMARK  3 active torsions:
REMARK  status: ('A' for Active; 'I' for Inactive)
REMARK    1  A    between atoms: C_3  and  C_9
REMARK    2  A    between atoms: C_6  and  N_15
REMARK    3  A    between atoms: C_6  and  C_21
REMARK                            x       y       z     vdW  Elec       q    Type
REMARK                         _______ _______ _______ _____ _____    ______ ____
ROOT
ATOM      1  S   UNL     1      33.576 -14.317 -23.631  0.00  0.00    -0.101 S 
ATOM      2  S   UNL     1      33.481 -15.417 -20.886  0.00  0.00    -0.104 S 
ATOM      3  C   UNL     1      32.597 -13.354 -22.416  0.00  0.00    +0.087 C 
ATOM      4  C   UNL     1      33.197 -13.623 -21.032  0.00  0.00    +0.078 C 
ATOM      5  C   UNL     1      33.896 -15.648 -22.559  0.00  0.00    +0.075 C 
ATOM      6  C   UNL     1      34.432 -16.793 -23.000  0.00  0.00    +0.138 C 
ENDROOT
BRANCH   3   9
ATOM      7 CL   UNL     1      30.542 -11.585 -20.935  0.00  0.00    -0.083 Cl
ATOM      8 CL   UNL     1      32.401  -7.535 -23.954  0.00  0.00    -0.082 Cl
ATOM      9  C   UNL     1      32.525 -11.889 -22.780  0.00  0.00    -0.001 C 
ATOM     10  C   UNL     1      31.623 -11.024 -22.158  0.00  0.00    +0.055 C 
ATOM     11  C   UNL     1      33.387 -11.407 -23.765  0.00  0.00    -0.002 C 
ATOM     12  C   UNL     1      31.584  -9.677 -22.521  0.00  0.00    +0.022 C 
ATOM     13  C   UNL     1      33.348 -10.060 -24.128  0.00  0.00    +0.011 C 
ATOM     14  C   UNL     1      32.447  -9.195 -23.505  0.00  0.00    +0.058 C 
ENDBRANCH   3   9
BRANCH   6  15
ATOM     15  N   UNL     1      34.721 -17.930 -22.183  0.00  0.00    -0.237 N 
ATOM     16  N   UNL     1      35.788 -19.209 -20.786  0.00  0.00    -0.224 NA
ATOM     17  C   UNL     1      33.942 -19.011 -22.084  0.00  0.00    +0.092 C 
ATOM     18  C   UNL     1      35.809 -18.055 -21.414  0.00  0.00    +0.172 C 
ATOM     19  C   UNL     1      34.626 -19.811 -21.200  0.00  0.00    +0.117 C 
ENDBRANCH   6  15
BRANCH   6  21
ATOM     20  N   UNL     1      34.941 -16.876 -25.548  0.00  0.00    -0.189 NA
ATOM     21  C   UNL     1      34.722 -16.838 -24.409  0.00  0.00    +0.117 C 
ENDBRANCH   6  21
TORSDOF 3
ENDMDL
MODEL 5
REMARK VINA RESULT:      -8.3      9.209     11.175
REMARK  Name = 3003141
REMARK  3 active torsions:
REMARK  status: ('A' for Active; 'I' for Inactive)
REMARK    1  A    between atoms: C_3  and  C_9
REMARK    2  A    between atoms: C_6  and  N_15
REMARK    3  A    between atoms: C_6  and  C_21
REMARK                            x       y       z     vdW  Elec       q    Type
REMARK                         _______ _______ _______ _____ _____    ______ ____
ROOT
ATOM      1  S   UNL     1      34.496 -23.539 -15.726  0.00  0.00    -0.101 S 
ATOM      2  S   UNL     1      32.365 -24.009 -13.726  0.00  0.00    -0.104 S 
ATOM      3  C   UNL     1      35.060 -23.804 -14.002  0.00  0.00    +0.087 C 
ATOM      4  C   UNL     1      34.009 -24.675 -13.306  0.00  0.00    +0.078 C 
ATOM      5  C   UNL     1      32.801 -23.518 -15.337  0.00  0.00    +0.075 C 
ATOM      6  C   UNL     1      31.879 -23.142 -16.232  0.00  0.00    +0.138 C 
ENDROOT
BRANCH   3   9
ATOM      7 CL   UNL     1      36.871 -22.967 -11.643  0.00  0.00    -0.083 Cl
ATOM      8 CL   UNL     1      40.619 -26.116 -13.881  0.00  0.00    -0.082 Cl
ATOM      9  C   UNL     1      36.461 -24.368 -13.944  0.00  0.00    -0.001 C 
ATOM     10  C   UNL     1      37.341 -24.038 -12.912  0.00  0.00    +0.055 C 
ATOM     11  C   UNL     1      36.868 -25.237 -14.956  0.00  0.00    -0.002 C 
ATOM     12  C   UNL     1      38.627 -24.579 -12.893  0.00  0.00    +0.022 C 
ATOM     13  C   UNL     1      38.154 -25.778 -14.936  0.00  0.00    +0.011 C 
ATOM     14  C   UNL     1      39.034 -25.448 -13.904  0.00  0.00    +0.058 C 
ENDBRANCH   3   9
BRANCH   6  15
ATOM     15  N   UNL     1      30.471 -23.095 -15.988  0.00  0.00    -0.237 N 
ATOM     16  N   UNL     1      28.532 -22.288 -15.425  0.00  0.00    -0.224 NA
ATOM     17  C   UNL     1      29.635 -24.123 -16.168  0.00  0.00    +0.092 C 
ATOM     18  C   UNL     1      29.812 -22.016 -15.549  0.00  0.00    +0.172 C 
ATOM     19  C   UNL     1      28.415 -23.601 -15.809  0.00  0.00    +0.117 C 
ENDBRANCH   6  15
BRANCH   6  21
ATOM     20  N   UNL     1      32.791 -22.445 -18.565  0.00  0.00    -0.189 NA
ATOM     21  C   UNL     1      32.389 -22.762 -17.523  0.00  0.00    +0.117 C 
ENDBRANCH   6  21
TORSDOF 3
ENDMDL
MODEL 6
REMARK VINA RESULT:      -8.2      3.651      5.574
REMARK  Name = 3003141
REMARK  3 active torsions:
REMARK  status: ('A' for Active; 'I' for Inactive)
REMARK    1  A    between atoms: C_3  and  C_9
REMARK    2  A    between atoms: C_6  and  N_15
REMARK    3  A    between atoms: C_6  and  C_21
REMARK                            x       y       z     vdW  Elec       q    Type
REMARK                         _______ _______ _______ _____ _____    ______ ____
ROOT
ATOM      1  S   UNL     1      34.243 -12.616 -23.861  0.00  0.00    -0.101 S 
ATOM      2  S   UNL     1      31.991 -11.883 -22.086  0.00  0.00    -0.104 S 
ATOM      3  C   UNL     1      33.698 -13.911 -22.682  0.00  0.00    +0.087 C 
ATOM      4  C   UNL     1      32.214 -13.666 -22.390  0.00  0.00    +0.078 C 
ATOM      5  C   UNL     1      33.202 -11.376 -23.228  0.00  0.00    +0.075 C 
ATOM      6  C   UNL     1      33.327 -10.095 -23.598  0.00  0.00    +0.138 C 
ENDROOT
BRANCH   3   9
ATOM      7 CL   UNL     1      34.679 -16.017 -20.646  0.00  0.00    -0.083 Cl
ATOM      8 CL   UNL     1      34.884 -19.416 -24.814  0.00  0.00    -0.082 Cl
ATOM      9  C   UNL     1      34.003 -15.302 -23.188  0.00  0.00    -0.001 C 
ATOM     10  C   UNL     1      34.452 -16.309 -22.332  0.00  0.00    +0.055 C 
ATOM     11  C   UNL     1      33.829 -15.568 -24.546  0.00  0.00    -0.002 C 
ATOM     12  C   UNL     1      34.724 -17.582 -22.835  0.00  0.00    +0.022 C 
ATOM     13  C   UNL     1      34.101 -16.840 -25.048  0.00  0.00    +0.011 C 
ATOM     14  C   UNL     1      34.549 -17.848 -24.192  0.00  0.00    +0.058 C 
ENDBRANCH   3   9
BRANCH   6  15
ATOM     15  N   UNL     1      32.513  -9.021 -23.122  0.00  0.00    -0.237 N 
ATOM     16  N   UNL     1      30.923  -7.538 -23.085  0.00  0.00    -0.224 NA
ATOM     17  C   UNL     1      32.695  -8.390 -21.957  0.00  0.00    +0.092 C 
ATOM     18  C   UNL     1      31.465  -8.512 -23.781  0.00  0.00    +0.172 C 
ATOM     19  C   UNL     1      31.686  -7.456 -21.946  0.00  0.00    +0.117 C 
ENDBRANCH   6  15
BRANCH   6  21
ATOM     20  N   UNL     1      35.226  -9.619 -25.309  0.00  0.00    -0.189 NA
ATOM     21  C   UNL     1      34.373  -9.827 -24.550  0.00  0.00    +0.117 C 
ENDBRANCH   6  21
TORSDOF 3
ENDMDL
MODEL 7
REMARK VINA RESULT:      -8.1     10.612     12.844
REMARK  Name = 3003141
REMARK  3 active torsions:
REMARK  status: ('A' for Active; 'I' for Inactive)
REMARK    1  A    between atoms: C_3  and  C_9
REMARK    2  A    between atoms: C_6  and  N_15
REMARK    3  A    between atoms: C_6  and  C_21
REMARK                            x       y       z     vdW  Elec       q    Type
REMARK                         _______ _______ _______ _____ _____    ______ ____
ROOT
ATOM      1  S   UNL     1      33.848 -23.995 -13.534  0.00  0.00    -0.101 S 
ATOM      2  S   UNL     1      35.842 -24.306 -15.698  0.00  0.00    -0.104 S 
ATOM      3  C   UNL     1      33.430 -23.194 -15.130  0.00  0.00    +0.087 C 
ATOM      4  C   UNL     1      34.130 -23.989 -16.237  0.00  0.00    +0.078 C 
ATOM      5  C   UNL     1      35.448 -24.477 -14.012  0.00  0.00    +0.075 C 
ATOM      6  C   UNL     1      36.333 -24.953 -13.128  0.00  0.00    +0.138 C 
ENDROOT
BRANCH   3   9
ATOM      7 CL   UNL     1      32.386 -22.432 -17.936  0.00  0.00    -0.083 Cl
ATOM      8 CL   UNL     1      27.464 -22.681 -15.771  0.00  0.00    -0.082 Cl
ATOM      9  C   UNL     1      31.937 -23.058 -15.322  0.00  0.00    -0.001 C 
ATOM     10  C   UNL     1      31.386 -22.716 -16.558  0.00  0.00    +0.055 C 
ATOM     11  C   UNL     1      31.104 -23.283 -14.226  0.00  0.00    -0.002 C 
ATOM     12  C   UNL     1      30.003 -22.599 -16.697  0.00  0.00    +0.022 C 
ATOM     13  C   UNL     1      29.721 -23.166 -14.365  0.00  0.00    +0.011 C 
ATOM     14  C   UNL     1      29.170 -22.824 -15.602  0.00  0.00    +0.058 C 
ENDBRANCH   3   9
BRANCH   6  15
ATOM     15  N   UNL     1      37.666 -25.366 -13.442  0.00  0.00    -0.237 N 
ATOM     16  N   UNL     1      39.278 -26.562 -14.276  0.00  0.00    -0.224 NA
ATOM     17  C   UNL     1      38.771 -24.718 -13.062  0.00  0.00    +0.092 C 
ATOM     18  C   UNL     1      37.974 -26.454 -14.158  0.00  0.00    +0.172 C 
ATOM     19  C   UNL     1      39.782 -25.483 -13.593  0.00  0.00    +0.117 C 
ENDBRANCH   6  15
BRANCH   6  21
ATOM     20  N   UNL     1      35.499 -25.096 -10.670  0.00  0.00    -0.189 NA
ATOM     21  C   UNL     1      35.865 -25.037 -11.769  0.00  0.00    +0.117 C 
ENDBRANCH   6  21
TORSDOF 3
ENDMDL
MODEL 8
REMARK VINA RESULT:      -8.1      5.712      9.340
REMARK  Name = 3003141
REMARK  3 active torsions:
REMARK  status: ('A' for Active; 'I' for Inactive)
REMARK    1  A    between atoms: C_3  and  C_9
REMARK    2  A    between atoms: C_6  and  N_15
REMARK    3  A    between atoms: C_6  and  C_21
REMARK                            x       y       z     vdW  Elec       q    Type
REMARK                         _______ _______ _______ _____ _____    ______ ____
ROOT
ATOM      1  S   UNL     1      32.678 -11.569 -22.735  0.00  0.00    -0.101 S 
ATOM      2  S   UNL     1      34.113 -12.254 -25.231  0.00  0.00    -0.104 S 
ATOM      3  C   UNL     1      33.457 -10.166 -23.622  0.00  0.00    +0.087 C 
ATOM      4  C   UNL     1      33.510 -10.538 -25.107  0.00  0.00    +0.078 C 
ATOM      5  C   UNL     1      33.338 -12.799 -23.772  0.00  0.00    +0.075 C 
ATOM      6  C   UNL     1      33.256 -14.099 -23.462  0.00  0.00    +0.138 C 
ENDROOT
BRANCH   3   9
ATOM      7 CL   UNL     1      35.174  -7.607 -23.401  0.00  0.00    -0.083 Cl
ATOM      8 CL   UNL     1      30.542  -5.017 -22.502  0.00  0.00    -0.082 Cl
ATOM      9  C   UNL     1      32.753  -8.858 -23.342  0.00  0.00    -0.001 C 
ATOM     10  C   UNL     1      33.457  -7.659 -23.226  0.00  0.00    +0.055 C 
ATOM     11  C   UNL     1      31.366  -8.869 -23.196  0.00  0.00    -0.002 C 
ATOM     12  C   UNL     1      32.774  -6.470 -22.966  0.00  0.00    +0.022 C 
ATOM     13  C   UNL     1      30.683  -7.680 -22.936  0.00  0.00    +0.011 C 
ATOM     14  C   UNL     1      31.387  -6.481 -22.822  0.00  0.00    +0.058 C 
ENDBRANCH   3   9
BRANCH   6  15
ATOM     15  N   UNL     1      33.776 -15.166 -24.259  0.00  0.00    -0.237 N 
ATOM     16  N   UNL     1      34.036 -16.483 -25.969  0.00  0.00    -0.224 NA
ATOM     17  C   UNL     1      34.731 -16.013 -23.864  0.00  0.00    +0.092 C 
ATOM     18  C   UNL     1      33.371 -15.451 -25.503  0.00  0.00    +0.172 C 
ATOM     19  C   UNL     1      34.886 -16.840 -24.951  0.00  0.00    +0.117 C 
ENDBRANCH   6  15
BRANCH   6  21
ATOM     20  N   UNL     1      32.057 -14.651 -21.222  0.00  0.00    -0.189 NA
ATOM     21  C   UNL     1      32.588 -14.398 -22.223  0.00  0.00    +0.117 C 
ENDBRANCH   6  21
TORSDOF 3
ENDMDL
MODEL 9
REMARK VINA RESULT:      -8.0      4.798      7.031
REMARK  Name = 3003141
REMARK  3 active torsions:
REMARK  status: ('A' for Active; 'I' for Inactive)
REMARK    1  A    between atoms: C_3  and  C_9
REMARK    2  A    between atoms: C_6  and  N_15
REMARK    3  A    between atoms: C_6  and  C_21
REMARK                            x       y       z     vdW  Elec       q    Type
REMARK                         _______ _______ _______ _____ _____    ______ ____
ROOT
ATOM      1  S   UNL     1      33.793 -10.980 -23.709  0.00  0.00    -0.101 S 
ATOM      2  S   UNL     1      31.521 -10.429 -21.895  0.00  0.00    -0.104 S 
ATOM      3  C   UNL     1      33.211 -12.396 -22.701  0.00  0.00    +0.087 C 
ATOM      4  C   UNL     1      31.726 -12.166 -22.404  0.00  0.00    +0.078 C 
ATOM      5  C   UNL     1      32.757  -9.808 -22.950  0.00  0.00    +0.075 C 
ATOM      6  C   UNL     1      32.905  -8.495 -23.165  0.00  0.00    +0.138 C 
ENDROOT
BRANCH   3   9
ATOM      7 CL   UNL     1      34.506 -14.620 -20.991  0.00  0.00    -0.083 Cl
ATOM      8 CL   UNL     1      34.344 -17.635 -25.447  0.00  0.00    -0.082 Cl
ATOM      9  C   UNL     1      33.507 -13.723 -23.362  0.00  0.00    -0.001 C 
ATOM     10  C   UNL     1      34.092 -14.777 -22.659  0.00  0.00    +0.055 C 
ATOM     11  C   UNL     1      33.182 -13.879 -24.709  0.00  0.00    -0.002 C 
ATOM     12  C   UNL     1      34.351 -15.987 -23.304  0.00  0.00    +0.022 C 
ATOM     13  C   UNL     1      33.441 -15.089 -25.354  0.00  0.00    +0.011 C 
ATOM     14  C   UNL     1      34.026 -16.143 -24.650  0.00  0.00    +0.058 C 
ENDBRANCH   3   9
BRANCH   6  15
ATOM     15  N   UNL     1      32.097  -7.472 -22.576  0.00  0.00    -0.237 N 
ATOM     16  N   UNL     1      31.396  -6.031 -21.108  0.00  0.00    -0.224 NA
ATOM     17  C   UNL     1      31.037  -6.910 -23.165  0.00  0.00    +0.092 C 
ATOM     18  C   UNL     1      32.302  -6.947 -21.363  0.00  0.00    +0.172 C 
ATOM     19  C   UNL     1      30.603  -6.003 -22.228  0.00  0.00    +0.117 C 
ENDBRANCH   6  15
BRANCH   6  21
ATOM     20  N   UNL     1      34.825  -7.824 -24.784  0.00  0.00    -0.189 NA
ATOM     21  C   UNL     1      33.971  -8.131 -24.061  0.00  0.00    +0.117 C 
ENDBRANCH   6  21
TORSDOF 3
ENDMDL
