MODEL 1
REMARK VINA RESULT:      -7.8      0.000      0.000
REMARK  Name = 29083
REMARK  2 active torsions:
REMARK  status: ('A' for Active; 'I' for Inactive)
REMARK    1  A    between atoms: N_3  and  C_12
REMARK    2  A    between atoms: C_12  and  C_15
REMARK                            x       y       z     vdW  Elec       q    Type
REMARK                         _______ _______ _______ _____ _____    ______ ____
ROOT
ATOM      1  O   UNL     1      34.839 -15.137 -23.033  0.00  0.00    -0.410 OA
ATOM      2  O   UNL     1      33.940 -13.085 -23.403  0.00  0.00    -0.226 OA
ATOM      3  N   UNL     1      33.468 -14.756 -24.951  0.00  0.00    -0.233 N 
ATOM      4  C   UNL     1      33.786 -16.068 -25.505  0.00  0.00    +0.127 C 
ATOM      5  C   UNL     1      34.390 -17.003 -24.516  0.00  0.00    +0.033 C 
ATOM      6  C   UNL     1      34.914 -16.508 -23.331  0.00  0.00    +0.148 C 
ATOM      7  C   UNL     1      34.063 -14.245 -23.794  0.00  0.00    +0.410 C 
ATOM      8  C   UNL     1      34.497 -18.372 -24.777  0.00  0.00    +0.000 C 
ATOM      9  C   UNL     1      35.534 -17.338 -22.398  0.00  0.00    +0.037 C 
ATOM     10  C   UNL     1      35.109 -19.220 -23.850  0.00  0.00    -0.000 C 
ATOM     11  C   UNL     1      35.627 -18.703 -22.661  0.00  0.00    +0.003 C 
ENDROOT
BRANCH   3  12
ATOM     12  C   UNL     1      32.635 -13.895 -25.778  0.00  0.00    +0.182 C 
BRANCH  12  15
ATOM     13  O   UNL     1      33.888 -13.543 -27.820  0.00  0.00    -0.273 OA
ATOM     14  N   UNL     1      33.860 -11.880 -26.234  0.00  0.00    -0.327 N 
ATOM     15  C   UNL     1      33.503 -13.112 -26.736  0.00  0.00    +0.240 C 
ATOM     16  H   UNL     1      34.427 -11.275 -26.767  0.00  0.00    +0.145 HD
ATOM     17  H   UNL     1      33.549 -11.602 -25.342  0.00  0.00    +0.145 HD
ENDBRANCH  12  15
ENDBRANCH   3  12
TORSDOF 2
ENDMDL
MODEL 2
REMARK VINA RESULT:      -7.7      9.546     12.281
REMARK  Name = 29083
REMARK  2 active torsions:
REMARK  status: ('A' for Active; 'I' for Inactive)
REMARK    1  A    between atoms: N_3  and  C_12
REMARK    2  A    between atoms: C_12  and  C_15
REMARK                            x       y       z     vdW  Elec       q    Type
REMARK                         _______ _______ _______ _____ _____    ______ ____
ROOT
ATOM      1  O   UNL     1      37.119 -22.145 -17.021  0.00  0.00    -0.410 OA
ATOM      2  O   UNL     1      38.222 -23.183 -15.328  0.00  0.00    -0.226 OA
ATOM      3  N   UNL     1      35.978 -23.717 -15.632  0.00  0.00    -0.233 N 
ATOM      4  C   UNL     1      34.688 -23.387 -16.227  0.00  0.00    +0.127 C 
ATOM      5  C   UNL     1      34.796 -22.639 -17.510  0.00  0.00    +0.033 C 
ATOM      6  C   UNL     1      35.993 -22.027 -17.852  0.00  0.00    +0.148 C 
ATOM      7  C   UNL     1      37.161 -23.039 -15.935  0.00  0.00    +0.410 C 
ATOM      8  C   UNL     1      33.697 -22.487 -18.361  0.00  0.00    +0.000 C 
ATOM      9  C   UNL     1      36.127 -21.276 -19.018  0.00  0.00    +0.037 C 
ATOM     10  C   UNL     1      33.815 -21.741 -19.537  0.00  0.00    -0.000 C 
ATOM     11  C   UNL     1      35.030 -21.137 -19.865  0.00  0.00    +0.003 C 
ENDROOT
BRANCH   3  12
ATOM     12  C   UNL     1      35.952 -24.672 -14.533  0.00  0.00    +0.182 C 
BRANCH  12  15
ATOM     13  O   UNL     1      36.141 -26.738 -15.781  0.00  0.00    -0.273 OA
ATOM     14  N   UNL     1      37.798 -26.189 -14.285  0.00  0.00    -0.327 N 
ATOM     15  C   UNL     1      36.619 -25.960 -14.960  0.00  0.00    +0.240 C 
ATOM     16  H   UNL     1      38.326 -26.998 -14.476  0.00  0.00    +0.145 HD
ATOM     17  H   UNL     1      38.114 -25.544 -13.611  0.00  0.00    +0.145 HD
ENDBRANCH  12  15
ENDBRANCH   3  12
TORSDOF 2
ENDMDL
MODEL 3
REMARK VINA RESULT:      -7.6     11.692     14.032
REMARK  Name = 29083
REMARK  2 active torsions:
REMARK  status: ('A' for Active; 'I' for Inactive)
REMARK    1  A    between atoms: N_3  and  C_12
REMARK    2  A    between atoms: C_12  and  C_15
REMARK                            x       y       z     vdW  Elec       q    Type
REMARK                         _______ _______ _______ _____ _____    ______ ____
ROOT
ATOM      1  O   UNL     1      36.290 -23.181 -16.220  0.00  0.00    -0.410 OA
ATOM      2  O   UNL     1      38.412 -23.533 -15.489  0.00  0.00    -0.226 OA
ATOM      3  N   UNL     1      36.689 -23.807 -13.950  0.00  0.00    -0.233 N 
ATOM      4  C   UNL     1      35.294 -23.581 -13.587  0.00  0.00    +0.127 C 
ATOM      5  C   UNL     1      34.380 -23.489 -14.758  0.00  0.00    +0.033 C 
ATOM      6  C   UNL     1      34.903 -23.271 -16.025  0.00  0.00    +0.148 C 
ATOM      7  C   UNL     1      37.213 -23.511 -15.211  0.00  0.00    +0.410 C 
ATOM      8  C   UNL     1      32.992 -23.560 -14.608  0.00  0.00    +0.000 C 
ATOM      9  C   UNL     1      34.083 -23.128 -17.143  0.00  0.00    +0.037 C 
ATOM     10  C   UNL     1      32.155 -23.425 -15.719  0.00  0.00    -0.000 C 
ATOM     11  C   UNL     1      32.701 -23.211 -16.986  0.00  0.00    +0.003 C 
ENDROOT
BRANCH   3  12
ATOM     12  C   UNL     1      37.584 -24.175 -12.862  0.00  0.00    +0.182 C 
BRANCH  12  15
ATOM     13  O   UNL     1      36.996 -26.374 -12.034  0.00  0.00    -0.273 OA
ATOM     14  N   UNL     1      38.687 -26.184 -13.581  0.00  0.00    -0.327 N 
ATOM     15  C   UNL     1      37.689 -25.681 -12.775  0.00  0.00    +0.240 C 
ATOM     16  H   UNL     1      38.853 -27.155 -13.611  0.00  0.00    +0.145 HD
ATOM     17  H   UNL     1      39.233 -25.575 -14.128  0.00  0.00    +0.145 HD
ENDBRANCH  12  15
ENDBRANCH   3  12
TORSDOF 2
ENDMDL
MODEL 4
REMARK VINA RESULT:      -7.5     12.699     14.162
REMARK  Name = 29083
REMARK  2 active torsions:
REMARK  status: ('A' for Active; 'I' for Inactive)
REMARK    1  A    between atoms: N_3  and  C_12
REMARK    2  A    between atoms: C_12  and  C_15
REMARK                            x       y       z     vdW  Elec       q    Type
REMARK                         _______ _______ _______ _____ _____    ______ ____
ROOT
ATOM      1  O   UNL     1      32.940 -24.064 -13.027  0.00  0.00    -0.410 OA
ATOM      2  O   UNL     1      34.882 -24.523 -11.943  0.00  0.00    -0.226 OA
ATOM      3  N   UNL     1      34.990 -24.199 -14.244  0.00  0.00    -0.233 N 
ATOM      4  C   UNL     1      34.297 -24.117 -15.525  0.00  0.00    +0.127 C 
ATOM      5  C   UNL     1      32.892 -23.636 -15.414  0.00  0.00    +0.033 C 
ATOM      6  C   UNL     1      32.256 -23.648 -14.181  0.00  0.00    +0.148 C 
ATOM      7  C   UNL     1      34.329 -24.283 -13.016  0.00  0.00    +0.410 C 
ATOM      8  C   UNL     1      32.170 -23.226 -16.538  0.00  0.00    +0.000 C 
ATOM      9  C   UNL     1      30.926 -23.254 -14.037  0.00  0.00    +0.037 C 
ATOM     10  C   UNL     1      30.838 -22.822 -16.411  0.00  0.00    -0.000 C 
ATOM     11  C   UNL     1      30.218 -22.836 -15.160  0.00  0.00    +0.003 C 
ENDROOT
BRANCH   3  12
ATOM     12  C   UNL     1      36.432 -24.397 -14.305  0.00  0.00    +0.182 C 
BRANCH  12  15
ATOM     13  O   UNL     1      36.763 -26.399 -15.626  0.00  0.00    -0.273 OA
ATOM     14  N   UNL     1      36.933 -26.537 -13.337  0.00  0.00    -0.327 N 
ATOM     15  C   UNL     1      36.738 -25.861 -14.522  0.00  0.00    +0.240 C 
ATOM     16  H   UNL     1      37.140 -27.500 -13.348  0.00  0.00    +0.145 HD
ATOM     17  H   UNL     1      36.866 -26.058 -12.480  0.00  0.00    +0.145 HD
ENDBRANCH  12  15
ENDBRANCH   3  12
TORSDOF 2
ENDMDL
MODEL 5
REMARK VINA RESULT:      -7.5      4.098      5.870
REMARK  Name = 29083
REMARK  2 active torsions:
REMARK  status: ('A' for Active; 'I' for Inactive)
REMARK    1  A    between atoms: N_3  and  C_12
REMARK    2  A    between atoms: C_12  and  C_15
REMARK                            x       y       z     vdW  Elec       q    Type
REMARK                         _______ _______ _______ _____ _____    ______ ____
ROOT
ATOM      1  O   UNL     1      36.354 -20.168 -20.806  0.00  0.00    -0.410 OA
ATOM      2  O   UNL     1      37.265 -18.409 -21.918  0.00  0.00    -0.226 OA
ATOM      3  N   UNL     1      34.964 -18.386 -21.578  0.00  0.00    -0.233 N 
ATOM      4  C   UNL     1      33.748 -19.112 -21.230  0.00  0.00    +0.127 C 
ATOM      5  C   UNL     1      33.981 -20.263 -20.314  0.00  0.00    +0.033 C 
ATOM      6  C   UNL     1      35.264 -20.764 -20.151  0.00  0.00    +0.148 C 
ATOM      7  C   UNL     1      36.245 -18.935 -21.475  0.00  0.00    +0.410 C 
ATOM      8  C   UNL     1      32.925 -20.895 -19.652  0.00  0.00    +0.000 C 
ATOM      9  C   UNL     1      35.524 -21.870 -19.343  0.00  0.00    +0.037 C 
ATOM     10  C   UNL     1      33.167 -22.001 -18.833  0.00  0.00    -0.000 C 
ATOM     11  C   UNL     1      34.466 -22.487 -18.678  0.00  0.00    +0.003 C 
ENDROOT
BRANCH   3  12
ATOM     12  C   UNL     1      34.778 -17.103 -22.241  0.00  0.00    +0.182 C 
BRANCH  12  15
ATOM     13  O   UNL     1      35.007 -15.964 -20.117  0.00  0.00    -0.273 OA
ATOM     14  N   UNL     1      33.457 -15.192 -21.629  0.00  0.00    -0.327 N 
ATOM     15  C   UNL     1      34.463 -16.039 -21.215  0.00  0.00    +0.240 C 
ATOM     16  H   UNL     1      33.162 -14.456 -21.046  0.00  0.00    +0.145 HD
ATOM     17  H   UNL     1      33.034 -15.323 -22.508  0.00  0.00    +0.145 HD
ENDBRANCH  12  15
ENDBRANCH   3  12
TORSDOF 2
ENDMDL
MODEL 6
REMARK VINA RESULT:      -7.5     11.620     13.752
REMARK  Name = 29083
REMARK  2 active torsions:
REMARK  status: ('A' for Active; 'I' for Inactive)
REMARK    1  A    between atoms: N_3  and  C_12
REMARK    2  A    between atoms: C_12  and  C_15
REMARK                            x       y       z     vdW  Elec       q    Type
REMARK                         _______ _______ _______ _____ _____    ______ ____
ROOT
ATOM      1  O   UNL     1      36.293 -23.209 -16.230  0.00  0.00    -0.410 OA
ATOM      2  O   UNL     1      38.359 -23.656 -15.399  0.00  0.00    -0.226 OA
ATOM      3  N   UNL     1      36.542 -23.973 -13.981  0.00  0.00    -0.233 N 
ATOM      4  C   UNL     1      35.133 -23.732 -13.687  0.00  0.00    +0.127 C 
ATOM      5  C   UNL     1      34.292 -23.550 -14.902  0.00  0.00    +0.033 C 
ATOM      6  C   UNL     1      34.894 -23.274 -16.121  0.00  0.00    +0.148 C 
ATOM      7  C   UNL     1      37.147 -23.619 -15.190  0.00  0.00    +0.410 C 
ATOM      8  C   UNL     1      32.897 -23.593 -14.837  0.00  0.00    +0.000 C 
ATOM      9  C   UNL     1      34.146 -23.047 -17.275  0.00  0.00    +0.037 C 
ATOM     10  C   UNL     1      32.131 -23.375 -15.985  0.00  0.00    -0.000 C 
ATOM     11  C   UNL     1      32.756 -23.103 -17.203  0.00  0.00    +0.003 C 
ENDROOT
BRANCH   3  12
ATOM     12  C   UNL     1      37.362 -24.425 -12.866  0.00  0.00    +0.182 C 
BRANCH  12  15
ATOM     13  O   UNL     1      38.194 -22.314 -12.020  0.00  0.00    -0.273 OA
ATOM     14  N   UNL     1      36.805 -23.574 -10.690  0.00  0.00    -0.327 N 
ATOM     15  C   UNL     1      37.501 -23.314 -11.850  0.00  0.00    +0.240 C 
ATOM     16  H   UNL     1      36.817 -22.923  -9.951  0.00  0.00    +0.145 HD
ATOM     17  H   UNL     1      36.293 -24.411 -10.599  0.00  0.00    +0.145 HD
ENDBRANCH  12  15
ENDBRANCH   3  12
TORSDOF 2
ENDMDL
MODEL 7
REMARK VINA RESULT:      -7.5     11.899     13.807
REMARK  Name = 29083
REMARK  2 active torsions:
REMARK  status: ('A' for Active; 'I' for Inactive)
REMARK    1  A    between atoms: N_3  and  C_12
REMARK    2  A    between atoms: C_12  and  C_15
REMARK                            x       y       z     vdW  Elec       q    Type
REMARK                         _______ _______ _______ _____ _____    ______ ____
ROOT
ATOM      1  O   UNL     1      33.372 -23.017 -16.357  0.00  0.00    -0.410 OA
ATOM      2  O   UNL     1      35.553 -22.951 -16.988  0.00  0.00    -0.226 OA
ATOM      3  N   UNL     1      35.025 -24.186 -15.089  0.00  0.00    -0.233 N 
ATOM      4  C   UNL     1      34.068 -24.501 -14.034  0.00  0.00    +0.127 C 
ATOM      5  C   UNL     1      32.648 -24.313 -14.439  0.00  0.00    +0.033 C 
ATOM      6  C   UNL     1      32.348 -23.562 -15.567  0.00  0.00    +0.148 C 
ATOM      7  C   UNL     1      34.723 -23.367 -16.181  0.00  0.00    +0.410 C 
ATOM      8  C   UNL     1      31.596 -24.827 -13.675  0.00  0.00    +0.000 C 
ATOM      9  C   UNL     1      31.032 -23.318 -15.957  0.00  0.00    +0.037 C 
ATOM     10  C   UNL     1      30.271 -24.596 -14.055  0.00  0.00    -0.000 C 
ATOM     11  C   UNL     1      29.990 -23.843 -15.196  0.00  0.00    +0.003 C 
ENDROOT
BRANCH   3  12
ATOM     12  C   UNL     1      36.400 -24.603 -14.855  0.00  0.00    +0.182 C 
BRANCH  12  15
ATOM     13  O   UNL     1      36.221 -26.748 -15.964  0.00  0.00    -0.273 OA
ATOM     14  N   UNL     1      36.891 -26.686 -13.766  0.00  0.00    -0.327 N 
ATOM     15  C   UNL     1      36.501 -26.108 -14.954  0.00  0.00    +0.240 C 
ATOM     16  H   UNL     1      36.993 -27.664 -13.704  0.00  0.00    +0.145 HD
ATOM     17  H   UNL     1      37.069 -26.123 -12.978  0.00  0.00    +0.145 HD
ENDBRANCH  12  15
ENDBRANCH   3  12
TORSDOF 2
ENDMDL
MODEL 8
REMARK VINA RESULT:      -7.5      2.927      5.566
REMARK  Name = 29083
REMARK  2 active torsions:
REMARK  status: ('A' for Active; 'I' for Inactive)
REMARK    1  A    between atoms: N_3  and  C_12
REMARK    2  A    between atoms: C_12  and  C_15
REMARK                            x       y       z     vdW  Elec       q    Type
REMARK                         _______ _______ _______ _____ _____    ______ ____
ROOT
ATOM      1  O   UNL     1      34.061 -15.419 -21.964  0.00  0.00    -0.410 OA
ATOM      2  O   UNL     1      35.134 -16.357 -20.195  0.00  0.00    -0.226 OA
ATOM      3  N   UNL     1      35.339 -17.415 -22.257  0.00  0.00    -0.233 N 
ATOM      4  C   UNL     1      34.859 -17.586 -23.623  0.00  0.00    +0.127 C 
ATOM      5  C   UNL     1      34.229 -16.362 -24.192  0.00  0.00    +0.033 C 
ATOM      6  C   UNL     1      33.832 -15.336 -23.347  0.00  0.00    +0.148 C 
ATOM      7  C   UNL     1      34.873 -16.418 -21.396  0.00  0.00    +0.410 C 
ATOM      8  C   UNL     1      33.970 -16.243 -25.560  0.00  0.00    +0.000 C 
ATOM      9  C   UNL     1      33.193 -14.194 -23.828  0.00  0.00    +0.037 C 
ATOM     10  C   UNL     1      33.336 -15.102 -26.060  0.00  0.00    -0.000 C 
ATOM     11  C   UNL     1      32.949 -14.079 -25.194  0.00  0.00    +0.003 C 
ENDROOT
BRANCH   3  12
ATOM     12  C   UNL     1      36.200 -18.471 -21.742  0.00  0.00    +0.182 C 
BRANCH  12  15
ATOM     13  O   UNL     1      34.206 -19.799 -21.391  0.00  0.00    -0.273 OA
ATOM     14  N   UNL     1      36.016 -20.128 -20.013  0.00  0.00    -0.327 N 
ATOM     15  C   UNL     1      35.360 -19.531 -21.067  0.00  0.00    +0.240 C 
ATOM     16  H   UNL     1      35.571 -20.836 -19.493  0.00  0.00    +0.145 HD
ATOM     17  H   UNL     1      36.930 -19.847 -19.779  0.00  0.00    +0.145 HD
ENDBRANCH  12  15
ENDBRANCH   3  12
TORSDOF 2
ENDMDL
MODEL 9
REMARK VINA RESULT:      -7.4     12.562     14.559
REMARK  Name = 29083
REMARK  2 active torsions:
REMARK  status: ('A' for Active; 'I' for Inactive)
REMARK    1  A    between atoms: N_3  and  C_12
REMARK    2  A    between atoms: C_12  and  C_15
REMARK                            x       y       z     vdW  Elec       q    Type
REMARK                         _______ _______ _______ _____ _____    ______ ____
ROOT
ATOM      1  O   UNL     1      33.494 -23.981 -13.007  0.00  0.00    -0.410 OA
ATOM      2  O   UNL     1      34.973 -24.285 -11.310  0.00  0.00    -0.226 OA
ATOM      3  N   UNL     1      35.824 -24.216 -13.474  0.00  0.00    -0.233 N 
ATOM      4  C   UNL     1      35.584 -24.287 -14.911  0.00  0.00    +0.127 C 
ATOM      5  C   UNL     1      34.228 -23.821 -15.313  0.00  0.00    +0.033 C 
ATOM      6  C   UNL     1      33.228 -23.706 -14.358  0.00  0.00    +0.148 C 
ATOM      7  C   UNL     1      34.801 -24.175 -12.524  0.00  0.00    +0.410 C 
ATOM      8  C   UNL     1      33.916 -23.549 -16.648  0.00  0.00    +0.000 C 
ATOM      9  C   UNL     1      31.931 -23.321 -14.696  0.00  0.00    +0.037 C 
ATOM     10  C   UNL     1      32.622 -23.156 -17.003  0.00  0.00    -0.000 C 
ATOM     11  C   UNL     1      31.632 -23.042 -16.027  0.00  0.00    +0.003 C 
ENDROOT
BRANCH   3  12
ATOM     12  C   UNL     1      37.204 -24.395 -13.044  0.00  0.00    +0.182 C 
BRANCH  12  15
ATOM     13  O   UNL     1      37.090 -26.570 -11.986  0.00  0.00    -0.273 OA
ATOM     14  N   UNL     1      38.351 -26.328 -13.892  0.00  0.00    -0.327 N 
ATOM     15  C   UNL     1      37.508 -25.869 -12.904  0.00  0.00    +0.240 C 
ATOM     16  H   UNL     1      38.623 -27.274 -13.908  0.00  0.00    +0.145 HD
ATOM     17  H   UNL     1      38.682 -25.710 -14.584  0.00  0.00    +0.145 HD
ENDBRANCH  12  15
ENDBRANCH   3  12
TORSDOF 2
ENDMDL
