MODEL 1
REMARK VINA RESULT:     -11.3      0.000      0.000
REMARK  Name = 5289411
REMARK  6 active torsions:
REMARK  status: ('A' for Active; 'I' for Inactive)
REMARK    1  A    between atoms: N_3  and  C_9
REMARK    2  A    between atoms: C_4  and  O_25
REMARK    3  A    between atoms: C_5  and  N_24
REMARK    4  A    between atoms: C_12  and  C_17
REMARK    5  A    between atoms: O_25  and  C_26
REMARK    6  A    between atoms: C_26  and  C_27
REMARK                            x       y       z     vdW  Elec       q    Type
REMARK                         _______ _______ _______ _____ _____    ______ ____
ROOT
ATOM      1  N   UNL     1      33.964 -23.849 -15.898  0.00  0.00    -0.293 NA
ATOM      2  N   UNL     1      32.474 -23.834 -14.004  0.00  0.00    -0.316 NA
ATOM      3  N   UNL     1      34.682 -24.600 -13.795  0.00  0.00    -0.238 N 
ATOM      4  C   UNL     1      32.960 -23.341 -16.642  0.00  0.00    +0.292 C 
ATOM      5  C   UNL     1      31.705 -23.058 -16.148  0.00  0.00    +0.261 C 
ATOM      6  C   UNL     1      31.516 -23.327 -14.808  0.00  0.00    +0.196 C 
ATOM      7  C   UNL     1      33.656 -24.069 -14.605  0.00  0.00    +0.207 C 
ATOM      8  H   UNL     1      34.412 -24.745 -12.858  0.00  0.00    +0.166 HD
ATOM      9  N   UNL     1      30.251 -23.062 -14.225  0.00  0.00    -0.334 N 
ATOM     10  H   UNL     1      30.100 -23.249 -13.270  0.00  0.00    +0.144 HD
ATOM     11  H   UNL     1      29.524 -22.691 -14.775  0.00  0.00    +0.144 HD
ENDROOT
BRANCH   3  12
ATOM     12  C   UNL     1      36.014 -24.964 -14.061  0.00  0.00    +0.058 C 
ATOM     13  C   UNL     1      37.063 -24.139 -13.646  0.00  0.00    +0.015 C 
ATOM     14  C   UNL     1      36.294 -26.150 -14.743  0.00  0.00    +0.015 C 
ATOM     15  C   UNL     1      38.659 -25.684 -14.594  0.00  0.00    +0.053 C 
ATOM     16  C   UNL     1      38.384 -24.500 -13.913  0.00  0.00    +0.006 C 
ATOM     17  C   UNL     1      37.615 -26.510 -15.010  0.00  0.00    +0.006 C 
BRANCH  15  20
ATOM     18  O   UNL     1      40.532 -25.913 -16.004  0.00  0.00    -0.270 OA
ATOM     19  N   UNL     1      40.795 -26.570 -13.823  0.00  0.00    -0.325 N 
ATOM     20  C   UNL     1      40.037 -26.059 -14.873  0.00  0.00    +0.243 C 
ATOM     21  H   UNL     1      41.731 -26.834 -13.975  0.00  0.00    +0.145 HD
ATOM     22  H   UNL     1      40.394 -26.668 -12.930  0.00  0.00    +0.145 HD
ENDBRANCH  15  20
ENDBRANCH   3  12
BRANCH   5  24
ATOM     23  O   UNL     1      29.683 -23.229 -16.970  0.00  0.00    -0.099 OA
ATOM     24  N   UNL     1      30.714 -22.541 -16.948  0.00  0.00    -0.030 NA
ENDBRANCH   5  24
BRANCH   4  25
ATOM     25  O   UNL     1      33.256 -23.112 -17.963  0.00  0.00    -0.453 OA
BRANCH  25  26
ATOM     26  C   UNL     1      34.508 -22.518 -18.249  0.00  0.00    +0.208 C 
BRANCH  26  27
ATOM     27  C   UNL     1      34.387 -21.736 -19.555  0.00  0.00    +0.044 C 
ATOM     28  C   UNL     1      33.095 -20.909 -19.573  0.00  0.00    +0.004 C 
ATOM     29  C   UNL     1      35.613 -20.838 -19.765  0.00  0.00    +0.004 C 
ATOM     30  C   UNL     1      32.977 -20.076 -20.848  0.00  0.00    +0.000 C 
ATOM     31  C   UNL     1      35.492 -20.005 -21.039  0.00  0.00    +0.000 C 
ATOM     32  C   UNL     1      34.201 -19.191 -21.057  0.00  0.00    +0.000 C 
ENDBRANCH  26  27
ENDBRANCH  25  26
ENDBRANCH   4  25
TORSDOF 6
ENDMDL
MODEL 2
REMARK VINA RESULT:     -11.1      2.087      6.577
REMARK  Name = 5289411
REMARK  6 active torsions:
REMARK  status: ('A' for Active; 'I' for Inactive)
REMARK    1  A    between atoms: N_3  and  C_9
REMARK    2  A    between atoms: C_4  and  O_25
REMARK    3  A    between atoms: C_5  and  N_24
REMARK    4  A    between atoms: C_12  and  C_17
REMARK    5  A    between atoms: O_25  and  C_26
REMARK    6  A    between atoms: C_26  and  C_27
REMARK                            x       y       z     vdW  Elec       q    Type
REMARK                         _______ _______ _______ _____ _____    ______ ____
ROOT
ATOM      1  N   UNL     1      34.496 -23.211 -15.792  0.00  0.00    -0.293 NA
ATOM      2  N   UNL     1      35.323 -23.972 -13.660  0.00  0.00    -0.316 NA
ATOM      3  N   UNL     1      33.029 -24.024 -14.152  0.00  0.00    -0.238 N 
ATOM      4  C   UNL     1      35.769 -22.932 -16.142  0.00  0.00    +0.292 C 
ATOM      5  C   UNL     1      36.855 -23.142 -15.320  0.00  0.00    +0.261 C 
ATOM      6  C   UNL     1      36.570 -23.669 -14.077  0.00  0.00    +0.196 C 
ATOM      7  C   UNL     1      34.347 -23.721 -14.554  0.00  0.00    +0.207 C 
ATOM      8  H   UNL     1      32.968 -24.394 -13.241  0.00  0.00    +0.166 HD
ATOM      9  N   UNL     1      37.635 -23.914 -13.173  0.00  0.00    -0.334 N 
ATOM     10  H   UNL     1      37.448 -24.290 -12.282  0.00  0.00    +0.144 HD
ATOM     11  H   UNL     1      38.560 -23.709 -13.436  0.00  0.00    +0.144 HD
ENDROOT
BRANCH   3  12
ATOM     12  C   UNL     1      31.785 -23.903 -14.797  0.00  0.00    +0.058 C 
ATOM     13  C   UNL     1      31.604 -22.947 -15.799  0.00  0.00    +0.015 C 
ATOM     14  C   UNL     1      30.725 -24.738 -14.437  0.00  0.00    +0.015 C 
ATOM     15  C   UNL     1      29.313 -23.661 -16.075  0.00  0.00    +0.053 C 
ATOM     16  C   UNL     1      30.370 -22.826 -16.437  0.00  0.00    +0.006 C 
ATOM     17  C   UNL     1      29.490 -24.617 -15.075  0.00  0.00    +0.006 C 
BRANCH  15  20
ATOM     18  O   UNL     1      27.652 -24.359 -17.591  0.00  0.00    -0.270 OA
ATOM     19  N   UNL     1      27.213 -22.463 -16.379  0.00  0.00    -0.325 N 
ATOM     20  C   UNL     1      28.026 -23.533 -16.740  0.00  0.00    +0.243 C 
ATOM     21  H   UNL     1      26.335 -22.345 -16.808  0.00  0.00    +0.145 HD
ATOM     22  H   UNL     1      27.516 -21.824 -15.694  0.00  0.00    +0.145 HD
ENDBRANCH  15  20
ENDBRANCH   3  12
BRANCH   5  24
ATOM     23  O   UNL     1      38.916 -23.800 -15.652  0.00  0.00    -0.099 OA
ATOM     24  N   UNL     1      38.134 -22.841 -15.723  0.00  0.00    -0.030 NA
ENDBRANCH   5  24
BRANCH   4  25
ATOM     25  O   UNL     1      35.940 -22.411 -17.400  0.00  0.00    -0.453 OA
BRANCH  25  26
ATOM     26  C   UNL     1      34.877 -22.583 -18.319  0.00  0.00    +0.208 C 
BRANCH  26  27
ATOM     27  C   UNL     1      34.664 -21.269 -19.067  0.00  0.00    +0.044 C 
ATOM     28  C   UNL     1      35.792 -21.036 -20.082  0.00  0.00    +0.004 C 
ATOM     29  C   UNL     1      33.295 -21.254 -19.759  0.00  0.00    +0.004 C 
ATOM     30  C   UNL     1      35.573 -19.753 -20.882  0.00  0.00    +0.000 C 
ATOM     31  C   UNL     1      33.080 -19.971 -20.559  0.00  0.00    +0.000 C 
ATOM     32  C   UNL     1      34.208 -19.739 -21.560  0.00  0.00    +0.000 C 
ENDBRANCH  26  27
ENDBRANCH  25  26
ENDBRANCH   4  25
TORSDOF 6
ENDMDL
MODEL 3
REMARK VINA RESULT:     -10.9      2.176      6.643
REMARK  Name = 5289411
REMARK  6 active torsions:
REMARK  status: ('A' for Active; 'I' for Inactive)
REMARK    1  A    between atoms: N_3  and  C_9
REMARK    2  A    between atoms: C_4  and  O_25
REMARK    3  A    between atoms: C_5  and  N_24
REMARK    4  A    between atoms: C_12  and  C_17
REMARK    5  A    between atoms: O_25  and  C_26
REMARK    6  A    between atoms: C_26  and  C_27
REMARK                            x       y       z     vdW  Elec       q    Type
REMARK                         _______ _______ _______ _____ _____    ______ ____
ROOT
ATOM      1  N   UNL     1      34.481 -23.917 -14.651  0.00  0.00    -0.293 NA
ATOM      2  N   UNL     1      34.786 -24.188 -12.276  0.00  0.00    -0.316 NA
ATOM      3  N   UNL     1      32.637 -24.102 -13.213  0.00  0.00    -0.238 N 
ATOM      4  C   UNL     1      35.823 -23.887 -14.781  0.00  0.00    +0.292 C 
ATOM      5  C   UNL     1      36.700 -23.999 -13.723  0.00  0.00    +0.261 C 
ATOM      6  C   UNL     1      36.120 -24.149 -12.480  0.00  0.00    +0.196 C 
ATOM      7  C   UNL     1      34.037 -24.067 -13.388  0.00  0.00    +0.207 C 
ATOM      8  H   UNL     1      32.358 -24.212 -12.274  0.00  0.00    +0.166 HD
ATOM      9  N   UNL     1      36.956 -24.272 -11.341  0.00  0.00    -0.334 N 
ATOM     10  H   UNL     1      36.557 -24.379 -10.447  0.00  0.00    +0.144 HD
ATOM     11  H   UNL     1      37.934 -24.249 -11.445  0.00  0.00    +0.144 HD
ENDROOT
BRANCH   3  12
ATOM     12  C   UNL     1      31.561 -24.010 -14.115  0.00  0.00    +0.058 C 
ATOM     13  C   UNL     1      30.803 -25.144 -14.420  0.00  0.00    +0.015 C 
ATOM     14  C   UNL     1      31.248 -22.787 -14.710  0.00  0.00    +0.015 C 
ATOM     15  C   UNL     1      29.428 -23.829 -15.909  0.00  0.00    +0.053 C 
ATOM     16  C   UNL     1      29.738 -25.052 -15.316  0.00  0.00    +0.006 C 
ATOM     17  C   UNL     1      30.183 -22.696 -15.606  0.00  0.00    +0.006 C 
BRANCH  15  20
ATOM     18  O   UNL     1      27.861 -24.744 -17.410  0.00  0.00    -0.270 OA
ATOM     19  N   UNL     1      27.767 -22.478 -17.073  0.00  0.00    -0.325 N 
ATOM     20  C   UNL     1      28.318 -23.736 -16.844  0.00  0.00    +0.243 C 
ATOM     21  H   UNL     1      27.014 -22.377 -17.699  0.00  0.00    +0.145 HD
ATOM     22  H   UNL     1      28.130 -21.691 -16.607  0.00  0.00    +0.145 HD
ENDBRANCH  15  20
ENDBRANCH   3  12
BRANCH   5  24
ATOM     23  O   UNL     1      38.618 -25.054 -13.720  0.00  0.00    -0.099 OA
ATOM     24  N   UNL     1      38.061 -23.962 -13.908  0.00  0.00    -0.030 NA
ENDBRANCH   5  24
BRANCH   4  25
ATOM     25  O   UNL     1      36.294 -23.733 -16.061  0.00  0.00    -0.453 OA
BRANCH  25  26
ATOM     26  C   UNL     1      36.456 -22.409 -16.534  0.00  0.00    +0.208 C 
BRANCH  26  27
ATOM     27  C   UNL     1      35.913 -22.333 -17.959  0.00  0.00    +0.044 C 
ATOM     28  C   UNL     1      34.378 -22.300 -17.952  0.00  0.00    +0.004 C 
ATOM     29  C   UNL     1      36.481 -21.111 -18.691  0.00  0.00    +0.004 C 
ATOM     30  C   UNL     1      33.811 -22.170 -19.364  0.00  0.00    +0.000 C 
ATOM     31  C   UNL     1      35.911 -20.982 -20.102  0.00  0.00    +0.000 C 
ATOM     32  C   UNL     1      34.386 -20.959 -20.091  0.00  0.00    +0.000 C 
ENDBRANCH  26  27
ENDBRANCH  25  26
ENDBRANCH   4  25
TORSDOF 6
ENDMDL
MODEL 4
REMARK VINA RESULT:     -10.5      2.690      7.194
REMARK  Name = 5289411
REMARK  6 active torsions:
REMARK  status: ('A' for Active; 'I' for Inactive)
REMARK    1  A    between atoms: N_3  and  C_9
REMARK    2  A    between atoms: C_4  and  O_25
REMARK    3  A    between atoms: C_5  and  N_24
REMARK    4  A    between atoms: C_12  and  C_17
REMARK    5  A    between atoms: O_25  and  C_26
REMARK    6  A    between atoms: C_26  and  C_27
REMARK                            x       y       z     vdW  Elec       q    Type
REMARK                         _______ _______ _______ _____ _____    ______ ____
ROOT
ATOM      1  N   UNL     1      35.653 -23.661 -15.137  0.00  0.00    -0.293 NA
ATOM      2  N   UNL     1      38.032 -23.726 -14.758  0.00  0.00    -0.316 NA
ATOM      3  N   UNL     1      37.143 -22.689 -16.666  0.00  0.00    -0.238 N 
ATOM      4  C   UNL     1      35.489 -24.336 -13.981  0.00  0.00    +0.292 C 
ATOM      5  C   UNL     1      36.530 -24.735 -13.170  0.00  0.00    +0.261 C 
ATOM      6  C   UNL     1      37.794 -24.400 -13.613  0.00  0.00    +0.196 C 
ATOM      7  C   UNL     1      36.932 -23.394 -15.461  0.00  0.00    +0.207 C 
ATOM      8  H   UNL     1      38.093 -22.516 -16.862  0.00  0.00    +0.166 HD
ATOM      9  N   UNL     1      38.917 -24.775 -12.834  0.00  0.00    -0.334 N 
ATOM     10  H   UNL     1      39.825 -24.544 -13.136  0.00  0.00    +0.144 HD
ATOM     11  H   UNL     1      38.789 -25.267 -11.991  0.00  0.00    +0.144 HD
ENDROOT
BRANCH   3  12
ATOM     12  C   UNL     1      36.263 -22.184 -17.640  0.00  0.00    +0.058 C 
ATOM     13  C   UNL     1      34.911 -22.534 -17.613  0.00  0.00    +0.015 C 
ATOM     14  C   UNL     1      36.739 -21.333 -18.640  0.00  0.00    +0.015 C 
ATOM     15  C   UNL     1      34.517 -21.185 -19.578  0.00  0.00    +0.053 C 
ATOM     16  C   UNL     1      34.039 -22.034 -18.581  0.00  0.00    +0.006 C 
ATOM     17  C   UNL     1      35.867 -20.834 -19.609  0.00  0.00    +0.006 C 
BRANCH  15  20
ATOM     18  O   UNL     1      32.406 -20.986 -20.603  0.00  0.00    -0.270 OA
ATOM     19  N   UNL     1      34.122 -19.781 -21.530  0.00  0.00    -0.325 N 
ATOM     20  C   UNL     1      33.608 -20.666 -20.588  0.00  0.00    +0.243 C 
ATOM     21  H   UNL     1      33.536 -19.409 -22.228  0.00  0.00    +0.145 HD
ATOM     22  H   UNL     1      35.072 -19.526 -21.498  0.00  0.00    +0.145 HD
ENDBRANCH  15  20
ENDBRANCH   3  12
BRANCH   5  24
ATOM     23  O   UNL     1      36.908 -26.507 -11.941  0.00  0.00    -0.099 OA
ATOM     24  N   UNL     1      36.311 -25.422 -12.000  0.00  0.00    -0.030 NA
ENDBRANCH   5  24
BRANCH   4  25
ATOM     25  O   UNL     1      34.191 -24.618 -13.634  0.00  0.00    -0.453 OA
BRANCH  25  26
ATOM     26  C   UNL     1      33.250 -23.567 -13.750  0.00  0.00    +0.208 C 
BRANCH  26  27
ATOM     27  C   UNL     1      32.114 -24.030 -14.659  0.00  0.00    +0.044 C 
ATOM     28  C   UNL     1      31.196 -25.013 -13.919  0.00  0.00    +0.004 C 
ATOM     29  C   UNL     1      31.317 -22.830 -15.186  0.00  0.00    +0.004 C 
ATOM     30  C   UNL     1      30.020 -25.451 -14.790  0.00  0.00    +0.000 C 
ATOM     31  C   UNL     1      30.141 -23.271 -16.055  0.00  0.00    +0.000 C 
ATOM     32  C   UNL     1      29.236 -24.254 -15.319  0.00  0.00    +0.000 C 
ENDBRANCH  26  27
ENDBRANCH  25  26
ENDBRANCH   4  25
TORSDOF 6
ENDMDL
MODEL 5
REMARK VINA RESULT:     -10.4      2.709      5.319
REMARK  Name = 5289411
REMARK  6 active torsions:
REMARK  status: ('A' for Active; 'I' for Inactive)
REMARK    1  A    between atoms: N_3  and  C_9
REMARK    2  A    between atoms: C_4  and  O_25
REMARK    3  A    between atoms: C_5  and  N_24
REMARK    4  A    between atoms: C_12  and  C_17
REMARK    5  A    between atoms: O_25  and  C_26
REMARK    6  A    between atoms: C_26  and  C_27
REMARK                            x       y       z     vdW  Elec       q    Type
REMARK                         _______ _______ _______ _____ _____    ______ ____
ROOT
ATOM      1  N   UNL     1      34.775 -22.582 -17.626  0.00  0.00    -0.293 NA
ATOM      2  N   UNL     1      36.162 -21.128 -18.956  0.00  0.00    -0.316 NA
ATOM      3  N   UNL     1      36.998 -22.148 -17.015  0.00  0.00    -0.238 N 
ATOM      4  C   UNL     1      33.773 -22.363 -18.502  0.00  0.00    +0.292 C 
ATOM      5  C   UNL     1      33.885 -21.551 -19.610  0.00  0.00    +0.261 C 
ATOM      6  C   UNL     1      35.116 -20.953 -19.790  0.00  0.00    +0.196 C 
ATOM      7  C   UNL     1      35.926 -21.942 -17.910  0.00  0.00    +0.207 C 
ATOM      8  H   UNL     1      37.818 -21.660 -17.262  0.00  0.00    +0.166 HD
ATOM      9  N   UNL     1      35.310 -20.104 -20.909  0.00  0.00    -0.334 N 
ATOM     10  H   UNL     1      36.183 -19.669 -21.051  0.00  0.00    +0.144 HD
ATOM     11  H   UNL     1      34.574 -19.949 -21.543  0.00  0.00    +0.144 HD
ENDROOT
BRANCH   3  12
ATOM     12  C   UNL     1      37.126 -22.912 -15.842  0.00  0.00    +0.058 C 
ATOM     13  C   UNL     1      36.169 -22.809 -14.830  0.00  0.00    +0.015 C 
ATOM     14  C   UNL     1      38.212 -23.775 -15.682  0.00  0.00    +0.015 C 
ATOM     15  C   UNL     1      37.383 -24.427 -13.509  0.00  0.00    +0.053 C 
ATOM     16  C   UNL     1      36.297 -23.566 -13.665  0.00  0.00    +0.006 C 
ATOM     17  C   UNL     1      38.341 -24.533 -14.518  0.00  0.00    +0.006 C 
BRANCH  15  20
ATOM     18  O   UNL     1      37.962 -24.717 -11.245  0.00  0.00    -0.270 OA
ATOM     19  N   UNL     1      37.111 -26.546 -12.336  0.00  0.00    -0.325 N 
ATOM     20  C   UNL     1      37.517 -25.215 -12.294  0.00  0.00    +0.243 C 
ATOM     21  H   UNL     1      37.187 -27.109 -11.532  0.00  0.00    +0.145 HD
ATOM     22  H   UNL     1      36.748 -26.923 -13.169  0.00  0.00    +0.145 HD
ENDBRANCH  15  20
ENDBRANCH   3  12
BRANCH   5  24
ATOM     23  O   UNL     1      32.378 -20.206 -20.453  0.00  0.00    -0.099 OA
ATOM     24  N   UNL     1      32.833 -21.359 -20.473  0.00  0.00    -0.030 NA
ENDBRANCH   5  24
BRANCH   4  25
ATOM     25  O   UNL     1      32.592 -23.007 -18.228  0.00  0.00    -0.453 OA
BRANCH  25  26
ATOM     26  C   UNL     1      31.871 -22.575 -17.089  0.00  0.00    +0.208 C 
BRANCH  26  27
ATOM     27  C   UNL     1      31.757 -23.745 -16.115  0.00  0.00    +0.044 C 
ATOM     28  C   UNL     1      32.545 -23.457 -14.829  0.00  0.00    +0.004 C 
ATOM     29  C   UNL     1      30.287 -24.047 -15.798  0.00  0.00    +0.004 C 
ATOM     30  C   UNL     1      32.403 -24.592 -13.816  0.00  0.00    +0.000 C 
ATOM     31  C   UNL     1      30.148 -25.179 -14.783  0.00  0.00    +0.000 C 
ATOM     32  C   UNL     1      30.940 -24.893 -13.511  0.00  0.00    +0.000 C 
ENDBRANCH  26  27
ENDBRANCH  25  26
ENDBRANCH   4  25
TORSDOF 6
ENDMDL
MODEL 6
REMARK VINA RESULT:     -10.1      2.743      7.169
REMARK  Name = 5289411
REMARK  6 active torsions:
REMARK  status: ('A' for Active; 'I' for Inactive)
REMARK    1  A    between atoms: N_3  and  C_9
REMARK    2  A    between atoms: C_4  and  O_25
REMARK    3  A    between atoms: C_5  and  N_24
REMARK    4  A    between atoms: C_12  and  C_17
REMARK    5  A    between atoms: O_25  and  C_26
REMARK    6  A    between atoms: C_26  and  C_27
REMARK                            x       y       z     vdW  Elec       q    Type
REMARK                         _______ _______ _______ _____ _____    ______ ____
ROOT
ATOM      1  N   UNL     1      33.826 -22.606 -16.865  0.00  0.00    -0.293 NA
ATOM      2  N   UNL     1      31.561 -23.343 -17.232  0.00  0.00    -0.316 NA
ATOM      3  N   UNL     1      32.681 -22.045 -18.834  0.00  0.00    -0.238 N 
ATOM      4  C   UNL     1      33.798 -23.240 -15.675  0.00  0.00    +0.292 C 
ATOM      5  C   UNL     1      32.706 -23.935 -15.199  0.00  0.00    +0.261 C 
ATOM      6  C   UNL     1      31.603 -23.953 -16.029  0.00  0.00    +0.196 C 
ATOM      7  C   UNL     1      32.689 -22.697 -17.582  0.00  0.00    +0.207 C 
ATOM      8  H   UNL     1      31.830 -22.138 -19.323  0.00  0.00    +0.166 HD
ATOM      9  N   UNL     1      30.440 -24.648 -15.611  0.00  0.00    -0.334 N 
ATOM     10  H   UNL     1      29.645 -24.671 -16.192  0.00  0.00    +0.144 HD
ATOM     11  H   UNL     1      30.428 -25.108 -14.742  0.00  0.00    +0.144 HD
ENDROOT
BRANCH   3  12
ATOM     12  C   UNL     1      33.649 -21.291 -19.522  0.00  0.00    +0.058 C 
ATOM     13  C   UNL     1      33.262 -20.202 -20.307  0.00  0.00    +0.015 C 
ATOM     14  C   UNL     1      35.000 -21.629 -19.425  0.00  0.00    +0.015 C 
ATOM     15  C   UNL     1      35.570 -19.795 -20.890  0.00  0.00    +0.053 C 
ATOM     16  C   UNL     1      34.222 -19.455 -20.990  0.00  0.00    +0.006 C 
ATOM     17  C   UNL     1      35.961 -20.882 -20.108  0.00  0.00    +0.006 C 
BRANCH  15  20
ATOM     18  O   UNL     1      37.773 -19.065 -21.291  0.00  0.00    -0.270 OA
ATOM     19  N   UNL     1      36.141 -18.226 -22.665  0.00  0.00    -0.325 N 
ATOM     20  C   UNL     1      36.571 -19.017 -21.604  0.00  0.00    +0.243 C 
ATOM     21  H   UNL     1      36.789 -17.686 -23.171  0.00  0.00    +0.145 HD
ATOM     22  H   UNL     1      35.187 -18.208 -22.910  0.00  0.00    +0.145 HD
ENDBRANCH  15  20
ENDBRANCH   3  12
BRANCH   5  24
ATOM     23  O   UNL     1      32.104 -23.956 -13.095  0.00  0.00    -0.099 OA
ATOM     24  N   UNL     1      32.727 -24.564 -13.978  0.00  0.00    -0.030 NA
ENDBRANCH   5  24
BRANCH   4  25
ATOM     25  O   UNL     1      34.948 -23.158 -14.929  0.00  0.00    -0.453 OA
BRANCH  25  26
ATOM     26  C   UNL     1      36.175 -23.288 -15.622  0.00  0.00    +0.208 C 
BRANCH  26  27
ATOM     27  C   UNL     1      37.068 -24.256 -14.848  0.00  0.00    +0.044 C 
ATOM     28  C   UNL     1      37.305 -23.749 -13.419  0.00  0.00    +0.004 C 
ATOM     29  C   UNL     1      36.458 -25.663 -14.834  0.00  0.00    +0.004 C 
ATOM     30  C   UNL     1      38.152 -24.727 -12.607  0.00  0.00    +0.000 C 
ATOM     31  C   UNL     1      37.307 -26.638 -14.021  0.00  0.00    +0.000 C 
ATOM     32  C   UNL     1      37.547 -26.127 -12.604  0.00  0.00    +0.000 C 
ENDBRANCH  26  27
ENDBRANCH  25  26
ENDBRANCH   4  25
TORSDOF 6
ENDMDL
MODEL 7
REMARK VINA RESULT:      -9.9      2.676      7.288
REMARK  Name = 5289411
REMARK  6 active torsions:
REMARK  status: ('A' for Active; 'I' for Inactive)
REMARK    1  A    between atoms: N_3  and  C_9
REMARK    2  A    between atoms: C_4  and  O_25
REMARK    3  A    between atoms: C_5  and  N_24
REMARK    4  A    between atoms: C_12  and  C_17
REMARK    5  A    between atoms: O_25  and  C_26
REMARK    6  A    between atoms: C_26  and  C_27
REMARK                            x       y       z     vdW  Elec       q    Type
REMARK                         _______ _______ _______ _____ _____    ______ ____
ROOT
ATOM      1  N   UNL     1      34.451 -22.788 -16.181  0.00  0.00    -0.293 NA
ATOM      2  N   UNL     1      32.377 -23.986 -15.918  0.00  0.00    -0.316 NA
ATOM      3  N   UNL     1      32.814 -22.744 -17.860  0.00  0.00    -0.238 N 
ATOM      4  C   UNL     1      34.820 -23.237 -14.964  0.00  0.00    +0.292 C 
ATOM      5  C   UNL     1      34.036 -24.050 -14.174  0.00  0.00    +0.261 C 
ATOM      6  C   UNL     1      32.811 -24.397 -14.708  0.00  0.00    +0.196 C 
ATOM      7  C   UNL     1      33.235 -23.194 -16.590  0.00  0.00    +0.207 C 
ATOM      8  H   UNL     1      31.919 -23.065 -18.117  0.00  0.00    +0.166 HD
ATOM      9  N   UNL     1      31.946 -25.232 -13.956  0.00  0.00    -0.334 N 
ATOM     10  H   UNL     1      31.068 -25.489 -14.323  0.00  0.00    +0.144 HD
ATOM     11  H   UNL     1      32.222 -25.556 -13.069  0.00  0.00    +0.144 HD
ENDROOT
BRANCH   3  12
ATOM     12  C   UNL     1      33.422 -21.927 -18.830  0.00  0.00    +0.058 C 
ATOM     13  C   UNL     1      34.784 -22.061 -19.107  0.00  0.00    +0.015 C 
ATOM     14  C   UNL     1      32.666 -20.976 -19.519  0.00  0.00    +0.015 C 
ATOM     15  C   UNL     1      34.629 -20.300 -20.753  0.00  0.00    +0.053 C 
ATOM     16  C   UNL     1      35.387 -21.249 -20.068  0.00  0.00    +0.006 C 
ATOM     17  C   UNL     1      33.268 -20.163 -20.480  0.00  0.00    +0.006 C 
BRANCH  15  20
ATOM     18  O   UNL     1      34.840 -19.412 -22.925  0.00  0.00    -0.270 OA
ATOM     19  N   UNL     1      36.338 -18.671 -21.355  0.00  0.00    -0.325 N 
ATOM     20  C   UNL     1      35.258 -19.453 -21.754  0.00  0.00    +0.243 C 
ATOM     21  H   UNL     1      36.788 -18.085 -22.005  0.00  0.00    +0.145 HD
ATOM     22  H   UNL     1      36.650 -18.704 -20.423  0.00  0.00    +0.145 HD
ENDBRANCH  15  20
ENDBRANCH   3  12
BRANCH   5  24
ATOM     23  O   UNL     1      34.222 -23.677 -12.026  0.00  0.00    -0.099 OA
ATOM     24  N   UNL     1      34.457 -24.481 -12.940  0.00  0.00    -0.030 NA
ENDBRANCH   5  24
BRANCH   4  25
ATOM     25  O   UNL     1      36.058 -22.831 -14.529  0.00  0.00    -0.453 OA
BRANCH  25  26
ATOM     26  C   UNL     1      37.145 -23.016 -15.417  0.00  0.00    +0.208 C 
BRANCH  26  27
ATOM     27  C   UNL     1      37.889 -24.288 -15.015  0.00  0.00    +0.044 C 
ATOM     28  C   UNL     1      39.308 -24.292 -15.600  0.00  0.00    +0.004 C 
ATOM     29  C   UNL     1      37.927 -24.434 -13.488  0.00  0.00    +0.004 C 
ATOM     30  C   UNL     1      40.092 -25.530 -15.167  0.00  0.00    +0.000 C 
ATOM     31  C   UNL     1      38.713 -25.670 -13.059  0.00  0.00    +0.000 C 
ATOM     32  C   UNL     1      40.120 -25.675 -13.649  0.00  0.00    +0.000 C 
ENDBRANCH  26  27
ENDBRANCH  25  26
ENDBRANCH   4  25
TORSDOF 6
ENDMDL
MODEL 8
REMARK VINA RESULT:      -9.8      7.901     11.338
REMARK  Name = 5289411
REMARK  6 active torsions:
REMARK  status: ('A' for Active; 'I' for Inactive)
REMARK    1  A    between atoms: N_3  and  C_9
REMARK    2  A    between atoms: C_4  and  O_25
REMARK    3  A    between atoms: C_5  and  N_24
REMARK    4  A    between atoms: C_12  and  C_17
REMARK    5  A    between atoms: O_25  and  C_26
REMARK    6  A    between atoms: C_26  and  C_27
REMARK                            x       y       z     vdW  Elec       q    Type
REMARK                         _______ _______ _______ _____ _____    ______ ____
ROOT
ATOM      1  N   UNL     1      34.081 -15.524 -23.496  0.00  0.00    -0.293 NA
ATOM      2  N   UNL     1      34.028 -15.917 -25.873  0.00  0.00    -0.316 NA
ATOM      3  N   UNL     1      34.673 -17.613 -24.385  0.00  0.00    -0.238 N 
ATOM      4  C   UNL     1      33.667 -14.263 -23.735  0.00  0.00    +0.292 C 
ATOM      5  C   UNL     1      33.416 -13.762 -24.994  0.00  0.00    +0.261 C 
ATOM      6  C   UNL     1      33.615 -14.643 -26.038  0.00  0.00    +0.196 C 
ATOM      7  C   UNL     1      34.240 -16.286 -24.595  0.00  0.00    +0.207 C 
ATOM      8  H   UNL     1      34.775 -18.132 -25.216  0.00  0.00    +0.166 HD
ATOM      9  N   UNL     1      33.377 -14.203 -27.364  0.00  0.00    -0.334 N 
ATOM     10  H   UNL     1      33.515 -14.819 -28.120  0.00  0.00    +0.144 HD
ATOM     11  H   UNL     1      33.075 -13.281 -27.530  0.00  0.00    +0.144 HD
ENDROOT
BRANCH   3  12
ATOM     12  C   UNL     1      34.987 -18.339 -23.222  0.00  0.00    +0.058 C 
ATOM     13  C   UNL     1      36.237 -18.186 -22.616  0.00  0.00    +0.015 C 
ATOM     14  C   UNL     1      34.052 -19.217 -22.670  0.00  0.00    +0.015 C 
ATOM     15  C   UNL     1      35.612 -19.784 -20.915  0.00  0.00    +0.053 C 
ATOM     16  C   UNL     1      36.548 -18.908 -21.464  0.00  0.00    +0.006 C 
ATOM     17  C   UNL     1      34.364 -19.939 -21.518  0.00  0.00    +0.006 C 
BRANCH  15  20
ATOM     18  O   UNL     1      36.893 -20.213 -18.986  0.00  0.00    -0.270 OA
ATOM     19  N   UNL     1      35.135 -21.628 -19.394  0.00  0.00    -0.325 N 
ATOM     20  C   UNL     1      35.939 -20.538 -19.715  0.00  0.00    +0.243 C 
ATOM     21  H   UNL     1      35.326 -22.160 -18.589  0.00  0.00    +0.145 HD
ATOM     22  H   UNL     1      34.375 -21.865 -19.973  0.00  0.00    +0.145 HD
ENDBRANCH  15  20
ENDBRANCH   3  12
BRANCH   5  24
ATOM     23  O   UNL     1      33.876 -11.719 -25.632  0.00  0.00    -0.099 OA
ATOM     24  N   UNL     1      32.995 -12.468 -25.186  0.00  0.00    -0.030 NA
ENDBRANCH   5  24
BRANCH   4  25
ATOM     25  O   UNL     1      33.501 -13.471 -22.626  0.00  0.00    -0.453 OA
BRANCH  25  26
ATOM     26  C   UNL     1      32.371 -13.728 -21.814  0.00  0.00    +0.208 C 
BRANCH  26  27
ATOM     27  C   UNL     1      31.705 -12.396 -21.474  0.00  0.00    +0.044 C 
ATOM     28  C   UNL     1      31.843 -12.089 -19.977  0.00  0.00    +0.004 C 
ATOM     29  C   UNL     1      32.296 -11.262 -22.321  0.00  0.00    +0.004 C 
ATOM     30  C   UNL     1      31.230 -10.736 -19.620  0.00  0.00    +0.000 C 
ATOM     31  C   UNL     1      31.684  -9.910 -21.961  0.00  0.00    +0.000 C 
ATOM     32  C   UNL     1      31.815  -9.613 -20.471  0.00  0.00    +0.000 C 
ENDBRANCH  26  27
ENDBRANCH  25  26
ENDBRANCH   4  25
TORSDOF 6
ENDMDL
MODEL 9
REMARK VINA RESULT:      -9.4      6.141      9.136
REMARK  Name = 5289411
REMARK  6 active torsions:
REMARK  status: ('A' for Active; 'I' for Inactive)
REMARK    1  A    between atoms: N_3  and  C_9
REMARK    2  A    between atoms: C_4  and  O_25
REMARK    3  A    between atoms: C_5  and  N_24
REMARK    4  A    between atoms: C_12  and  C_17
REMARK    5  A    between atoms: O_25  and  C_26
REMARK    6  A    between atoms: C_26  and  C_27
REMARK                            x       y       z     vdW  Elec       q    Type
REMARK                         _______ _______ _______ _____ _____    ______ ____
ROOT
ATOM      1  N   UNL     1      34.591 -17.650 -21.435  0.00  0.00    -0.293 NA
ATOM      2  N   UNL     1      35.072 -18.165 -23.740  0.00  0.00    -0.316 NA
ATOM      3  N   UNL     1      34.913 -19.867 -22.133  0.00  0.00    -0.238 N 
ATOM      4  C   UNL     1      34.545 -16.346 -21.776  0.00  0.00    +0.292 C 
ATOM      5  C   UNL     1      34.749 -15.879 -23.057  0.00  0.00    +0.261 C 
ATOM      6  C   UNL     1      35.011 -16.843 -24.009  0.00  0.00    +0.196 C 
ATOM      7  C   UNL     1      34.856 -18.493 -22.452  0.00  0.00    +0.207 C 
ATOM      8  H   UNL     1      35.109 -20.445 -22.906  0.00  0.00    +0.166 HD
ATOM      9  N   UNL     1      35.232 -16.443 -25.351  0.00  0.00    -0.334 N 
ATOM     10  H   UNL     1      35.421 -17.119 -26.042  0.00  0.00    +0.144 HD
ATOM     11  H   UNL     1      35.196 -15.489 -25.592  0.00  0.00    +0.144 HD
ENDROOT
BRANCH   3  12
ATOM     12  C   UNL     1      34.743 -20.572 -20.928  0.00  0.00    +0.058 C 
ATOM     13  C   UNL     1      35.857 -21.039 -20.226  0.00  0.00    +0.015 C 
ATOM     14  C   UNL     1      33.460 -20.811 -20.430  0.00  0.00    +0.015 C 
ATOM     15  C   UNL     1      34.405 -21.977 -18.538  0.00  0.00    +0.053 C 
ATOM     16  C   UNL     1      35.688 -21.740 -19.032  0.00  0.00    +0.006 C 
ATOM     17  C   UNL     1      33.291 -21.513 -19.236  0.00  0.00    +0.006 C 
BRANCH  15  20
ATOM     18  O   UNL     1      33.141 -23.233 -16.997  0.00  0.00    -0.270 OA
ATOM     19  N   UNL     1      35.330 -22.825 -16.448  0.00  0.00    -0.325 N 
ATOM     20  C   UNL     1      34.230 -22.710 -17.293  0.00  0.00    +0.243 C 
ATOM     21  H   UNL     1      35.248 -23.313 -15.598  0.00  0.00    +0.145 HD
ATOM     22  H   UNL     1      36.189 -22.417 -16.701  0.00  0.00    +0.145 HD
ENDBRANCH  15  20
ENDBRANCH   3  12
BRANCH   5  24
ATOM     23  O   UNL     1      33.873 -14.261 -24.242  0.00  0.00    -0.099 OA
ATOM     24  N   UNL     1      34.692 -14.539 -23.354  0.00  0.00    -0.030 NA
ENDBRANCH   5  24
BRANCH   4  25
ATOM     25  O   UNL     1      34.277 -15.472 -20.752  0.00  0.00    -0.453 OA
BRANCH  25  26
ATOM     26  C   UNL     1      32.920 -15.137 -20.530  0.00  0.00    +0.208 C 
BRANCH  26  27
ATOM     27  C   UNL     1      32.746 -13.637 -20.759  0.00  0.00    +0.044 C 
ATOM     28  C   UNL     1      31.975 -13.374 -22.059  0.00  0.00    +0.004 C 
ATOM     29  C   UNL     1      32.040 -12.984 -19.563  0.00  0.00    +0.004 C 
ATOM     30  C   UNL     1      31.741 -11.881 -22.284  0.00  0.00    +0.000 C 
ATOM     31  C   UNL     1      31.807 -11.493 -19.791  0.00  0.00    +0.000 C 
ATOM     32  C   UNL     1      31.047 -11.235 -21.089  0.00  0.00    +0.000 C 
ENDBRANCH  26  27
ENDBRANCH  25  26
ENDBRANCH   4  25
TORSDOF 6
ENDMDL
