MODEL 1
REMARK VINA RESULT:     -10.4      0.000      0.000
REMARK  Name = 5566
REMARK  5 active torsions:
REMARK  status: ('A' for Active; 'I' for Inactive)
REMARK    1  A    between atoms: N_2  and  C_19
REMARK    2  A    between atoms: C_9  and  C_18
REMARK    3  A    between atoms: C_19  and  C_20
REMARK    4  A    between atoms: C_20  and  C_21
REMARK    5  A    between atoms: C_21  and  N_22
REMARK                            x       y       z     vdW  Elec       q    Type
REMARK                         _______ _______ _______ _____ _____    ______ ____
ROOT
ATOM      1  S   UNL     1      33.911 -24.256 -13.550  0.00  0.00    -0.084 S 
ATOM      2  N   UNL     1      33.595 -23.399 -16.521  0.00  0.00    -0.286 N 
ATOM      3  C   UNL     1      32.389 -23.527 -15.786  0.00  0.00    +0.058 C 
ATOM      4  C   UNL     1      34.877 -23.188 -15.953  0.00  0.00    +0.058 C 
ATOM      5  C   UNL     1      32.403 -23.887 -14.425  0.00  0.00    +0.043 C 
ATOM      6  C   UNL     1      35.138 -23.515 -14.607  0.00  0.00    +0.043 C 
ATOM      7  C   UNL     1      31.129 -23.268 -16.367  0.00  0.00    +0.019 C 
ATOM      8  C   UNL     1      35.935 -22.613 -16.690  0.00  0.00    +0.015 C 
ATOM      9  C   UNL     1      29.940 -23.383 -15.640  0.00  0.00    +0.073 C 
ATOM     10  C   UNL     1      31.205 -24.006 -13.699  0.00  0.00    +0.008 C 
ATOM     11  C   UNL     1      36.409 -23.297 -14.047  0.00  0.00    +0.008 C 
ATOM     12  C   UNL     1      29.978 -23.755 -14.306  0.00  0.00    +0.004 C 
ATOM     13  C   UNL     1      37.196 -22.395 -16.127  0.00  0.00    +0.001 C 
ATOM     14  C   UNL     1      37.433 -22.740 -14.805  0.00  0.00    +0.001 C 
ENDROOT
BRANCH   9  18
ATOM     15  F   UNL     1      27.612 -22.879 -15.418  0.00  0.00    -0.166 F 
ATOM     16  F   UNL     1      28.654 -21.994 -17.102  0.00  0.00    -0.166 F 
ATOM     17  F   UNL     1      28.212 -24.123 -17.097  0.00  0.00    -0.166 F 
ATOM     18  C   UNL     1      28.632 -23.098 -16.300  0.00  0.00    +0.419 C 
ENDBRANCH   9  18
BRANCH   2  19
ATOM     19  C   UNL     1      33.499 -23.417 -17.986  0.00  0.00    +0.093 C 
BRANCH  19  20
ATOM     20  C   UNL     1      33.458 -21.994 -18.542  0.00  0.00    -0.001 C 
BRANCH  20  21
ATOM     21  C   UNL     1      34.315 -21.771 -19.792  0.00  0.00    -0.076 C 
BRANCH  21  22
ATOM     22  N   UNL     1      34.510 -20.351 -20.074  0.00  0.00    +0.384 N 
ATOM     23  N   UNL     1      34.893 -18.107 -21.857  0.00  0.00    +0.383 N 
ATOM     24  C   UNL     1      33.405 -19.822 -20.882  0.00  0.00    -0.101 C 
ATOM     25  C   UNL     1      35.793 -20.126 -20.752  0.00  0.00    -0.101 C 
ATOM     26  C   UNL     1      33.609 -18.333 -21.180  0.00  0.00    -0.101 C 
ATOM     27  C   UNL     1      35.999 -18.636 -21.050  0.00  0.00    -0.101 C 
ATOM     28  C   UNL     1      35.088 -16.686 -22.138  0.00  0.00    -0.101 C 
ATOM     29  H   UNL     1      34.525 -19.852 -19.185  0.00  0.00    -0.080 HD
ATOM     30  H   UNL     1      34.878 -18.604 -22.747  0.00  0.00    -0.080 HD
ENDBRANCH  21  22
ENDBRANCH  20  21
ENDBRANCH  19  20
ENDBRANCH   2  19
TORSDOF 5
ENDMDL
MODEL 2
REMARK VINA RESULT:     -10.3      7.992     11.617
REMARK  Name = 5566
REMARK  5 active torsions:
REMARK  status: ('A' for Active; 'I' for Inactive)
REMARK    1  A    between atoms: N_2  and  C_19
REMARK    2  A    between atoms: C_9  and  C_18
REMARK    3  A    between atoms: C_19  and  C_20
REMARK    4  A    between atoms: C_20  and  C_21
REMARK    5  A    between atoms: C_21  and  N_22
REMARK                            x       y       z     vdW  Elec       q    Type
REMARK                         _______ _______ _______ _____ _____    ______ ____
ROOT
ATOM      1  S   UNL     1      33.227 -16.050 -26.138  0.00  0.00    -0.084 S 
ATOM      2  N   UNL     1      34.115 -14.632 -23.518  0.00  0.00    -0.286 N 
ATOM      3  C   UNL     1      34.416 -16.015 -23.601  0.00  0.00    +0.058 C 
ATOM      4  C   UNL     1      33.877 -13.782 -24.628  0.00  0.00    +0.058 C 
ATOM      5  C   UNL     1      34.085 -16.763 -24.748  0.00  0.00    +0.043 C 
ATOM      6  C   UNL     1      33.492 -14.308 -25.877  0.00  0.00    +0.043 C 
ATOM      7  C   UNL     1      35.088 -16.697 -22.564  0.00  0.00    +0.019 C 
ATOM      8  C   UNL     1      34.046 -12.382 -24.547  0.00  0.00    +0.015 C 
ATOM      9  C   UNL     1      35.396 -18.058 -22.650  0.00  0.00    +0.073 C 
ATOM     10  C   UNL     1      34.392 -18.132 -24.828  0.00  0.00    +0.008 C 
ATOM     11  C   UNL     1      33.263 -13.461 -26.976  0.00  0.00    +0.008 C 
ATOM     12  C   UNL     1      35.045 -18.777 -23.782  0.00  0.00    +0.004 C 
ATOM     13  C   UNL     1      33.822 -11.545 -25.643  0.00  0.00    +0.001 C 
ATOM     14  C   UNL     1      33.427 -12.085 -26.858  0.00  0.00    +0.001 C 
ENDROOT
BRANCH   9  18
ATOM     15  F   UNL     1      35.725 -20.033 -21.340  0.00  0.00    -0.166 F 
ATOM     16  F   UNL     1      37.463 -18.782 -21.688  0.00  0.00    -0.166 F 
ATOM     17  F   UNL     1      35.903 -18.117 -20.327  0.00  0.00    -0.166 F 
ATOM     18  C   UNL     1      36.108 -18.735 -21.527  0.00  0.00    +0.419 C 
ENDBRANCH   9  18
BRANCH   2  19
ATOM     19  C   UNL     1      34.119 -14.018 -22.184  0.00  0.00    +0.093 C 
BRANCH  19  20
ATOM     20  C   UNL     1      32.747 -14.155 -21.523  0.00  0.00    -0.001 C 
BRANCH  20  21
ATOM     21  C   UNL     1      31.757 -13.040 -21.871  0.00  0.00    -0.076 C 
BRANCH  21  22
ATOM     22  N   UNL     1      32.201 -11.740 -21.372  0.00  0.00    +0.384 N 
ATOM     23  N   UNL     1      31.746  -9.012 -20.528  0.00  0.00    +0.383 N 
ATOM     24  C   UNL     1      31.576 -11.437 -20.079  0.00  0.00    -0.101 C 
ATOM     25  C   UNL     1      31.906 -10.680 -22.345  0.00  0.00    -0.101 C 
ATOM     26  C   UNL     1      32.040 -10.073 -19.555  0.00  0.00    -0.101 C 
ATOM     27  C   UNL     1      32.369  -9.316 -21.821  0.00  0.00    -0.101 C 
ATOM     28  C   UNL     1      32.191  -7.713 -20.029  0.00  0.00    -0.101 C 
ATOM     29  H   UNL     1      33.211 -11.782 -21.239  0.00  0.00    -0.080 HD
ATOM     30  H   UNL     1      30.736  -8.969 -20.660  0.00  0.00    -0.080 HD
ENDBRANCH  21  22
ENDBRANCH  20  21
ENDBRANCH  19  20
ENDBRANCH   2  19
TORSDOF 5
ENDMDL
MODEL 3
REMARK VINA RESULT:     -10.0      8.324     12.037
REMARK  Name = 5566
REMARK  5 active torsions:
REMARK  status: ('A' for Active; 'I' for Inactive)
REMARK    1  A    between atoms: N_2  and  C_19
REMARK    2  A    between atoms: C_9  and  C_18
REMARK    3  A    between atoms: C_19  and  C_20
REMARK    4  A    between atoms: C_20  and  C_21
REMARK    5  A    between atoms: C_21  and  N_22
REMARK                            x       y       z     vdW  Elec       q    Type
REMARK                         _______ _______ _______ _____ _____    ______ ____
ROOT
ATOM      1  S   UNL     1      33.767 -10.696 -24.770  0.00  0.00    -0.084 S 
ATOM      2  N   UNL     1      32.905 -13.130 -23.039  0.00  0.00    -0.286 N 
ATOM      3  C   UNL     1      32.641 -11.853 -22.480  0.00  0.00    +0.058 C 
ATOM      4  C   UNL     1      33.091 -13.392 -24.420  0.00  0.00    +0.058 C 
ATOM      5  C   UNL     1      32.965 -10.674 -23.179  0.00  0.00    +0.043 C 
ATOM      6  C   UNL     1      33.460 -12.365 -25.312  0.00  0.00    +0.043 C 
ATOM      7  C   UNL     1      32.015 -11.703 -21.224  0.00  0.00    +0.019 C 
ATOM      8  C   UNL     1      32.884 -14.675 -24.972  0.00  0.00    +0.015 C 
ATOM      9  C   UNL     1      31.745 -10.444 -20.678  0.00  0.00    +0.073 C 
ATOM     10  C   UNL     1      32.695  -9.411 -22.623  0.00  0.00    +0.008 C 
ATOM     11  C   UNL     1      33.636 -12.629 -26.681  0.00  0.00    +0.008 C 
ATOM     12  C   UNL     1      32.088  -9.297 -21.377  0.00  0.00    +0.004 C 
ATOM     13  C   UNL     1      33.057 -14.932 -26.335  0.00  0.00    +0.001 C 
ATOM     14  C   UNL     1      33.436 -13.908 -27.189  0.00  0.00    +0.001 C 
ENDROOT
BRANCH   9  18
ATOM     15  F   UNL     1      29.749 -10.639 -19.373  0.00  0.00    -0.166 F 
ATOM     16  F   UNL     1      31.616 -11.165 -18.401  0.00  0.00    -0.166 F 
ATOM     17  F   UNL     1      31.160  -9.080 -18.819  0.00  0.00    -0.166 F 
ATOM     18  C   UNL     1      31.081 -10.337 -19.346  0.00  0.00    +0.419 C 
ENDBRANCH   9  18
BRANCH   2  19
ATOM     19  C   UNL     1      32.917 -14.279 -22.125  0.00  0.00    +0.093 C 
BRANCH  19  20
ATOM     20  C   UNL     1      34.294 -14.441 -21.480  0.00  0.00    -0.001 C 
BRANCH  20  21
ATOM     21  C   UNL     1      34.597 -15.852 -20.969  0.00  0.00    -0.076 C 
BRANCH  21  22
ATOM     22  N   UNL     1      34.354 -16.867 -21.993  0.00  0.00    +0.384 N 
ATOM     23  N   UNL     1      35.183 -19.024 -23.732  0.00  0.00    +0.383 N 
ATOM     24  C   UNL     1      34.615 -18.212 -21.467  0.00  0.00    -0.101 C 
ATOM     25  C   UNL     1      35.176 -16.614 -23.183  0.00  0.00    -0.101 C 
ATOM     26  C   UNL     1      34.362 -19.276 -22.540  0.00  0.00    -0.101 C 
ATOM     27  C   UNL     1      34.924 -17.678 -24.257  0.00  0.00    -0.101 C 
ATOM     28  C   UNL     1      34.939 -20.037 -24.755  0.00  0.00    -0.101 C 
ATOM     29  H   UNL     1      33.372 -16.813 -22.264  0.00  0.00    -0.080 HD
ATOM     30  H   UNL     1      36.165 -19.079 -23.462  0.00  0.00    -0.080 HD
ENDBRANCH  21  22
ENDBRANCH  20  21
ENDBRANCH  19  20
ENDBRANCH   2  19
TORSDOF 5
ENDMDL
MODEL 4
REMARK VINA RESULT:      -9.5      3.519      7.097
REMARK  Name = 5566
REMARK  5 active torsions:
REMARK  status: ('A' for Active; 'I' for Inactive)
REMARK    1  A    between atoms: N_2  and  C_19
REMARK    2  A    between atoms: C_9  and  C_18
REMARK    3  A    between atoms: C_19  and  C_20
REMARK    4  A    between atoms: C_20  and  C_21
REMARK    5  A    between atoms: C_21  and  N_22
REMARK                            x       y       z     vdW  Elec       q    Type
REMARK                         _______ _______ _______ _____ _____    ______ ____
ROOT
ATOM      1  S   UNL     1      36.859 -21.325 -18.983  0.00  0.00    -0.084 S 
ATOM      2  N   UNL     1      34.163 -22.524 -18.003  0.00  0.00    -0.286 N 
ATOM      3  C   UNL     1      35.239 -22.595 -17.082  0.00  0.00    +0.058 C 
ATOM      4  C   UNL     1      34.074 -21.608 -19.082  0.00  0.00    +0.058 C 
ATOM      5  C   UNL     1      36.504 -22.066 -17.401  0.00  0.00    +0.043 C 
ATOM      6  C   UNL     1      35.224 -20.980 -19.600  0.00  0.00    +0.043 C 
ATOM      7  C   UNL     1      35.087 -23.163 -15.799  0.00  0.00    +0.019 C 
ATOM      8  C   UNL     1      32.835 -21.256 -19.663  0.00  0.00    +0.015 C 
ATOM      9  C   UNL     1      36.144 -23.222 -14.885  0.00  0.00    +0.073 C 
ATOM     10  C   UNL     1      37.566 -22.133 -16.481  0.00  0.00    +0.008 C 
ATOM     11  C   UNL     1      35.129 -20.068 -20.666  0.00  0.00    +0.008 C 
ATOM     12  C   UNL     1      37.386 -22.710 -15.228  0.00  0.00    +0.004 C 
ATOM     13  C   UNL     1      32.746 -20.345 -20.719  0.00  0.00    +0.001 C 
ATOM     14  C   UNL     1      33.894 -19.753 -21.223  0.00  0.00    +0.001 C 
ENDROOT
BRANCH   9  18
ATOM     15  F   UNL     1      34.628 -23.832 -13.138  0.00  0.00    -0.166 F 
ATOM     16  F   UNL     1      36.330 -25.137 -13.464  0.00  0.00    -0.166 F 
ATOM     17  F   UNL     1      36.620 -23.183 -12.556  0.00  0.00    -0.166 F 
ATOM     18  C   UNL     1      35.934 -23.833 -13.540  0.00  0.00    +0.419 C 
ENDBRANCH   9  18
BRANCH   2  19
ATOM     19  C   UNL     1      33.023 -23.422 -17.782  0.00  0.00    +0.093 C 
BRANCH  19  20
ATOM     20  C   UNL     1      32.202 -22.963 -16.576  0.00  0.00    -0.001 C 
BRANCH  20  21
ATOM     21  C   UNL     1      31.449 -24.084 -15.853  0.00  0.00    -0.076 C 
BRANCH  21  22
ATOM     22  N   UNL     1      30.030 -23.771 -15.691  0.00  0.00    +0.384 N 
ATOM     23  N   UNL     1      27.653 -22.223 -16.250  0.00  0.00    +0.383 N 
ATOM     24  C   UNL     1      29.317 -23.903 -16.967  0.00  0.00    -0.101 C 
ATOM     25  C   UNL     1      29.854 -22.420 -15.144  0.00  0.00    -0.101 C 
ATOM     26  C   UNL     1      27.830 -23.574 -16.798  0.00  0.00    -0.101 C 
ATOM     27  C   UNL     1      28.367 -22.089 -14.974  0.00  0.00    -0.101 C 
ATOM     28  C   UNL     1      26.235 -21.911 -16.087  0.00  0.00    -0.101 C 
ATOM     29  H   UNL     1      29.634 -24.439 -15.030  0.00  0.00    -0.080 HD
ATOM     30  H   UNL     1      28.048 -21.554 -16.911  0.00  0.00    -0.080 HD
ENDBRANCH  21  22
ENDBRANCH  20  21
ENDBRANCH  19  20
ENDBRANCH   2  19
TORSDOF 5
ENDMDL
MODEL 5
REMARK VINA RESULT:      -9.4      4.516      6.159
REMARK  Name = 5566
REMARK  5 active torsions:
REMARK  status: ('A' for Active; 'I' for Inactive)
REMARK    1  A    between atoms: N_2  and  C_19
REMARK    2  A    between atoms: C_9  and  C_18
REMARK    3  A    between atoms: C_19  and  C_20
REMARK    4  A    between atoms: C_20  and  C_21
REMARK    5  A    between atoms: C_21  and  N_22
REMARK                            x       y       z     vdW  Elec       q    Type
REMARK                         _______ _______ _______ _____ _____    ______ ____
ROOT
ATOM      1  S   UNL     1      34.382 -24.332 -13.158  0.00  0.00    -0.084 S 
ATOM      2  N   UNL     1      35.916 -23.314 -15.664  0.00  0.00    -0.286 N 
ATOM      3  C   UNL     1      36.674 -24.090 -14.751  0.00  0.00    +0.058 C 
ATOM      4  C   UNL     1      34.502 -23.339 -15.775  0.00  0.00    +0.058 C 
ATOM      5  C   UNL     1      36.086 -24.627 -13.590  0.00  0.00    +0.043 C 
ATOM      6  C   UNL     1      33.697 -23.802 -14.715  0.00  0.00    +0.043 C 
ATOM      7  C   UNL     1      38.035 -24.390 -14.976  0.00  0.00    +0.019 C 
ATOM      8  C   UNL     1      33.839 -22.938 -16.956  0.00  0.00    +0.015 C 
ATOM      9  C   UNL     1      38.781 -25.164 -14.083  0.00  0.00    +0.073 C 
ATOM     10  C   UNL     1      36.841 -25.401 -12.692  0.00  0.00    +0.008 C 
ATOM     11  C   UNL     1      32.297 -23.830 -14.834  0.00  0.00    +0.008 C 
ATOM     12  C   UNL     1      38.184 -25.668 -12.938  0.00  0.00    +0.004 C 
ATOM     13  C   UNL     1      32.446 -22.973 -17.070  0.00  0.00    +0.001 C 
ATOM     14  C   UNL     1      31.675 -23.416 -16.006  0.00  0.00    +0.001 C 
ENDROOT
BRANCH   9  18
ATOM     15  F   UNL     1      40.720 -26.492 -13.633  0.00  0.00    -0.166 F 
ATOM     16  F   UNL     1      40.462 -25.784 -15.668  0.00  0.00    -0.166 F 
ATOM     17  F   UNL     1      41.030 -24.390 -14.098  0.00  0.00    -0.166 F 
ATOM     18  C   UNL     1      40.217 -25.454 -14.366  0.00  0.00    +0.419 C 
ENDBRANCH   9  18
BRANCH   2  19
ATOM     19  C   UNL     1      36.655 -22.473 -16.613  0.00  0.00    +0.093 C 
BRANCH  19  20
ATOM     20  C   UNL     1      35.770 -22.096 -17.802  0.00  0.00    -0.001 C 
BRANCH  20  21
ATOM     21  C   UNL     1      36.535 -21.637 -19.047  0.00  0.00    -0.076 C 
BRANCH  21  22
ATOM     22  N   UNL     1      35.950 -20.433 -19.634  0.00  0.00    +0.384 N 
ATOM     23  N   UNL     1      35.010 -18.849 -21.863  0.00  0.00    +0.383 N 
ATOM     24  C   UNL     1      34.685 -20.744 -20.309  0.00  0.00    -0.101 C 
ATOM     25  C   UNL     1      36.889 -19.802 -20.570  0.00  0.00    -0.101 C 
ATOM     26  C   UNL     1      34.072 -19.482 -20.926  0.00  0.00    -0.101 C 
ATOM     27  C   UNL     1      36.277 -18.540 -21.189  0.00  0.00    -0.101 C 
ATOM     28  C   UNL     1      34.426 -17.645 -22.448  0.00  0.00    -0.101 C 
ATOM     29  H   UNL     1      35.759 -19.775 -18.879  0.00  0.00    -0.080 HD
ATOM     30  H   UNL     1      35.201 -19.506 -22.619  0.00  0.00    -0.080 HD
ENDBRANCH  21  22
ENDBRANCH  20  21
ENDBRANCH  19  20
ENDBRANCH   2  19
TORSDOF 5
ENDMDL
MODEL 6
REMARK VINA RESULT:      -9.4      9.125     13.586
REMARK  Name = 5566
REMARK  5 active torsions:
REMARK  status: ('A' for Active; 'I' for Inactive)
REMARK    1  A    between atoms: N_2  and  C_19
REMARK    2  A    between atoms: C_9  and  C_18
REMARK    3  A    between atoms: C_19  and  C_20
REMARK    4  A    between atoms: C_20  and  C_21
REMARK    5  A    between atoms: C_21  and  N_22
REMARK                            x       y       z     vdW  Elec       q    Type
REMARK                         _______ _______ _______ _____ _____    ______ ____
ROOT
ATOM      1  S   UNL     1      35.212 -10.217 -25.438  0.00  0.00    -0.084 S 
ATOM      2  N   UNL     1      33.061 -11.598 -23.667  0.00  0.00    -0.286 N 
ATOM      3  C   UNL     1      33.349 -10.247 -23.346  0.00  0.00    +0.058 C 
ATOM      4  C   UNL     1      33.306 -12.205 -24.925  0.00  0.00    +0.058 C 
ATOM      5  C   UNL     1      34.288  -9.507 -24.090  0.00  0.00    +0.043 C 
ATOM      6  C   UNL     1      34.241 -11.659 -25.827  0.00  0.00    +0.043 C 
ATOM      7  C   UNL     1      32.688  -9.572 -22.296  0.00  0.00    +0.019 C 
ATOM      8  C   UNL     1      32.604 -13.356 -25.348  0.00  0.00    +0.015 C 
ATOM      9  C   UNL     1      32.962  -8.237 -21.986  0.00  0.00    +0.073 C 
ATOM     10  C   UNL     1      34.564  -8.166 -23.771  0.00  0.00    +0.008 C 
ATOM     11  C   UNL     1      34.474 -12.262 -27.076  0.00  0.00    +0.008 C 
ATOM     12  C   UNL     1      33.904  -7.534 -22.722  0.00  0.00    +0.004 C 
ATOM     13  C   UNL     1      32.837 -13.948 -26.592  0.00  0.00    +0.001 C 
ATOM     14  C   UNL     1      33.775 -13.402 -27.455  0.00  0.00    +0.001 C 
ENDROOT
BRANCH   9  18
ATOM     15  F   UNL     1      31.527  -8.431 -20.082  0.00  0.00    -0.166 F 
ATOM     16  F   UNL     1      33.060  -6.897 -20.007  0.00  0.00    -0.166 F 
ATOM     17  F   UNL     1      31.333  -6.643 -21.305  0.00  0.00    -0.166 F 
ATOM     18  C   UNL     1      32.237  -7.567 -20.867  0.00  0.00    +0.419 C 
ENDBRANCH   9  18
BRANCH   2  19
ATOM     19  C   UNL     1      32.397 -12.411 -22.641  0.00  0.00    +0.093 C 
BRANCH  19  20
ATOM     20  C   UNL     1      33.385 -13.384 -22.000  0.00  0.00    -0.001 C 
BRANCH  20  21
ATOM     21  C   UNL     1      32.741 -14.612 -21.350  0.00  0.00    -0.076 C 
BRANCH  21  22
ATOM     22  N   UNL     1      33.427 -15.849 -21.721  0.00  0.00    +0.384 N 
ATOM     23  N   UNL     1      35.760 -17.365 -22.507  0.00  0.00    +0.383 N 
ATOM     24  C   UNL     1      34.490 -16.165 -20.759  0.00  0.00    -0.101 C 
ATOM     25  C   UNL     1      33.977 -15.751 -23.079  0.00  0.00    -0.101 C 
ATOM     26  C   UNL     1      35.210 -17.460 -21.148  0.00  0.00    -0.101 C 
ATOM     27  C   UNL     1      34.698 -17.047 -23.469  0.00  0.00    -0.101 C 
ATOM     28  C   UNL     1      36.444 -18.601 -22.878  0.00  0.00    -0.101 C 
ATOM     29  H   UNL     1      32.743 -16.605 -21.705  0.00  0.00    -0.080 HD
ATOM     30  H   UNL     1      36.445 -16.609 -22.523  0.00  0.00    -0.080 HD
ENDBRANCH  21  22
ENDBRANCH  20  21
ENDBRANCH  19  20
ENDBRANCH   2  19
TORSDOF 5
ENDMDL
MODEL 7
REMARK VINA RESULT:      -9.1      3.615      5.293
REMARK  Name = 5566
REMARK  5 active torsions:
REMARK  status: ('A' for Active; 'I' for Inactive)
REMARK    1  A    between atoms: N_2  and  C_19
REMARK    2  A    between atoms: C_9  and  C_18
REMARK    3  A    between atoms: C_19  and  C_20
REMARK    4  A    between atoms: C_20  and  C_21
REMARK    5  A    between atoms: C_21  and  N_22
REMARK                            x       y       z     vdW  Elec       q    Type
REMARK                         _______ _______ _______ _____ _____    ______ ____
ROOT
ATOM      1  S   UNL     1      32.499 -22.959 -13.068  0.00  0.00    -0.084 S 
ATOM      2  N   UNL     1      33.334 -23.585 -15.996  0.00  0.00    -0.286 N 
ATOM      3  C   UNL     1      34.220 -24.050 -14.991  0.00  0.00    +0.058 C 
ATOM      4  C   UNL     1      31.962 -23.286 -15.798  0.00  0.00    +0.058 C 
ATOM      5  C   UNL     1      33.940 -23.847 -13.626  0.00  0.00    +0.043 C 
ATOM      6  C   UNL     1      31.457 -23.008 -14.512  0.00  0.00    +0.043 C 
ATOM      7  C   UNL     1      35.398 -24.762 -15.305  0.00  0.00    +0.019 C 
ATOM      8  C   UNL     1      31.035 -23.286 -16.864  0.00  0.00    +0.015 C 
ATOM      9  C   UNL     1      36.266 -25.230 -14.314  0.00  0.00    +0.073 C 
ATOM     10  C   UNL     1      34.818 -24.316 -12.634  0.00  0.00    +0.008 C 
ATOM     11  C   UNL     1      30.095 -22.718 -14.320  0.00  0.00    +0.008 C 
ATOM     12  C   UNL     1      35.978 -25.004 -12.977  0.00  0.00    +0.004 C 
ATOM     13  C   UNL     1      29.681 -23.002 -16.667  0.00  0.00    +0.001 C 
ATOM     14  C   UNL     1      29.212 -22.715 -15.394  0.00  0.00    +0.001 C 
ENDROOT
BRANCH   9  18
ATOM     15  F   UNL     1      38.474 -25.186 -15.234  0.00  0.00    -0.166 F 
ATOM     16  F   UNL     1      38.097 -26.617 -13.648  0.00  0.00    -0.166 F 
ATOM     17  F   UNL     1      37.259 -26.946 -15.627  0.00  0.00    -0.166 F 
ATOM     18  C   UNL     1      37.500 -25.978 -14.696  0.00  0.00    +0.419 C 
ENDBRANCH   9  18
BRANCH   2  19
ATOM     19  C   UNL     1      33.861 -23.471 -17.362  0.00  0.00    +0.093 C 
BRANCH  19  20
ATOM     20  C   UNL     1      34.725 -22.219 -17.505  0.00  0.00    -0.001 C 
BRANCH  20  21
ATOM     21  C   UNL     1      35.465 -22.102 -18.841  0.00  0.00    -0.076 C 
BRANCH  21  22
ATOM     22  N   UNL     1      35.252 -20.800 -19.470  0.00  0.00    +0.384 N 
ATOM     23  N   UNL     1      34.898 -19.074 -21.763  0.00  0.00    +0.383 N 
ATOM     24  C   UNL     1      33.994 -20.785 -20.226  0.00  0.00    -0.101 C 
ATOM     25  C   UNL     1      36.379 -20.455 -20.346  0.00  0.00    -0.101 C 
ATOM     26  C   UNL     1      33.771 -19.421 -20.888  0.00  0.00    -0.101 C 
ATOM     27  C   UNL     1      36.157 -19.091 -21.009  0.00  0.00    -0.101 C 
ATOM     28  C   UNL     1      34.685 -17.773 -22.392  0.00  0.00    -0.101 C 
ATOM     29  H   UNL     1      35.192 -20.099 -18.732  0.00  0.00    -0.080 HD
ATOM     30  H   UNL     1      34.957 -19.774 -22.503  0.00  0.00    -0.080 HD
ENDBRANCH  21  22
ENDBRANCH  20  21
ENDBRANCH  19  20
ENDBRANCH   2  19
TORSDOF 5
ENDMDL
MODEL 8
REMARK VINA RESULT:      -9.1      8.977     13.710
REMARK  Name = 5566
REMARK  5 active torsions:
REMARK  status: ('A' for Active; 'I' for Inactive)
REMARK    1  A    between atoms: N_2  and  C_19
REMARK    2  A    between atoms: C_9  and  C_18
REMARK    3  A    between atoms: C_19  and  C_20
REMARK    4  A    between atoms: C_20  and  C_21
REMARK    5  A    between atoms: C_21  and  N_22
REMARK                            x       y       z     vdW  Elec       q    Type
REMARK                         _______ _______ _______ _____ _____    ______ ____
ROOT
ATOM      1  S   UNL     1      32.450  -8.002 -21.769  0.00  0.00    -0.084 S 
ATOM      2  N   UNL     1      32.528 -11.002 -22.581  0.00  0.00    -0.286 N 
ATOM      3  C   UNL     1      33.329 -10.132 -23.364  0.00  0.00    +0.058 C 
ATOM      4  C   UNL     1      32.081 -10.733 -21.263  0.00  0.00    +0.058 C 
ATOM      5  C   UNL     1      33.395  -8.754 -23.080  0.00  0.00    +0.043 C 
ATOM      6  C   UNL     1      32.023  -9.414 -20.770  0.00  0.00    +0.043 C 
ATOM      7  C   UNL     1      34.119 -10.604 -24.434  0.00  0.00    +0.019 C 
ATOM      8  C   UNL     1      31.709 -11.766 -20.374  0.00  0.00    +0.015 C 
ATOM      9  C   UNL     1      34.918  -9.748 -25.198  0.00  0.00    +0.073 C 
ATOM     10  C   UNL     1      34.195  -7.897 -23.854  0.00  0.00    +0.008 C 
ATOM     11  C   UNL     1      31.586  -9.154 -19.459  0.00  0.00    +0.008 C 
ATOM     12  C   UNL     1      34.954  -8.392 -24.910  0.00  0.00    +0.004 C 
ATOM     13  C   UNL     1      31.279 -11.502 -19.071  0.00  0.00    +0.001 C 
ATOM     14  C   UNL     1      31.215 -10.194 -18.614  0.00  0.00    +0.001 C 
ENDROOT
BRANCH   9  18
ATOM     15  F   UNL     1      35.200 -11.414 -26.892  0.00  0.00    -0.166 F 
ATOM     16  F   UNL     1      35.909  -9.415 -27.349  0.00  0.00    -0.166 F 
ATOM     17  F   UNL     1      36.994 -10.652 -25.927  0.00  0.00    -0.166 F 
ATOM     18  C   UNL     1      35.736 -10.295 -26.320  0.00  0.00    +0.419 C 
ENDBRANCH   9  18
BRANCH   2  19
ATOM     19  C   UNL     1      32.193 -12.312 -23.155  0.00  0.00    +0.093 C 
BRANCH  19  20
ATOM     20  C   UNL     1      33.105 -13.399 -22.587  0.00  0.00    -0.001 C 
BRANCH  20  21
ATOM     21  C   UNL     1      33.897 -14.182 -23.638  0.00  0.00    -0.076 C 
BRANCH  21  22
ATOM     22  N   UNL     1      34.634 -15.297 -23.047  0.00  0.00    +0.384 N 
ATOM     23  N   UNL     1      34.820 -17.951 -21.913  0.00  0.00    +0.383 N 
ATOM     24  C   UNL     1      34.534 -16.494 -23.889  0.00  0.00    -0.101 C 
ATOM     25  C   UNL     1      34.147 -15.583 -21.691  0.00  0.00    -0.101 C 
ATOM     26  C   UNL     1      35.306 -17.664 -23.269  0.00  0.00    -0.101 C 
ATOM     27  C   UNL     1      34.918 -16.753 -21.070  0.00  0.00    -0.101 C 
ATOM     28  C   UNL     1      35.557 -19.064 -21.322  0.00  0.00    -0.101 C 
ATOM     29  H   UNL     1      35.616 -15.028 -22.985  0.00  0.00    -0.080 HD
ATOM     30  H   UNL     1      33.838 -18.221 -21.974  0.00  0.00    -0.080 HD
ENDBRANCH  21  22
ENDBRANCH  20  21
ENDBRANCH  19  20
ENDBRANCH   2  19
TORSDOF 5
ENDMDL
MODEL 9
REMARK VINA RESULT:      -9.0      3.370      6.405
REMARK  Name = 5566
REMARK  5 active torsions:
REMARK  status: ('A' for Active; 'I' for Inactive)
REMARK    1  A    between atoms: N_2  and  C_19
REMARK    2  A    between atoms: C_9  and  C_18
REMARK    3  A    between atoms: C_19  and  C_20
REMARK    4  A    between atoms: C_20  and  C_21
REMARK    5  A    between atoms: C_21  and  N_22
REMARK                            x       y       z     vdW  Elec       q    Type
REMARK                         _______ _______ _______ _____ _____    ______ ____
ROOT
ATOM      1  S   UNL     1      38.173 -22.658 -15.766  0.00  0.00    -0.084 S 
ATOM      2  N   UNL     1      35.376 -24.006 -15.603  0.00  0.00    -0.286 N 
ATOM      3  C   UNL     1      35.547 -23.068 -16.653  0.00  0.00    +0.058 C 
ATOM      4  C   UNL     1      36.428 -24.689 -14.942  0.00  0.00    +0.058 C 
ATOM      5  C   UNL     1      36.777 -22.409 -16.845  0.00  0.00    +0.043 C 
ATOM      6  C   UNL     1      37.746 -24.190 -14.964  0.00  0.00    +0.043 C 
ATOM      7  C   UNL     1      34.515 -22.778 -17.571  0.00  0.00    +0.019 C 
ATOM      8  C   UNL     1      36.217 -25.911 -14.265  0.00  0.00    +0.015 C 
ATOM      9  C   UNL     1      34.686 -21.863 -18.613  0.00  0.00    +0.073 C 
ATOM     10  C   UNL     1      36.942 -21.485 -17.891  0.00  0.00    +0.008 C 
ATOM     11  C   UNL     1      38.787 -24.876 -14.312  0.00  0.00    +0.008 C 
ATOM     12  C   UNL     1      35.900 -21.213 -18.772  0.00  0.00    +0.004 C 
ATOM     13  C   UNL     1      37.256 -26.590 -13.623  0.00  0.00    +0.001 C 
ATOM     14  C   UNL     1      38.541 -26.070 -13.645  0.00  0.00    +0.001 C 
ENDROOT
BRANCH   9  18
ATOM     15  F   UNL     1      33.105 -22.706 -20.198  0.00  0.00    -0.166 F 
ATOM     16  F   UNL     1      32.465 -21.045 -18.958  0.00  0.00    -0.166 F 
ATOM     17  F   UNL     1      33.911 -20.717 -20.549  0.00  0.00    -0.166 F 
ATOM     18  C   UNL     1      33.564 -21.590 -19.558  0.00  0.00    +0.419 C 
ENDBRANCH   9  18
BRANCH   2  19
ATOM     19  C   UNL     1      34.001 -24.347 -15.218  0.00  0.00    +0.093 C 
BRANCH  19  20
ATOM     20  C   UNL     1      33.603 -23.617 -13.935  0.00  0.00    -0.001 C 
BRANCH  20  21
ATOM     21  C   UNL     1      32.154 -23.843 -13.495  0.00  0.00    -0.076 C 
BRANCH  21  22
ATOM     22  N   UNL     1      31.249 -23.960 -14.636  0.00  0.00    +0.384 N 
ATOM     23  N   UNL     1      28.756 -23.451 -16.010  0.00  0.00    +0.383 N 
ATOM     24  C   UNL     1      30.944 -22.638 -15.197  0.00  0.00    -0.101 C 
ATOM     25  C   UNL     1      30.011 -24.650 -14.251  0.00  0.00    -0.101 C 
ATOM     26  C   UNL     1      29.993 -22.759 -16.393  0.00  0.00    -0.101 C 
ATOM     27  C   UNL     1      29.060 -24.772 -15.446  0.00  0.00    -0.101 C 
ATOM     28  C   UNL     1      27.851 -23.568 -17.151  0.00  0.00    -0.101 C 
ATOM     29  H   UNL     1      31.716 -24.514 -15.354  0.00  0.00    -0.080 HD
ATOM     30  H   UNL     1      28.287 -22.897 -15.293  0.00  0.00    -0.080 HD
ENDBRANCH  21  22
ENDBRANCH  20  21
ENDBRANCH  19  20
ENDBRANCH   2  19
TORSDOF 5
ENDMDL
