MODEL 1
REMARK VINA RESULT:      -9.0      0.000      0.000
REMARK  Name = 9994066
REMARK  3 active torsions:
REMARK  status: ('A' for Active; 'I' for Inactive)
REMARK    1  A    between atoms: C_1  and  S_7
REMARK    2  A    between atoms: C_2  and  N_13
REMARK    3  A    between atoms: S_7  and  N_10
REMARK                            x       y       z     vdW  Elec       q    Type
REMARK                         _______ _______ _______ _____ _____    ______ ____
ROOT
ATOM      1  C   UNL     1      33.973 -21.488 -19.486  0.00  0.00    +0.122 C 
ATOM      2  C   UNL     1      34.261 -19.467 -21.387  0.00  0.00    +0.050 C 
ATOM      3  C   UNL     1      35.246 -21.099 -19.902  0.00  0.00    +0.021 C 
ATOM      4  C   UNL     1      32.843 -20.868 -20.019  0.00  0.00    +0.021 C 
ATOM      5  C   UNL     1      35.390 -20.088 -20.853  0.00  0.00    +0.016 C 
ATOM      6  C   UNL     1      32.988 -19.857 -20.970  0.00  0.00    +0.016 C 
ENDROOT
BRANCH   2   7
ATOM      7  N   UNL     1      34.406 -18.445 -22.348  0.00  0.00    -0.287 N 
ATOM      8  H   UNL     1      34.591 -18.780 -23.255  0.00  0.00    +0.155 HD
ATOM      9 CL   UNL     1      32.529 -14.386 -20.152  0.00  0.00    -0.050 Cl
ATOM     10  N   UNL     1      33.546 -16.459 -21.341  0.00  0.00    -0.376 NA
ATOM     11  N   UNL     1      35.087 -14.947 -23.131  0.00  0.00    -0.256 NA
ATOM     12  C   UNL     1      34.338 -17.042 -22.265  0.00  0.00    +0.203 C 
ATOM     13  C   UNL     1      35.095 -16.295 -23.145  0.00  0.00    +0.141 C 
ATOM     14  C   UNL     1      33.537 -15.111 -21.327  0.00  0.00    +0.192 C 
ATOM     15  C   UNL     1      34.294 -14.369 -22.206  0.00  0.00    +0.196 C 
ENDBRANCH   2   7
BRANCH   1  16
ATOM     16  S   UNL     1      33.793 -22.754 -18.296  0.00  0.00    +0.057 S 
ATOM     17  O   UNL     1      34.977 -22.761 -17.449  0.00  0.00    -0.153 OA
ATOM     18  O   UNL     1      32.473 -22.637 -17.692  0.00  0.00    -0.153 OA
BRANCH  16  19
ATOM     19  N   UNL     1      33.819 -24.142 -19.292  0.00  0.00    -0.203 NA
ATOM     20  H   UNL     1      34.662 -24.684 -19.099  0.00  0.00    +0.144 HD
ATOM     21  H   UNL     1      33.815 -23.858 -20.271  0.00  0.00    +0.144 HD
ENDBRANCH  16  19
ENDBRANCH   1  16
TORSDOF 3
ENDMDL
MODEL 2
REMARK VINA RESULT:      -8.9      4.534      7.420
REMARK  Name = 9994066
REMARK  3 active torsions:
REMARK  status: ('A' for Active; 'I' for Inactive)
REMARK    1  A    between atoms: C_1  and  S_7
REMARK    2  A    between atoms: C_2  and  N_13
REMARK    3  A    between atoms: S_7  and  N_10
REMARK                            x       y       z     vdW  Elec       q    Type
REMARK                         _______ _______ _______ _____ _____    ______ ____
ROOT
ATOM      1  C   UNL     1      34.972 -19.523 -21.075  0.00  0.00    +0.122 C 
ATOM      2  C   UNL     1      33.632 -21.398 -19.503  0.00  0.00    +0.050 C 
ATOM      3  C   UNL     1      35.693 -20.493 -20.381  0.00  0.00    +0.021 C 
ATOM      4  C   UNL     1      33.580 -19.488 -20.984  0.00  0.00    +0.021 C 
ATOM      5  C   UNL     1      35.024 -21.431 -19.595  0.00  0.00    +0.016 C 
ATOM      6  C   UNL     1      32.911 -20.426 -20.197  0.00  0.00    +0.016 C 
ENDROOT
BRANCH   2   7
ATOM      7  N   UNL     1      32.955 -22.345 -18.708  0.00  0.00    -0.287 N 
ATOM      8  H   UNL     1      32.124 -22.681 -19.115  0.00  0.00    +0.155 HD
ATOM      9 CL   UNL     1      36.322 -23.772 -15.323  0.00  0.00    -0.050 Cl
ATOM     10  N   UNL     1      34.514 -23.050 -17.043  0.00  0.00    -0.376 NA
ATOM     11  N   UNL     1      32.358 -23.840 -15.433  0.00  0.00    -0.256 NA
ATOM     12  C   UNL     1      33.234 -22.906 -17.447  0.00  0.00    +0.203 C 
ATOM     13  C   UNL     1      32.176 -23.296 -16.652  0.00  0.00    +0.141 C 
ATOM     14  C   UNL     1      34.696 -23.594 -15.823  0.00  0.00    +0.192 C 
ATOM     15  C   UNL     1      33.638 -23.983 -15.033  0.00  0.00    +0.196 C 
ENDBRANCH   2   7
BRANCH   1  16
ATOM     16  S   UNL     1      35.810 -18.348 -22.059  0.00  0.00    +0.057 S 
ATOM     17  O   UNL     1      35.283 -17.027 -21.747  0.00  0.00    -0.153 OA
ATOM     18  O   UNL     1      37.241 -18.598 -21.960  0.00  0.00    -0.153 OA
BRANCH  16  19
ATOM     19  N   UNL     1      35.282 -18.797 -23.621  0.00  0.00    -0.203 NA
ATOM     20  H   UNL     1      35.911 -18.399 -24.320  0.00  0.00    +0.144 HD
ATOM     21  H   UNL     1      34.337 -18.445 -23.775  0.00  0.00    +0.144 HD
ENDBRANCH  16  19
ENDBRANCH   1  16
TORSDOF 3
ENDMDL
MODEL 3
REMARK VINA RESULT:      -8.6      8.252      9.470
REMARK  Name = 9994066
REMARK  3 active torsions:
REMARK  status: ('A' for Active; 'I' for Inactive)
REMARK    1  A    between atoms: C_1  and  S_7
REMARK    2  A    between atoms: C_2  and  N_13
REMARK    3  A    between atoms: S_7  and  N_10
REMARK                            x       y       z     vdW  Elec       q    Type
REMARK                         _______ _______ _______ _____ _____    ______ ____
ROOT
ATOM      1  C   UNL     1      29.517 -23.536 -15.582  0.00  0.00    +0.122 C 
ATOM      2  C   UNL     1      31.836 -24.334 -14.254  0.00  0.00    +0.050 C 
ATOM      3  C   UNL     1      30.630 -22.697 -15.558  0.00  0.00    +0.021 C 
ATOM      4  C   UNL     1      29.561 -24.774 -14.942  0.00  0.00    +0.021 C 
ATOM      5  C   UNL     1      31.790 -23.096 -14.893  0.00  0.00    +0.016 C 
ATOM      6  C   UNL     1      30.721 -25.173 -14.278  0.00  0.00    +0.016 C 
ENDROOT
BRANCH   2   7
ATOM      7  N   UNL     1      33.008 -24.738 -13.581  0.00  0.00    -0.287 N 
ATOM      8  H   UNL     1      32.871 -25.498 -12.970  0.00  0.00    +0.155 HD
ATOM      9 CL   UNL     1      36.712 -22.582 -16.122  0.00  0.00    -0.050 Cl
ATOM     10  N   UNL     1      34.825 -23.711 -14.740  0.00  0.00    -0.376 NA
ATOM     11  N   UNL     1      36.383 -23.973 -12.423  0.00  0.00    -0.256 NA
ATOM     12  C   UNL     1      34.335 -24.269 -13.613  0.00  0.00    +0.203 C 
ATOM     13  C   UNL     1      35.104 -24.396 -12.475  0.00  0.00    +0.141 C 
ATOM     14  C   UNL     1      36.103 -23.287 -14.688  0.00  0.00    +0.192 C 
ATOM     15  C   UNL     1      36.869 -23.415 -13.551  0.00  0.00    +0.196 C 
ENDBRANCH   2   7
BRANCH   1  16
ATOM     16  S   UNL     1      28.065 -23.036 -16.413  0.00  0.00    +0.057 S 
ATOM     17  O   UNL     1      26.982 -22.961 -15.442  0.00  0.00    -0.153 OA
ATOM     18  O   UNL     1      28.378 -21.877 -17.237  0.00  0.00    -0.153 OA
BRANCH  16  19
ATOM     19  N   UNL     1      27.796 -24.378 -17.435  0.00  0.00    -0.203 NA
ATOM     20  H   UNL     1      28.368 -25.164 -17.123  0.00  0.00    +0.144 HD
ATOM     21  H   UNL     1      28.050 -24.133 -18.392  0.00  0.00    +0.144 HD
ENDBRANCH  16  19
ENDBRANCH   1  16
TORSDOF 3
ENDMDL
MODEL 4
REMARK VINA RESULT:      -8.5      8.237      9.858
REMARK  Name = 9994066
REMARK  3 active torsions:
REMARK  status: ('A' for Active; 'I' for Inactive)
REMARK    1  A    between atoms: C_1  and  S_7
REMARK    2  A    between atoms: C_2  and  N_13
REMARK    3  A    between atoms: S_7  and  N_10
REMARK                            x       y       z     vdW  Elec       q    Type
REMARK                         _______ _______ _______ _____ _____    ______ ____
ROOT
ATOM      1  C   UNL     1      38.626 -25.284 -14.104  0.00  0.00    +0.122 C 
ATOM      2  C   UNL     1      35.923 -24.845 -13.574  0.00  0.00    +0.050 C 
ATOM      3  C   UNL     1      37.655 -25.797 -14.963  0.00  0.00    +0.021 C 
ATOM      4  C   UNL     1      38.247 -24.550 -12.980  0.00  0.00    +0.021 C 
ATOM      5  C   UNL     1      36.304 -25.578 -14.698  0.00  0.00    +0.016 C 
ATOM      6  C   UNL     1      36.896 -24.332 -12.715  0.00  0.00    +0.016 C 
ENDROOT
BRANCH   2   7
ATOM      7  N   UNL     1      34.556 -24.624 -13.305  0.00  0.00    -0.287 N 
ATOM      8  H   UNL     1      34.334 -24.647 -12.346  0.00  0.00    +0.155 HD
ATOM      9 CL   UNL     1      32.743 -22.718 -17.537  0.00  0.00    -0.050 Cl
ATOM     10  N   UNL     1      33.622 -23.732 -15.313  0.00  0.00    -0.376 NA
ATOM     11  N   UNL     1      31.095 -24.601 -14.460  0.00  0.00    -0.256 NA
ATOM     12  C   UNL     1      33.449 -24.374 -14.138  0.00  0.00    +0.203 C 
ATOM     13  C   UNL     1      32.205 -24.800 -13.721  0.00  0.00    +0.141 C 
ATOM     14  C   UNL     1      32.512 -23.533 -16.051  0.00  0.00    +0.192 C 
ATOM     15  C   UNL     1      31.271 -23.959 -15.632  0.00  0.00    +0.196 C 
ENDBRANCH   2   7
BRANCH   1  16
ATOM     16  S   UNL     1      40.319 -25.559 -14.436  0.00  0.00    +0.057 S 
ATOM     17  O   UNL     1      41.048 -24.329 -14.157  0.00  0.00    -0.153 OA
ATOM     18  O   UNL     1      40.722 -26.800 -13.790  0.00  0.00    -0.153 OA
BRANCH  16  19
ATOM     19  N   UNL     1      40.283 -25.807 -16.126  0.00  0.00    -0.203 NA
ATOM     20  H   UNL     1      40.296 -26.808 -16.324  0.00  0.00    +0.144 HD
ATOM     21  H   UNL     1      41.098 -25.366 -16.552  0.00  0.00    +0.144 HD
ENDBRANCH  16  19
ENDBRANCH   1  16
TORSDOF 3
ENDMDL
MODEL 5
REMARK VINA RESULT:      -8.5      2.416      3.146
REMARK  Name = 9994066
REMARK  3 active torsions:
REMARK  status: ('A' for Active; 'I' for Inactive)
REMARK    1  A    between atoms: C_1  and  S_7
REMARK    2  A    between atoms: C_2  and  N_13
REMARK    3  A    between atoms: S_7  and  N_10
REMARK                            x       y       z     vdW  Elec       q    Type
REMARK                         _______ _______ _______ _____ _____    ______ ____
ROOT
ATOM      1  C   UNL     1      35.797 -22.345 -17.318  0.00  0.00    +0.122 C 
ATOM      2  C   UNL     1      35.104 -21.271 -19.797  0.00  0.00    +0.050 C 
ATOM      3  C   UNL     1      36.730 -21.605 -18.042  0.00  0.00    +0.021 C 
ATOM      4  C   UNL     1      34.516 -22.549 -17.832  0.00  0.00    +0.021 C 
ATOM      5  C   UNL     1      36.385 -21.068 -19.282  0.00  0.00    +0.016 C 
ATOM      6  C   UNL     1      34.170 -22.012 -19.072  0.00  0.00    +0.016 C 
ENDROOT
BRANCH   2   7
ATOM      7  N   UNL     1      34.754 -20.728 -21.051  0.00  0.00    -0.287 N 
ATOM      8  H   UNL     1      34.368 -21.386 -21.672  0.00  0.00    +0.155 HD
ATOM      9 CL   UNL     1      34.748 -15.799 -20.321  0.00  0.00    -0.050 Cl
ATOM     10  N   UNL     1      34.761 -18.357 -20.772  0.00  0.00    -0.376 NA
ATOM     11  N   UNL     1      35.124 -18.085 -23.540  0.00  0.00    -0.256 NA
ATOM     12  C   UNL     1      34.847 -19.429 -21.587  0.00  0.00    +0.203 C 
ATOM     13  C   UNL     1      35.025 -19.292 -22.948  0.00  0.00    +0.141 C 
ATOM     14  C   UNL     1      34.859 -17.150 -21.364  0.00  0.00    +0.192 C 
ATOM     15  C   UNL     1      35.037 -17.016 -22.723  0.00  0.00    +0.196 C 
ENDBRANCH   2   7
BRANCH   1  16
ATOM     16  S   UNL     1      36.230 -23.019 -15.766  0.00  0.00    +0.057 S 
ATOM     17  O   UNL     1      36.175 -24.471 -15.863  0.00  0.00    -0.153 OA
ATOM     18  O   UNL     1      37.450 -22.371 -15.304  0.00  0.00    -0.153 OA
BRANCH  16  19
ATOM     19  N   UNL     1      34.926 -22.481 -14.802  0.00  0.00    -0.203 NA
ATOM     20  H   UNL     1      34.287 -23.258 -14.629  0.00  0.00    +0.144 HD
ATOM     21  H   UNL     1      34.429 -21.735 -15.288  0.00  0.00    +0.144 HD
ENDBRANCH  16  19
ENDBRANCH   1  16
TORSDOF 3
ENDMDL
MODEL 6
REMARK VINA RESULT:      -8.3      3.830      5.352
REMARK  Name = 9994066
REMARK  3 active torsions:
REMARK  status: ('A' for Active; 'I' for Inactive)
REMARK    1  A    between atoms: C_1  and  S_7
REMARK    2  A    between atoms: C_2  and  N_13
REMARK    3  A    between atoms: S_7  and  N_10
REMARK                            x       y       z     vdW  Elec       q    Type
REMARK                         _______ _______ _______ _____ _____    ______ ____
ROOT
ATOM      1  C   UNL     1      34.703 -17.058 -22.327  0.00  0.00    +0.122 C 
ATOM      2  C   UNL     1      34.240 -14.533 -23.418  0.00  0.00    +0.050 C 
ATOM      3  C   UNL     1      34.625 -15.942 -21.494  0.00  0.00    +0.021 C 
ATOM      4  C   UNL     1      34.549 -16.913 -23.706  0.00  0.00    +0.021 C 
ATOM      5  C   UNL     1      34.394 -14.679 -22.040  0.00  0.00    +0.016 C 
ATOM      6  C   UNL     1      34.318 -15.650 -24.251  0.00  0.00    +0.016 C 
ENDROOT
BRANCH   2   7
ATOM      7  N   UNL     1      34.006 -13.256 -23.971  0.00  0.00    -0.287 N 
ATOM      8  H   UNL     1      34.373 -13.145 -24.878  0.00  0.00    +0.155 HD
ATOM      9 CL   UNL     1      30.462 -11.274 -21.083  0.00  0.00    -0.050 Cl
ATOM     10  N   UNL     1      32.329 -12.241 -22.608  0.00  0.00    -0.376 NA
ATOM     11  N   UNL     1      33.208  -9.728 -23.490  0.00  0.00    -0.256 NA
ATOM     12  C   UNL     1      33.351 -12.110 -23.480  0.00  0.00    +0.203 C 
ATOM     13  C   UNL     1      33.781 -10.873 -23.912  0.00  0.00    +0.141 C 
ATOM     14  C   UNL     1      31.756 -11.096 -22.187  0.00  0.00    +0.192 C 
ATOM     15  C   UNL     1      32.187  -9.862 -22.620  0.00  0.00    +0.196 C 
ENDBRANCH   2   7
BRANCH   1  16
ATOM     16  S   UNL     1      34.993 -18.639 -21.644  0.00  0.00    +0.057 S 
ATOM     17  O   UNL     1      35.147 -19.590 -22.736  0.00  0.00    -0.153 OA
ATOM     18  O   UNL     1      36.034 -18.523 -20.634  0.00  0.00    -0.153 OA
BRANCH  16  19
ATOM     19  N   UNL     1      33.502 -18.934 -20.863  0.00  0.00    -0.203 NA
ATOM     20  H   UNL     1      33.069 -18.045 -20.608  0.00  0.00    +0.144 HD
ATOM     21  H   UNL     1      33.663 -19.487 -20.020  0.00  0.00    +0.144 HD
ENDBRANCH  16  19
ENDBRANCH   1  16
TORSDOF 3
ENDMDL
MODEL 7
REMARK VINA RESULT:      -8.2      2.370      2.675
REMARK  Name = 9994066
REMARK  3 active torsions:
REMARK  status: ('A' for Active; 'I' for Inactive)
REMARK    1  A    between atoms: C_1  and  S_7
REMARK    2  A    between atoms: C_2  and  N_13
REMARK    3  A    between atoms: S_7  and  N_10
REMARK                            x       y       z     vdW  Elec       q    Type
REMARK                         _______ _______ _______ _____ _____    ______ ____
ROOT
ATOM      1  C   UNL     1      34.401 -21.840 -19.193  0.00  0.00    +0.122 C 
ATOM      2  C   UNL     1      35.329 -19.686 -20.703  0.00  0.00    +0.050 C 
ATOM      3  C   UNL     1      35.771 -21.621 -19.325  0.00  0.00    +0.021 C 
ATOM      4  C   UNL     1      33.493 -20.982 -19.815  0.00  0.00    +0.021 C 
ATOM      5  C   UNL     1      36.236 -20.545 -20.081  0.00  0.00    +0.016 C 
ATOM      6  C   UNL     1      33.958 -19.906 -20.570  0.00  0.00    +0.016 C 
ENDROOT
BRANCH   2   7
ATOM      7  N   UNL     1      35.798 -18.598 -21.468  0.00  0.00    -0.287 N 
ATOM      8  H   UNL     1      36.622 -18.192 -21.113  0.00  0.00    +0.155 HD
ATOM      9 CL   UNL     1      33.348 -18.958 -25.791  0.00  0.00    -0.050 Cl
ATOM     10  N   UNL     1      34.636 -18.700 -23.550  0.00  0.00    -0.376 NA
ATOM     11  N   UNL     1      35.146 -15.966 -23.910  0.00  0.00    -0.256 NA
ATOM     12  C   UNL     1      35.320 -17.978 -22.638  0.00  0.00    +0.203 C 
ATOM     13  C   UNL     1      35.569 -16.633 -22.818  0.00  0.00    +0.141 C 
ATOM     14  C   UNL     1      34.213 -18.033 -24.642  0.00  0.00    +0.192 C 
ATOM     15  C   UNL     1      34.463 -16.690 -24.819  0.00  0.00    +0.196 C 
ENDBRANCH   2   7
BRANCH   1  16
ATOM     16  S   UNL     1      33.819 -23.188 -18.248  0.00  0.00    +0.057 S 
ATOM     17  O   UNL     1      33.711 -24.349 -19.120  0.00  0.00    -0.153 OA
ATOM     18  O   UNL     1      34.607 -23.272 -17.027  0.00  0.00    -0.153 OA
BRANCH  16  19
ATOM     19  N   UNL     1      32.247 -22.651 -17.848  0.00  0.00    -0.203 NA
ATOM     20  H   UNL     1      32.120 -21.694 -18.177  0.00  0.00    +0.144 HD
ATOM     21  H   UNL     1      32.124 -22.681 -16.836  0.00  0.00    +0.144 HD
ENDBRANCH  16  19
ENDBRANCH   1  16
TORSDOF 3
ENDMDL
MODEL 8
REMARK VINA RESULT:      -8.1      4.293      5.726
REMARK  Name = 9994066
REMARK  3 active torsions:
REMARK  status: ('A' for Active; 'I' for Inactive)
REMARK    1  A    between atoms: C_1  and  S_7
REMARK    2  A    between atoms: C_2  and  N_13
REMARK    3  A    between atoms: S_7  and  N_10
REMARK                            x       y       z     vdW  Elec       q    Type
REMARK                         _______ _______ _______ _____ _____    ______ ____
ROOT
ATOM      1  C   UNL     1      34.816 -16.677 -22.547  0.00  0.00    +0.122 C 
ATOM      2  C   UNL     1      34.055 -14.181 -23.533  0.00  0.00    +0.050 C 
ATOM      3  C   UNL     1      34.537 -16.519 -23.904  0.00  0.00    +0.021 C 
ATOM      4  C   UNL     1      34.715 -15.588 -21.682  0.00  0.00    +0.021 C 
ATOM      5  C   UNL     1      34.157 -15.272 -24.398  0.00  0.00    +0.016 C 
ATOM      6  C   UNL     1      34.334 -14.340 -22.175  0.00  0.00    +0.016 C 
ENDROOT
BRANCH   2   7
ATOM      7  N   UNL     1      33.670 -12.919 -24.031  0.00  0.00    -0.287 N 
ATOM      8  H   UNL     1      33.884 -12.788 -24.983  0.00  0.00    +0.155 HD
ATOM      9 CL   UNL     1      30.517 -11.135 -20.611  0.00  0.00    -0.050 Cl
ATOM     10  N   UNL     1      32.173 -11.997 -22.416  0.00  0.00    -0.376 NA
ATOM     11  N   UNL     1      32.767  -9.440 -23.402  0.00  0.00    -0.256 NA
ATOM     12  C   UNL     1      33.038 -11.811 -23.435  0.00  0.00    +0.203 C 
ATOM     13  C   UNL     1      33.328 -10.552 -23.918  0.00  0.00    +0.141 C 
ATOM     14  C   UNL     1      31.612 -10.886 -21.901  0.00  0.00    +0.192 C 
ATOM     15  C   UNL     1      31.903  -9.630 -22.385  0.00  0.00    +0.196 C 
ENDBRANCH   2   7
BRANCH   1  16
ATOM     16  S   UNL     1      35.292 -18.240 -21.929  0.00  0.00    +0.057 S 
ATOM     17  O   UNL     1      35.582 -18.104 -20.509  0.00  0.00    -0.153 OA
ATOM     18  O   UNL     1      34.324 -19.230 -22.378  0.00  0.00    -0.153 OA
BRANCH  16  19
ATOM     19  N   UNL     1      36.759 -18.488 -22.769  0.00  0.00    -0.203 NA
ATOM     20  H   UNL     1      37.390 -19.048 -22.194  0.00  0.00    +0.144 HD
ATOM     21  H   UNL     1      37.193 -17.587 -22.971  0.00  0.00    +0.144 HD
ENDBRANCH  16  19
ENDBRANCH   1  16
TORSDOF 3
ENDMDL
MODEL 9
REMARK VINA RESULT:      -8.1      6.918      8.145
REMARK  Name = 9994066
REMARK  3 active torsions:
REMARK  status: ('A' for Active; 'I' for Inactive)
REMARK    1  A    between atoms: C_1  and  S_7
REMARK    2  A    between atoms: C_2  and  N_13
REMARK    3  A    between atoms: S_7  and  N_10
REMARK                            x       y       z     vdW  Elec       q    Type
REMARK                         _______ _______ _______ _____ _____    ______ ____
ROOT
ATOM      1  C   UNL     1      30.098 -23.083 -15.449  0.00  0.00    +0.122 C 
ATOM      2  C   UNL     1      32.803 -23.637 -15.057  0.00  0.00    +0.050 C 
ATOM      3  C   UNL     1      30.979 -23.054 -16.529  0.00  0.00    +0.021 C 
ATOM      4  C   UNL     1      30.568 -23.389 -14.172  0.00  0.00    +0.021 C 
ATOM      5  C   UNL     1      32.332 -23.331 -16.334  0.00  0.00    +0.016 C 
ATOM      6  C   UNL     1      31.921 -23.666 -13.976  0.00  0.00    +0.016 C 
ENDROOT
BRANCH   2   7
ATOM      7  N   UNL     1      34.171 -23.917 -14.858  0.00  0.00    -0.287 N 
ATOM      8  H   UNL     1      34.336 -24.662 -14.237  0.00  0.00    +0.155 HD
ATOM      9 CL   UNL     1      36.484 -21.554 -18.586  0.00  0.00    -0.050 Cl
ATOM     10  N   UNL     1      35.340 -22.785 -16.605  0.00  0.00    -0.376 NA
ATOM     11  N   UNL     1      37.651 -22.830 -15.017  0.00  0.00    -0.256 NA
ATOM     12  C   UNL     1      35.347 -23.340 -15.375  0.00  0.00    +0.203 C 
ATOM     13  C   UNL     1      36.486 -23.361 -14.596  0.00  0.00    +0.141 C 
ATOM     14  C   UNL     1      36.506 -22.254 -17.026  0.00  0.00    +0.192 C 
ATOM     15  C   UNL     1      37.641 -22.276 -16.246  0.00  0.00    +0.196 C 
ENDBRANCH   2   7
BRANCH   1  16
ATOM     16  S   UNL     1      28.404 -22.736 -15.695  0.00  0.00    +0.057 S 
ATOM     17  O   UNL     1      27.669 -23.993 -15.671  0.00  0.00    -0.153 OA
ATOM     18  O   UNL     1      28.018 -21.656 -14.799  0.00  0.00    -0.153 OA
BRANCH  16  19
ATOM     19  N   UNL     1      28.423 -22.139 -17.296  0.00  0.00    -0.203 NA
ATOM     20  H   UNL     1      27.933 -22.792 -17.908  0.00  0.00    +0.144 HD
ATOM     21  H   UNL     1      29.388 -22.039 -17.610  0.00  0.00    +0.144 HD
ENDBRANCH  16  19
ENDBRANCH   1  16
TORSDOF 3
ENDMDL
