MODEL 1
REMARK VINA RESULT:      -7.8      0.000      0.000
REMARK  Name = 6313595
REMARK  7 active torsions:
REMARK  status: ('A' for Active; 'I' for Inactive)
REMARK    1  A    between atoms: C_1  and  N_3
REMARK    2  A    between atoms: C_1  and  P_12
REMARK    3  A    between atoms: C_1  and  P_17
REMARK    4  A    between atoms: N_3  and  C_5
REMARK    5  A    between atoms: P_12  and  O_15
REMARK    6  A    between atoms: P_17  and  O_19
REMARK    7  A    between atoms: P_17  and  O_21
REMARK                            x       y       z     vdW  Elec       q    Type
REMARK                         _______ _______ _______ _____ _____    ______ ____
ROOT
ATOM      1  C   UNL     1      36.902 -24.558 -13.689  0.00  0.00    +0.267 C 
ENDROOT
BRANCH   1   2
ATOM      2  P   UNL     1      38.403 -25.212 -14.566  0.00  0.00    +0.392 P 
ATOM      3  O   UNL     1      39.185 -26.063 -13.592  0.00  0.00    -0.138 OA
ATOM      4  O   UNL     1      39.034 -24.042 -15.286  0.00  0.00    -0.254 OA
BRANCH   2   5
ATOM      5  O   UNL     1      37.663 -26.172 -15.659  0.00  0.00    -0.321 OA
ATOM      6  H   UNL     1      37.026 -25.650 -16.170  0.00  0.00    +0.220 HD
ENDBRANCH   2   5
ENDBRANCH   1   2
BRANCH   1   7
ATOM      7  N   UNL     1      35.813 -25.214 -14.386  0.00  0.00    -0.261 NA
ATOM      8  H   UNL     1      35.947 -26.157 -14.631  0.00  0.00    +0.126 HD
BRANCH   7  11
ATOM      9 CL   UNL     1      30.593 -22.886 -15.725  0.00  0.00    -0.081 Cl
ATOM     10  N   UNL     1      33.510 -24.901 -13.997  0.00  0.00    -0.317 N 
ATOM     11  C   UNL     1      34.604 -24.642 -14.740  0.00  0.00    +0.152 C 
ATOM     12  C   UNL     1      34.481 -23.801 -15.849  0.00  0.00    +0.011 C 
ATOM     13  C   UNL     1      32.302 -24.388 -14.272  0.00  0.00    +0.071 C 
ATOM     14  C   UNL     1      33.240 -23.254 -16.158  0.00  0.00    +0.011 C 
ATOM     15  C   UNL     1      32.135 -23.548 -15.364  0.00  0.00    +0.072 C 
ATOM     16  H   UNL     1      33.601 -25.494 -13.216  0.00  0.00    +0.148 HD
ENDBRANCH   7  11
ENDBRANCH   1   7
BRANCH   1  17
ATOM     17  P   UNL     1      36.577 -24.871 -11.945  0.00  0.00    +0.363 P 
ATOM     18  O   UNL     1      35.253 -24.368 -11.450  0.00  0.00    -0.256 OA
BRANCH  17  19
ATOM     19  O   UNL     1      36.823 -26.458 -11.769  0.00  0.00    -0.322 OA
ATOM     20  H   UNL     1      36.080 -26.946 -12.155  0.00  0.00    +0.220 HD
ENDBRANCH  17  19
BRANCH  17  21
ATOM     21  O   UNL     1      37.865 -24.217 -11.219  0.00  0.00    -0.322 OA
ATOM     22  H   UNL     1      37.676 -23.293 -10.996  0.00  0.00    +0.220 HD
ENDBRANCH  17  21
ENDBRANCH   1  17
TORSDOF 7
ENDMDL
MODEL 2
REMARK VINA RESULT:      -7.7      1.527      3.185
REMARK  Name = 6313595
REMARK  7 active torsions:
REMARK  status: ('A' for Active; 'I' for Inactive)
REMARK    1  A    between atoms: C_1  and  N_3
REMARK    2  A    between atoms: C_1  and  P_12
REMARK    3  A    between atoms: C_1  and  P_17
REMARK    4  A    between atoms: N_3  and  C_5
REMARK    5  A    between atoms: P_12  and  O_15
REMARK    6  A    between atoms: P_17  and  O_19
REMARK    7  A    between atoms: P_17  and  O_21
REMARK                            x       y       z     vdW  Elec       q    Type
REMARK                         _______ _______ _______ _____ _____    ______ ____
ROOT
ATOM      1  C   UNL     1      35.728 -24.602 -13.679  0.00  0.00    +0.267 C 
ENDROOT
BRANCH   1   2
ATOM      2  P   UNL     1      36.171 -24.402 -11.886  0.00  0.00    +0.392 P 
ATOM      3  O   UNL     1      35.023 -24.929 -11.056  0.00  0.00    -0.138 OA
ATOM      4  O   UNL     1      36.696 -22.995 -11.718  0.00  0.00    -0.254 OA
BRANCH   2   5
ATOM      5  O   UNL     1      37.421 -25.449 -11.814  0.00  0.00    -0.321 OA
ATOM      6  H   UNL     1      38.009 -25.201 -11.083  0.00  0.00    +0.220 HD
ENDBRANCH   2   5
ENDBRANCH   1   2
BRANCH   1   7
ATOM      7  N   UNL     1      34.674 -23.623 -13.859  0.00  0.00    -0.261 NA
ATOM      8  H   UNL     1      34.926 -22.676 -13.763  0.00  0.00    +0.126 HD
BRANCH   7  11
ATOM      9 CL   UNL     1      29.053 -24.905 -14.961  0.00  0.00    -0.081 Cl
ATOM     10  N   UNL     1      32.700 -24.847 -13.463  0.00  0.00    -0.317 N 
ATOM     11  C   UNL     1      33.349 -23.889 -14.154  0.00  0.00    +0.152 C 
ATOM     12  C   UNL     1      32.659 -23.194 -15.150  0.00  0.00    +0.011 C 
ATOM     13  C   UNL     1      31.418 -25.168 -13.686  0.00  0.00    +0.071 C 
ATOM     14  C   UNL     1      31.327 -23.505 -15.404  0.00  0.00    +0.011 C 
ATOM     15  C   UNL     1      30.695 -24.502 -14.667  0.00  0.00    +0.072 C 
ATOM     16  H   UNL     1      33.190 -25.334 -12.761  0.00  0.00    +0.148 HD
ENDBRANCH   7  11
ENDBRANCH   1   7
BRANCH   1  17
ATOM     17  P   UNL     1      36.889 -24.268 -15.015  0.00  0.00    +0.363 P 
ATOM     18  O   UNL     1      36.375 -23.351 -16.085  0.00  0.00    -0.256 OA
BRANCH  17  19
ATOM     19  O   UNL     1      38.232 -23.771 -14.265  0.00  0.00    -0.322 OA
ATOM     20  H   UNL     1      38.165 -23.969 -13.318  0.00  0.00    +0.220 HD
ENDBRANCH  17  19
BRANCH  17  21
ATOM     21  O   UNL     1      37.283 -25.751 -15.524  0.00  0.00    -0.322 OA
ATOM     22  H   UNL     1      37.698 -26.243 -14.799  0.00  0.00    +0.220 HD
ENDBRANCH  17  21
ENDBRANCH   1  17
TORSDOF 7
ENDMDL
MODEL 3
REMARK VINA RESULT:      -7.6      1.121      1.625
REMARK  Name = 6313595
REMARK  7 active torsions:
REMARK  status: ('A' for Active; 'I' for Inactive)
REMARK    1  A    between atoms: C_1  and  N_3
REMARK    2  A    between atoms: C_1  and  P_12
REMARK    3  A    between atoms: C_1  and  P_17
REMARK    4  A    between atoms: N_3  and  C_5
REMARK    5  A    between atoms: P_12  and  O_15
REMARK    6  A    between atoms: P_17  and  O_19
REMARK    7  A    between atoms: P_17  and  O_21
REMARK                            x       y       z     vdW  Elec       q    Type
REMARK                         _______ _______ _______ _____ _____    ______ ____
ROOT
ATOM      1  C   UNL     1      36.044 -24.110 -13.278  0.00  0.00    +0.267 C 
ENDROOT
BRANCH   1   2
ATOM      2  P   UNL     1      37.387 -24.104 -14.561  0.00  0.00    +0.392 P 
ATOM      3  O   UNL     1      37.535 -22.693 -15.082  0.00  0.00    -0.138 OA
ATOM      4  O   UNL     1      37.117 -25.270 -15.485  0.00  0.00    -0.254 OA
BRANCH   2   5
ATOM      5  O   UNL     1      38.658 -24.468 -13.603  0.00  0.00    -0.321 OA
ATOM      6  H   UNL     1      38.337 -24.755 -12.734  0.00  0.00    +0.220 HD
ENDBRANCH   2   5
ENDBRANCH   1   2
BRANCH   1   7
ATOM      7  N   UNL     1      35.011 -24.915 -13.900  0.00  0.00    -0.261 NA
ATOM      8  H   UNL     1      35.245 -25.845 -14.120  0.00  0.00    +0.126 HD
BRANCH   7  11
ATOM      9 CL   UNL     1      29.494 -23.310 -15.102  0.00  0.00    -0.081 Cl
ATOM     10  N   UNL     1      32.678 -25.113 -13.632  0.00  0.00    -0.317 N 
ATOM     11  C   UNL     1      33.728 -24.502 -14.214  0.00  0.00    +0.152 C 
ATOM     12  C   UNL     1      33.487 -23.466 -15.120  0.00  0.00    +0.011 C 
ATOM     13  C   UNL     1      31.405 -24.775 -13.882  0.00  0.00    +0.071 C 
ATOM     14  C   UNL     1      32.175 -23.093 -15.398  0.00  0.00    +0.011 C 
ATOM     15  C   UNL     1      31.120 -23.752 -14.775  0.00  0.00    +0.072 C 
ATOM     16  H   UNL     1      32.853 -25.842 -12.994  0.00  0.00    +0.148 HD
ENDBRANCH   7  11
ENDBRANCH   1   7
BRANCH   1  17
ATOM     17  P   UNL     1      36.259 -24.834 -11.643  0.00  0.00    +0.363 P 
ATOM     18  O   UNL     1      35.012 -24.899 -10.812  0.00  0.00    -0.256 OA
BRANCH  17  19
ATOM     19  O   UNL     1      36.977 -26.254 -11.924  0.00  0.00    -0.322 OA
ATOM     20  H   UNL     1      37.627 -26.153 -12.636  0.00  0.00    +0.220 HD
ENDBRANCH  17  19
BRANCH  17  21
ATOM     21  O   UNL     1      37.449 -23.941 -11.011  0.00  0.00    -0.322 OA
ATOM     22  H   UNL     1      37.926 -23.488 -11.723  0.00  0.00    +0.220 HD
ENDBRANCH  17  21
ENDBRANCH   1  17
TORSDOF 7
ENDMDL
MODEL 4
REMARK VINA RESULT:      -7.5      1.758      2.509
REMARK  Name = 6313595
REMARK  7 active torsions:
REMARK  status: ('A' for Active; 'I' for Inactive)
REMARK    1  A    between atoms: C_1  and  N_3
REMARK    2  A    between atoms: C_1  and  P_12
REMARK    3  A    between atoms: C_1  and  P_17
REMARK    4  A    between atoms: N_3  and  C_5
REMARK    5  A    between atoms: P_12  and  O_15
REMARK    6  A    between atoms: P_17  and  O_19
REMARK    7  A    between atoms: P_17  and  O_21
REMARK                            x       y       z     vdW  Elec       q    Type
REMARK                         _______ _______ _______ _____ _____    ______ ____
ROOT
ATOM      1  C   UNL     1      35.431 -23.746 -13.024  0.00  0.00    +0.267 C 
ENDROOT
BRANCH   1   2
ATOM      2  P   UNL     1      36.296 -23.664 -14.666  0.00  0.00    +0.392 P 
ATOM      3  O   UNL     1      35.711 -22.512 -15.450  0.00  0.00    -0.138 OA
ATOM      4  O   UNL     1      36.322 -25.072 -15.218  0.00  0.00    -0.254 OA
BRANCH   2   5
ATOM      5  O   UNL     1      37.792 -23.268 -14.148  0.00  0.00    -0.321 OA
ATOM      6  H   UNL     1      37.725 -22.733 -13.341  0.00  0.00    +0.220 HD
ENDBRANCH   2   5
ENDBRANCH   1   2
BRANCH   1   7
ATOM      7  N   UNL     1      34.314 -24.630 -13.295  0.00  0.00    -0.261 NA
ATOM      8  H   UNL     1      34.460 -25.590 -13.139  0.00  0.00    +0.126 HD
BRANCH   7  11
ATOM      9 CL   UNL     1      29.082 -22.842 -15.266  0.00  0.00    -0.081 Cl
ATOM     10  N   UNL     1      32.882 -23.005 -14.224  0.00  0.00    -0.317 N 
ATOM     11  C   UNL     1      33.062 -24.253 -13.749  0.00  0.00    +0.152 C 
ATOM     12  C   UNL     1      31.976 -25.130 -13.731  0.00  0.00    +0.011 C 
ATOM     13  C   UNL     1      31.703 -22.562 -14.682  0.00  0.00    +0.071 C 
ATOM     14  C   UNL     1      30.740 -24.697 -14.201  0.00  0.00    +0.011 C 
ATOM     15  C   UNL     1      30.597 -23.400 -14.682  0.00  0.00    +0.072 C 
ATOM     16  H   UNL     1      33.651 -22.390 -14.236  0.00  0.00    +0.148 HD
ENDBRANCH   7  11
ENDBRANCH   1   7
BRANCH   1  17
ATOM     17  P   UNL     1      36.202 -24.429 -11.547  0.00  0.00    +0.363 P 
ATOM     18  O   UNL     1      35.244 -24.943 -10.514  0.00  0.00    -0.256 OA
BRANCH  17  19
ATOM     19  O   UNL     1      37.258 -25.515 -12.111  0.00  0.00    -0.322 OA
ATOM     20  H   UNL     1      37.408 -25.360 -13.057  0.00  0.00    +0.220 HD
ENDBRANCH  17  19
BRANCH  17  21
ATOM     21  O   UNL     1      37.153 -23.219 -11.049  0.00  0.00    -0.322 OA
ATOM     22  H   UNL     1      37.832 -23.568 -10.451  0.00  0.00    +0.220 HD
ENDBRANCH  17  21
ENDBRANCH   1  17
TORSDOF 7
ENDMDL
MODEL 5
REMARK VINA RESULT:      -7.4      2.443      3.901
REMARK  Name = 6313595
REMARK  7 active torsions:
REMARK  status: ('A' for Active; 'I' for Inactive)
REMARK    1  A    between atoms: C_1  and  N_3
REMARK    2  A    between atoms: C_1  and  P_12
REMARK    3  A    between atoms: C_1  and  P_17
REMARK    4  A    between atoms: N_3  and  C_5
REMARK    5  A    between atoms: P_12  and  O_15
REMARK    6  A    between atoms: P_17  and  O_19
REMARK    7  A    between atoms: P_17  and  O_21
REMARK                            x       y       z     vdW  Elec       q    Type
REMARK                         _______ _______ _______ _____ _____    ______ ____
ROOT
ATOM      1  C   UNL     1      36.344 -24.588 -13.569  0.00  0.00    +0.267 C 
ENDROOT
BRANCH   1   2
ATOM      2  P   UNL     1      36.508 -24.218 -11.756  0.00  0.00    +0.392 P 
ATOM      3  O   UNL     1      35.410 -24.956 -11.023  0.00  0.00    -0.138 OA
ATOM      4  O   UNL     1      36.685 -22.723 -11.627  0.00  0.00    -0.254 OA
BRANCH   2   5
ATOM      5  O   UNL     1      37.939 -24.950 -11.474  0.00  0.00    -0.321 OA
ATOM      6  H   UNL     1      38.089 -25.011 -10.517  0.00  0.00    +0.220 HD
ENDBRANCH   2   5
ENDBRANCH   1   2
BRANCH   1   7
ATOM      7  N   UNL     1      36.755 -23.342 -14.187  0.00  0.00    -0.261 NA
ATOM      8  H   UNL     1      37.339 -22.755 -13.657  0.00  0.00    +0.126 HD
BRANCH   7  11
ATOM      9 CL   UNL     1      35.084 -21.558 -19.525  0.00  0.00    -0.081 Cl
ATOM     10  N   UNL     1      35.177 -23.178 -15.930  0.00  0.00    -0.317 N 
ATOM     11  C   UNL     1      36.406 -22.900 -15.452  0.00  0.00    +0.152 C 
ATOM     12  C   UNL     1      37.291 -22.173 -16.250  0.00  0.00    +0.011 C 
ATOM     13  C   UNL     1      34.761 -22.788 -17.143  0.00  0.00    +0.071 C 
ATOM     14  C   UNL     1      36.885 -21.754 -17.514  0.00  0.00    +0.011 C 
ATOM     15  C   UNL     1      35.607 -22.063 -17.970  0.00  0.00    +0.072 C 
ATOM     16  H   UNL     1      34.556 -23.691 -15.364  0.00  0.00    +0.148 HD
ENDBRANCH   7  11
ENDBRANCH   1   7
BRANCH   1  17
ATOM     17  P   UNL     1      37.322 -25.851 -14.401  0.00  0.00    +0.363 P 
ATOM     18  O   UNL     1      38.761 -25.490 -14.623  0.00  0.00    -0.256 OA
BRANCH  17  19
ATOM     19  O   UNL     1      37.071 -27.189 -13.531  0.00  0.00    -0.322 OA
ATOM     20  H   UNL     1      36.157 -27.200 -13.210  0.00  0.00    +0.220 HD
ENDBRANCH  17  19
BRANCH  17  21
ATOM     21  O   UNL     1      36.475 -26.127 -15.750  0.00  0.00    -0.322 OA
ATOM     22  H   UNL     1      36.599 -25.388 -16.366  0.00  0.00    +0.220 HD
ENDBRANCH  17  21
ENDBRANCH   1  17
TORSDOF 7
ENDMDL
MODEL 6
REMARK VINA RESULT:      -7.4      1.732      2.669
REMARK  Name = 6313595
REMARK  7 active torsions:
REMARK  status: ('A' for Active; 'I' for Inactive)
REMARK    1  A    between atoms: C_1  and  N_3
REMARK    2  A    between atoms: C_1  and  P_12
REMARK    3  A    between atoms: C_1  and  P_17
REMARK    4  A    between atoms: N_3  and  C_5
REMARK    5  A    between atoms: P_12  and  O_15
REMARK    6  A    between atoms: P_17  and  O_19
REMARK    7  A    between atoms: P_17  and  O_21
REMARK                            x       y       z     vdW  Elec       q    Type
REMARK                         _______ _______ _______ _____ _____    ______ ____
ROOT
ATOM      1  C   UNL     1      36.488 -24.759 -15.250  0.00  0.00    +0.267 C 
ENDROOT
BRANCH   1   2
ATOM      2  P   UNL     1      37.164 -26.474 -15.018  0.00  0.00    +0.392 P 
ATOM      3  O   UNL     1      38.669 -26.378 -14.918  0.00  0.00    -0.138 OA
ATOM      4  O   UNL     1      36.488 -27.354 -16.045  0.00  0.00    -0.254 OA
BRANCH   2   5
ATOM      5  O   UNL     1      36.539 -26.798 -13.546  0.00  0.00    -0.321 OA
ATOM      6  H   UNL     1      35.585 -26.620 -13.552  0.00  0.00    +0.220 HD
ENDBRANCH   2   5
ENDBRANCH   1   2
BRANCH   1   7
ATOM      7  N   UNL     1      35.460 -24.680 -14.231  0.00  0.00    -0.261 NA
ATOM      8  H   UNL     1      35.746 -24.813 -13.300  0.00  0.00    +0.126 HD
BRANCH   7  11
ATOM      9 CL   UNL     1      29.707 -23.778 -14.973  0.00  0.00    -0.081 Cl
ATOM     10  N   UNL     1      33.201 -25.076 -13.686  0.00  0.00    -0.317 N 
ATOM     11  C   UNL     1      34.114 -24.435 -14.442  0.00  0.00    +0.152 C 
ATOM     12  C   UNL     1      33.671 -23.540 -15.418  0.00  0.00    +0.011 C 
ATOM     13  C   UNL     1      31.880 -24.896 -13.827  0.00  0.00    +0.071 C 
ATOM     14  C   UNL     1      32.305 -23.332 -15.587  0.00  0.00    +0.011 C 
ATOM     15  C   UNL     1      31.396 -24.016 -14.784  0.00  0.00    +0.072 C 
ATOM     16  H   UNL     1      33.518 -25.706 -12.999  0.00  0.00    +0.148 HD
ENDBRANCH   7  11
ENDBRANCH   1   7
BRANCH   1  17
ATOM     17  P   UNL     1      37.482 -23.277 -15.006  0.00  0.00    +0.363 P 
ATOM     18  O   UNL     1      37.671 -22.872 -13.574  0.00  0.00    -0.256 OA
BRANCH  17  19
ATOM     19  O   UNL     1      38.843 -23.566 -15.828  0.00  0.00    -0.322 OA
ATOM     20  H   UNL     1      38.763 -24.409 -16.300  0.00  0.00    +0.220 HD
ENDBRANCH  17  19
BRANCH  17  21
ATOM     21  O   UNL     1      36.724 -22.184 -15.926  0.00  0.00    -0.322 OA
ATOM     22  H   UNL     1      36.137 -21.647 -15.373  0.00  0.00    +0.220 HD
ENDBRANCH  17  21
ENDBRANCH   1  17
TORSDOF 7
ENDMDL
MODEL 7
REMARK VINA RESULT:      -7.3      2.428      3.181
REMARK  Name = 6313595
REMARK  7 active torsions:
REMARK  status: ('A' for Active; 'I' for Inactive)
REMARK    1  A    between atoms: C_1  and  N_3
REMARK    2  A    between atoms: C_1  and  P_12
REMARK    3  A    between atoms: C_1  and  P_17
REMARK    4  A    between atoms: N_3  and  C_5
REMARK    5  A    between atoms: P_12  and  O_15
REMARK    6  A    between atoms: P_17  and  O_19
REMARK    7  A    between atoms: P_17  and  O_21
REMARK                            x       y       z     vdW  Elec       q    Type
REMARK                         _______ _______ _______ _____ _____    ______ ____
ROOT
ATOM      1  C   UNL     1      37.261 -23.639 -13.664  0.00  0.00    +0.267 C 
ENDROOT
BRANCH   1   2
ATOM      2  P   UNL     1      38.216 -25.070 -14.364  0.00  0.00    +0.392 P 
ATOM      3  O   UNL     1      37.245 -25.979 -15.082  0.00  0.00    -0.138 OA
ATOM      4  O   UNL     1      39.116 -25.579 -13.260  0.00  0.00    -0.254 OA
BRANCH   2   5
ATOM      5  O   UNL     1      39.120 -24.264 -15.458  0.00  0.00    -0.321 OA
ATOM      6  H   UNL     1      39.190 -23.332 -15.197  0.00  0.00    +0.220 HD
ENDBRANCH   2   5
ENDBRANCH   1   2
BRANCH   1   7
ATOM      7  N   UNL     1      36.055 -23.636 -14.468  0.00  0.00    -0.261 NA
ATOM      8  H   UNL     1      35.265 -24.081 -14.086  0.00  0.00    +0.126 HD
BRANCH   7  11
ATOM      9 CL   UNL     1      35.622 -21.145 -19.766  0.00  0.00    -0.081 Cl
ATOM     10  N   UNL     1      36.930 -22.369 -16.253  0.00  0.00    -0.317 N 
ATOM     11  C   UNL     1      35.906 -23.067 -15.721  0.00  0.00    +0.152 C 
ATOM     12  C   UNL     1      34.724 -23.193 -16.454  0.00  0.00    +0.011 C 
ATOM     13  C   UNL     1      36.867 -21.787 -17.459  0.00  0.00    +0.071 C 
ATOM     14  C   UNL     1      34.631 -22.599 -17.709  0.00  0.00    +0.011 C 
ATOM     15  C   UNL     1      35.712 -21.887 -18.221  0.00  0.00    +0.072 C 
ATOM     16  H   UNL     1      37.761 -22.283 -15.733  0.00  0.00    +0.148 HD
ENDBRANCH   7  11
ENDBRANCH   1   7
BRANCH   1  17
ATOM     17  P   UNL     1      36.671 -23.598 -11.963  0.00  0.00    +0.363 P 
ATOM     18  O   UNL     1      35.181 -23.678 -11.809  0.00  0.00    -0.256 OA
BRANCH  17  19
ATOM     19  O   UNL     1      37.507 -24.764 -11.220  0.00  0.00    -0.322 OA
ATOM     20  H   UNL     1      37.700 -24.494 -10.309  0.00  0.00    +0.220 HD
ENDBRANCH  17  19
BRANCH  17  21
ATOM     21  O   UNL     1      37.341 -22.244 -11.386  0.00  0.00    -0.322 OA
ATOM     22  H   UNL     1      38.302 -22.283 -11.505  0.00  0.00    +0.220 HD
ENDBRANCH  17  21
ENDBRANCH   1  17
TORSDOF 7
ENDMDL
MODEL 8
REMARK VINA RESULT:      -7.2      9.869     11.147
REMARK  Name = 6313595
REMARK  7 active torsions:
REMARK  status: ('A' for Active; 'I' for Inactive)
REMARK    1  A    between atoms: C_1  and  N_3
REMARK    2  A    between atoms: C_1  and  P_12
REMARK    3  A    between atoms: C_1  and  P_17
REMARK    4  A    between atoms: N_3  and  C_5
REMARK    5  A    between atoms: P_12  and  O_15
REMARK    6  A    between atoms: P_17  and  O_19
REMARK    7  A    between atoms: P_17  and  O_21
REMARK                            x       y       z     vdW  Elec       q    Type
REMARK                         _______ _______ _______ _____ _____    ______ ____
ROOT
ATOM      1  C   UNL     1      33.992 -16.892 -22.313  0.00  0.00    +0.267 C 
ENDROOT
BRANCH   1   2
ATOM      2  P   UNL     1      34.540 -16.818 -24.086  0.00  0.00    +0.392 P 
ATOM      3  O   UNL     1      33.624 -15.869 -24.824  0.00  0.00    -0.138 OA
ATOM      4  O   UNL     1      34.744 -18.245 -24.542  0.00  0.00    -0.254 OA
BRANCH   2   5
ATOM      5  O   UNL     1      35.998 -16.114 -23.874  0.00  0.00    -0.321 OA
ATOM      6  H   UNL     1      36.362 -16.377 -23.014  0.00  0.00    +0.220 HD
ENDBRANCH   2   5
ENDBRANCH   1   2
BRANCH   1   7
ATOM      7  N   UNL     1      34.940 -17.816 -21.723  0.00  0.00    -0.261 NA
ATOM      8  H   UNL     1      35.894 -17.595 -21.818  0.00  0.00    +0.126 HD
BRANCH   7  11
ATOM      9 CL   UNL     1      33.845 -22.786 -18.796  0.00  0.00    -0.081 Cl
ATOM     10  N   UNL     1      35.632 -19.727 -20.530  0.00  0.00    -0.317 N 
ATOM     11  C   UNL     1      34.633 -18.980 -21.040  0.00  0.00    +0.152 C 
ATOM     12  C   UNL     1      33.315 -19.407 -20.862  0.00  0.00    +0.011 C 
ATOM     13  C   UNL     1      35.420 -20.867 -19.856  0.00  0.00    +0.071 C 
ATOM     14  C   UNL     1      33.065 -20.586 -20.167  0.00  0.00    +0.011 C 
ATOM     15  C   UNL     1      34.127 -21.328 -19.656  0.00  0.00    +0.072 C 
ATOM     16  H   UNL     1      36.559 -19.423 -20.657  0.00  0.00    +0.148 HD
ENDBRANCH   7  11
ENDBRANCH   1   7
BRANCH   1  17
ATOM     17  P   UNL     1      34.019 -15.459 -21.222  0.00  0.00    +0.363 P 
ATOM     18  O   UNL     1      34.879 -15.610 -20.003  0.00  0.00    -0.256 OA
BRANCH  17  19
ATOM     19  O   UNL     1      34.403 -14.224 -22.191  0.00  0.00    -0.322 OA
ATOM     20  H   UNL     1      34.983 -13.609 -21.716  0.00  0.00    +0.220 HD
ENDBRANCH  17  19
BRANCH  17  21
ATOM     21  O   UNL     1      32.450 -15.211 -20.919  0.00  0.00    -0.322 OA
ATOM     22  H   UNL     1      31.958 -15.198 -21.755  0.00  0.00    +0.220 HD
ENDBRANCH  17  21
ENDBRANCH   1  17
TORSDOF 7
ENDMDL
MODEL 9
REMARK VINA RESULT:      -7.2      4.149      4.905
REMARK  Name = 6313595
REMARK  7 active torsions:
REMARK  status: ('A' for Active; 'I' for Inactive)
REMARK    1  A    between atoms: C_1  and  N_3
REMARK    2  A    between atoms: C_1  and  P_12
REMARK    3  A    between atoms: C_1  and  P_17
REMARK    4  A    between atoms: N_3  and  C_5
REMARK    5  A    between atoms: P_12  and  O_15
REMARK    6  A    between atoms: P_17  and  O_19
REMARK    7  A    between atoms: P_17  and  O_21
REMARK                            x       y       z     vdW  Elec       q    Type
REMARK                         _______ _______ _______ _____ _____    ______ ____
ROOT
ATOM      1  C   UNL     1      34.343 -23.059 -15.622  0.00  0.00    +0.267 C 
ENDROOT
BRANCH   1   2
ATOM      2  P   UNL     1      35.956 -23.787 -15.059  0.00  0.00    +0.392 P 
ATOM      3  O   UNL     1      35.973 -23.785 -13.547  0.00  0.00    -0.138 OA
ATOM      4  O   UNL     1      37.045 -23.120 -15.868  0.00  0.00    -0.254 OA
BRANCH   2   5
ATOM      5  O   UNL     1      35.751 -25.314 -15.600  0.00  0.00    -0.321 OA
ATOM      6  H   UNL     1      35.540 -25.896 -14.853  0.00  0.00    +0.220 HD
ENDBRANCH   2   5
ENDBRANCH   1   2
BRANCH   1   7
ATOM      7  N   UNL     1      34.317 -23.393 -17.033  0.00  0.00    -0.261 NA
ATOM      8  H   UNL     1      34.225 -24.345 -17.263  0.00  0.00    +0.126 HD
BRANCH   7  11
ATOM      9 CL   UNL     1      34.916 -19.609 -21.481  0.00  0.00    -0.081 Cl
ATOM     10  N   UNL     1      35.622 -22.052 -18.466  0.00  0.00    -0.317 N 
ATOM     11  C   UNL     1      34.409 -22.502 -18.088  0.00  0.00    +0.152 C 
ATOM     12  C   UNL     1      33.279 -22.052 -18.776  0.00  0.00    +0.011 C 
ATOM     13  C   UNL     1      35.797 -21.188 -19.476  0.00  0.00    +0.071 C 
ATOM     14  C   UNL     1      33.432 -21.156 -19.828  0.00  0.00    +0.011 C 
ATOM     15  C   UNL     1      34.703 -20.716 -20.186  0.00  0.00    +0.072 C 
ATOM     16  H   UNL     1      36.415 -22.371 -17.979  0.00  0.00    +0.148 HD
ENDBRANCH   7  11
ENDBRANCH   1   7
BRANCH   1  17
ATOM     17  P   UNL     1      32.749 -23.616 -14.996  0.00  0.00    +0.363 P 
ATOM     18  O   UNL     1      31.696 -23.825 -16.044  0.00  0.00    -0.256 OA
BRANCH  17  19
ATOM     19  O   UNL     1      33.101 -24.915 -14.101  0.00  0.00    -0.322 OA
ATOM     20  H   UNL     1      33.974 -24.802 -13.696  0.00  0.00    +0.220 HD
ENDBRANCH  17  19
BRANCH  17  21
ATOM     21  O   UNL     1      32.390 -22.495 -13.887  0.00  0.00    -0.322 OA
ATOM     22  H   UNL     1      33.207 -22.078 -13.573  0.00  0.00    +0.220 HD
ENDBRANCH  17  21
ENDBRANCH   1  17
TORSDOF 7
ENDMDL
