MODEL 1
REMARK VINA RESULT:      -7.4      0.000      0.000
REMARK  Name = 10343641
REMARK  3 active torsions:
REMARK  status: ('A' for Active; 'I' for Inactive)
REMARK    1  A    between atoms: C_4  and  N_21
REMARK    2  A    between atoms: C_8  and  C_14
REMARK    3  A    between atoms: C_22  and  C_31
REMARK                            x       y       z     vdW  Elec       q    Type
REMARK                         _______ _______ _______ _____ _____    ______ ____
ROOT
ATOM      1  O   UNL     1      35.715 -10.018 -24.368  0.00  0.00    -0.271 OA
ATOM      2  N   UNL     1      34.372  -8.131 -24.577  0.00  0.00    -0.254 N 
ATOM      3  N   UNL     1      32.999 -10.054 -22.667  0.00  0.00    -0.243 NA
ATOM      4  C   UNL     1      33.357 -10.324 -24.044  0.00  0.00    +0.255 C 
ATOM      5  C   UNL     1      34.597  -9.495 -24.333  0.00  0.00    +0.271 C 
ATOM      6  C   UNL     1      33.101  -7.481 -24.404  0.00  0.00    +0.055 C 
ATOM      7  C   UNL     1      32.164  -7.870 -23.426  0.00  0.00    +0.031 C 
ATOM      8  C   UNL     1      32.460  -8.914 -22.400  0.00  0.00    +0.079 C 
ATOM      9  C   UNL     1      35.484  -7.335 -25.097  0.00  0.00    +0.120 C 
ATOM     10  C   UNL     1      32.766  -6.390 -25.230  0.00  0.00    +0.015 C 
ATOM     11  C   UNL     1      30.912  -7.234 -23.344  0.00  0.00    +0.003 C 
ATOM     12  C   UNL     1      31.528  -5.749 -25.129  0.00  0.00    +0.001 C 
ATOM     13  C   UNL     1      30.597  -6.178 -24.194  0.00  0.00    +0.000 C 
ENDROOT
BRANCH   8  14
ATOM     14  C   UNL     1      32.133  -8.635 -20.972  0.00  0.00    +0.017 C 
ATOM     15  C   UNL     1      31.657  -9.660 -20.164  0.00  0.00    +0.001 C 
ATOM     16  C   UNL     1      32.309  -7.353 -20.464  0.00  0.00    +0.001 C 
ATOM     17  C   UNL     1      31.350  -9.399 -18.828  0.00  0.00    +0.000 C 
ATOM     18  C   UNL     1      32.003  -7.093 -19.127  0.00  0.00    +0.000 C 
ATOM     19  C   UNL     1      31.523  -8.116 -18.310  0.00  0.00    +0.000 C 
ENDBRANCH   8  14
BRANCH   4  21
ATOM     20  O   UNL     1      32.055 -12.482 -22.783  0.00  0.00    -0.269 OA
ATOM     21  N   UNL     1      33.688 -11.714 -24.204  0.00  0.00    -0.275 N 
ATOM     22  C   UNL     1      32.993 -12.728 -23.543  0.00  0.00    +0.261 C 
ATOM     23  H   UNL     1      34.432 -11.959 -24.801  0.00  0.00    +0.152 HD
BRANCH  22  31
ATOM     24  N   UNL     1      33.783 -14.998 -22.896  0.00  0.00    -0.284 N 
ATOM     25  C   UNL     1      34.130 -16.177 -23.502  0.00  0.00    +0.048 C 
ATOM     26  C   UNL     1      33.821 -14.881 -21.447  0.00  0.00    +0.096 C 
ATOM     27  C   UNL     1      34.812 -15.893 -20.829  0.00  0.00    +0.027 C 
ATOM     28  C   UNL     1      34.641 -17.337 -21.363  0.00  0.00    +0.029 C 
ATOM     29  C   UNL     1      34.563 -17.337 -22.862  0.00  0.00    -0.009 C 
ATOM     30  C   UNL     1      33.983 -16.022 -24.869  0.00  0.00    +0.015 C 
ATOM     31  C   UNL     1      33.421 -14.076 -23.828  0.00  0.00    +0.106 C 
ATOM     32  C   UNL     1      33.536 -14.681 -25.068  0.00  0.00    +0.021 C 
ATOM     33  C   UNL     1      34.839 -18.427 -23.688  0.00  0.00    -0.003 C 
ATOM     34  C   UNL     1      34.283 -17.126 -25.688  0.00  0.00    +0.001 C 
ATOM     35  C   UNL     1      34.706 -18.322 -25.078  0.00  0.00    -0.000 C 
ENDBRANCH  22  31
ENDBRANCH   4  21
TORSDOF 3
ENDMDL
MODEL 2
REMARK VINA RESULT:      -6.8      9.495     14.977
REMARK  Name = 10343641
REMARK  3 active torsions:
REMARK  status: ('A' for Active; 'I' for Inactive)
REMARK    1  A    between atoms: C_4  and  N_21
REMARK    2  A    between atoms: C_8  and  C_14
REMARK    3  A    between atoms: C_22  and  C_31
REMARK                            x       y       z     vdW  Elec       q    Type
REMARK                         _______ _______ _______ _____ _____    ______ ____
ROOT
ATOM      1  O   UNL     1      36.877 -24.614 -16.682  0.00  0.00    -0.271 OA
ATOM      2  N   UNL     1      36.689 -24.978 -14.393  0.00  0.00    -0.254 N 
ATOM      3  N   UNL     1      34.423 -23.139 -15.241  0.00  0.00    -0.243 NA
ATOM      4  C   UNL     1      35.840 -22.878 -15.390  0.00  0.00    +0.255 C 
ATOM      5  C   UNL     1      36.507 -24.232 -15.568  0.00  0.00    +0.271 C 
ATOM      6  C   UNL     1      36.143 -24.612 -13.114  0.00  0.00    +0.055 C 
ATOM      7  C   UNL     1      34.918 -23.929 -12.967  0.00  0.00    +0.031 C 
ATOM      8  C   UNL     1      34.019 -23.634 -14.121  0.00  0.00    +0.079 C 
ATOM      9  C   UNL     1      37.536 -26.169 -14.461  0.00  0.00    +0.120 C 
ATOM     10  C   UNL     1      36.840 -24.961 -11.941  0.00  0.00    +0.015 C 
ATOM     11  C   UNL     1      34.464 -23.546 -11.691  0.00  0.00    +0.003 C 
ATOM     12  C   UNL     1      36.373 -24.595 -10.675  0.00  0.00    +0.001 C 
ATOM     13  C   UNL     1      35.191 -23.878 -10.551  0.00  0.00    +0.000 C 
ENDROOT
BRANCH   8  14
ATOM     14  C   UNL     1      32.563 -23.934 -13.997  0.00  0.00    +0.017 C 
ATOM     15  C   UNL     1      32.154 -25.203 -13.607  0.00  0.00    +0.001 C 
ATOM     16  C   UNL     1      31.631 -22.940 -14.270  0.00  0.00    +0.001 C 
ATOM     17  C   UNL     1      30.792 -25.483 -13.491  0.00  0.00    +0.000 C 
ATOM     18  C   UNL     1      30.269 -23.220 -14.153  0.00  0.00    +0.000 C 
ATOM     19  C   UNL     1      29.850 -24.492 -13.764  0.00  0.00    +0.000 C 
ENDBRANCH   8  14
BRANCH   4  21
ATOM     20  O   UNL     1      34.433 -23.103 -17.822  0.00  0.00    -0.269 OA
ATOM     21  N   UNL     1      36.074 -22.093 -16.571  0.00  0.00    -0.275 N 
ATOM     22  C   UNL     1      35.332 -22.264 -17.741  0.00  0.00    +0.261 C 
ATOM     23  H   UNL     1      36.784 -21.411 -16.554  0.00  0.00    +0.152 HD
BRANCH  22  31
ATOM     24  N   UNL     1      34.760 -20.741 -19.625  0.00  0.00    -0.284 N 
ATOM     25  C   UNL     1      35.407 -19.976 -20.560  0.00  0.00    +0.048 C 
ATOM     26  C   UNL     1      33.307 -20.767 -19.578  0.00  0.00    +0.096 C 
ATOM     27  C   UNL     1      32.695 -20.412 -20.951  0.00  0.00    +0.027 C 
ATOM     28  C   UNL     1      33.305 -19.140 -21.593  0.00  0.00    +0.029 C 
ATOM     29  C   UNL     1      34.804 -19.194 -21.545  0.00  0.00    -0.009 C 
ATOM     30  C   UNL     1      36.770 -20.115 -20.369  0.00  0.00    +0.015 C 
ATOM     31  C   UNL     1      35.663 -21.380 -18.833  0.00  0.00    +0.106 C 
ATOM     32  C   UNL     1      36.924 -21.013 -19.270  0.00  0.00    +0.021 C 
ATOM     33  C   UNL     1      35.668 -18.479 -22.375  0.00  0.00    -0.003 C 
ATOM     34  C   UNL     1      37.626 -19.401 -21.227  0.00  0.00    +0.001 C 
ATOM     35  C   UNL     1      37.056 -18.586 -22.222  0.00  0.00    -0.000 C 
ENDBRANCH  22  31
ENDBRANCH   4  21
TORSDOF 3
ENDMDL
MODEL 3
REMARK VINA RESULT:      -6.8      6.656     11.066
REMARK  Name = 10343641
REMARK  3 active torsions:
REMARK  status: ('A' for Active; 'I' for Inactive)
REMARK    1  A    between atoms: C_4  and  N_21
REMARK    2  A    between atoms: C_8  and  C_14
REMARK    3  A    between atoms: C_22  and  C_31
REMARK                            x       y       z     vdW  Elec       q    Type
REMARK                         _______ _______ _______ _____ _____    ______ ____
ROOT
ATOM      1  O   UNL     1      35.706 -20.791 -18.988  0.00  0.00    -0.271 OA
ATOM      2  N   UNL     1      35.905 -20.238 -21.238  0.00  0.00    -0.254 N 
ATOM      3  N   UNL     1      33.427 -18.859 -20.148  0.00  0.00    -0.243 NA
ATOM      4  C   UNL     1      33.677 -20.285 -20.165  0.00  0.00    +0.255 C 
ATOM      5  C   UNL     1      35.182 -20.456 -20.055  0.00  0.00    +0.271 C 
ATOM      6  C   UNL     1      35.331 -19.715 -22.448  0.00  0.00    +0.055 C 
ATOM      7  C   UNL     1      34.263 -18.795 -22.459  0.00  0.00    +0.031 C 
ATOM      8  C   UNL     1      33.714 -18.187 -21.211  0.00  0.00    +0.079 C 
ATOM      9  C   UNL     1      37.318 -20.621 -21.259  0.00  0.00    +0.120 C 
ATOM     10  C   UNL     1      35.860 -20.115 -23.692  0.00  0.00    +0.015 C 
ATOM     11  C   UNL     1      33.704 -18.365 -23.677  0.00  0.00    +0.003 C 
ATOM     12  C   UNL     1      35.313 -19.668 -24.897  0.00  0.00    +0.001 C 
ATOM     13  C   UNL     1      34.228 -18.802 -24.890  0.00  0.00    +0.000 C 
ENDROOT
BRANCH   8  14
ATOM     14  C   UNL     1      33.488 -16.714 -21.166  0.00  0.00    +0.017 C 
ATOM     15  C   UNL     1      32.301 -16.217 -20.641  0.00  0.00    +0.001 C 
ATOM     16  C   UNL     1      34.468 -15.854 -21.646  0.00  0.00    +0.001 C 
ATOM     17  C   UNL     1      32.089 -14.839 -20.599  0.00  0.00    +0.000 C 
ATOM     18  C   UNL     1      34.256 -14.475 -21.602  0.00  0.00    +0.000 C 
ATOM     19  C   UNL     1      33.067 -13.968 -21.079  0.00  0.00    +0.000 C 
ENDBRANCH   8  14
BRANCH   4  21
ATOM     20  O   UNL     1      33.772 -23.031 -19.533  0.00  0.00    -0.269 OA
ATOM     21  N   UNL     1      33.061 -20.906 -19.023  0.00  0.00    -0.275 N 
ATOM     22  C   UNL     1      33.155 -22.277 -18.779  0.00  0.00    +0.261 C 
ATOM     23  H   UNL     1      32.556 -20.344 -18.392  0.00  0.00    +0.152 HD
BRANCH  22  31
ATOM     24  N   UNL     1      33.156 -23.222 -16.475  0.00  0.00    -0.284 N 
ATOM     25  C   UNL     1      32.251 -23.580 -15.511  0.00  0.00    +0.048 C 
ATOM     26  C   UNL     1      34.582 -23.362 -16.229  0.00  0.00    +0.096 C 
ATOM     27  C   UNL     1      34.864 -24.444 -15.162  0.00  0.00    +0.027 C 
ATOM     28  C   UNL     1      33.992 -24.305 -13.889  0.00  0.00    +0.029 C 
ATOM     29  C   UNL     1      32.550 -24.116 -14.259  0.00  0.00    -0.009 C 
ATOM     30  C   UNL     1      30.979 -23.326 -15.993  0.00  0.00    +0.015 C 
ATOM     31  C   UNL     1      32.511 -22.748 -17.575  0.00  0.00    +0.106 C 
ATOM     32  C   UNL     1      31.154 -22.800 -17.308  0.00  0.00    +0.021 C 
ATOM     33  C   UNL     1      31.458 -24.383 -13.430  0.00  0.00    -0.003 C 
ATOM     34  C   UNL     1      29.891 -23.618 -15.150  0.00  0.00    +0.001 C 
ATOM     35  C   UNL     1      30.151 -24.143 -13.871  0.00  0.00    -0.000 C 
ENDBRANCH  22  31
ENDBRANCH   4  21
TORSDOF 3
ENDMDL
MODEL 4
REMARK VINA RESULT:      -6.6      5.857      9.996
REMARK  Name = 10343641
REMARK  3 active torsions:
REMARK  status: ('A' for Active; 'I' for Inactive)
REMARK    1  A    between atoms: C_4  and  N_21
REMARK    2  A    between atoms: C_8  and  C_14
REMARK    3  A    between atoms: C_22  and  C_31
REMARK                            x       y       z     vdW  Elec       q    Type
REMARK                         _______ _______ _______ _____ _____    ______ ____
ROOT
ATOM      1  O   UNL     1      36.770 -19.450 -19.886  0.00  0.00    -0.271 OA
ATOM      2  N   UNL     1      36.485 -18.763 -22.089  0.00  0.00    -0.254 N 
ATOM      3  N   UNL     1      33.954 -18.075 -20.557  0.00  0.00    -0.243 NA
ATOM      4  C   UNL     1      34.522 -19.396 -20.724  0.00  0.00    +0.255 C 
ATOM      5  C   UNL     1      36.025 -19.204 -20.839  0.00  0.00    +0.271 C 
ATOM      6  C   UNL     1      35.626 -18.340 -23.161  0.00  0.00    +0.055 C 
ATOM      7  C   UNL     1      34.384 -17.706 -22.949  0.00  0.00    +0.031 C 
ATOM      8  C   UNL     1      33.909 -17.306 -21.591  0.00  0.00    +0.079 C 
ATOM      9  C   UNL     1      37.927 -18.792 -22.338  0.00  0.00    +0.120 C 
ATOM     10  C   UNL     1      36.034 -18.542 -24.495  0.00  0.00    +0.015 C 
ATOM     11  C   UNL     1      33.559 -17.368 -24.037  0.00  0.00    +0.003 C 
ATOM     12  C   UNL     1      35.218 -18.186 -25.572  0.00  0.00    +0.001 C 
ATOM     13  C   UNL     1      33.976 -17.609 -25.343  0.00  0.00    +0.000 C 
ENDROOT
BRANCH   8  14
ATOM     14  C   UNL     1      33.357 -15.935 -21.395  0.00  0.00    +0.017 C 
ATOM     15  C   UNL     1      32.838 -15.574 -20.157  0.00  0.00    +0.001 C 
ATOM     16  C   UNL     1      33.370 -15.031 -22.451  0.00  0.00    +0.001 C 
ATOM     17  C   UNL     1      32.321 -14.291 -19.974  0.00  0.00    +0.000 C 
ATOM     18  C   UNL     1      32.854 -13.748 -22.267  0.00  0.00    +0.000 C 
ATOM     19  C   UNL     1      32.329 -13.378 -21.028  0.00  0.00    +0.000 C 
ENDBRANCH   8  14
BRANCH   4  21
ATOM     20  O   UNL     1      35.126 -22.135 -20.438  0.00  0.00    -0.269 OA
ATOM     21  N   UNL     1      34.251 -20.199 -19.562  0.00  0.00    -0.275 N 
ATOM     22  C   UNL     1      34.583 -21.554 -19.497  0.00  0.00    +0.261 C 
ATOM     23  H   UNL     1      33.817 -19.778 -18.785  0.00  0.00    +0.152 HD
BRANCH  22  31
ATOM     24  N   UNL     1      35.153 -22.405 -17.228  0.00  0.00    -0.284 N 
ATOM     25  C   UNL     1      34.541 -23.066 -16.195  0.00  0.00    +0.048 C 
ATOM     26  C   UNL     1      36.544 -21.998 -17.116  0.00  0.00    +0.096 C 
ATOM     27  C   UNL     1      37.308 -22.884 -16.106  0.00  0.00    +0.027 C 
ATOM     28  C   UNL     1      36.570 -23.068 -14.757  0.00  0.00    +0.029 C 
ATOM     29  C   UNL     1      35.134 -23.437 -14.989  0.00  0.00    -0.009 C 
ATOM     30  C   UNL     1      33.227 -23.311 -16.553  0.00  0.00    +0.015 C 
ATOM     31  C   UNL     1      34.278 -22.219 -18.253  0.00  0.00    +0.106 C 
ATOM     32  C   UNL     1      33.069 -22.772 -17.865  0.00  0.00    +0.021 C 
ATOM     33  C   UNL     1      34.304 -24.084 -14.072  0.00  0.00    -0.003 C 
ATOM     34  C   UNL     1      32.411 -23.981 -15.623  0.00  0.00    +0.001 C 
ATOM     35  C   UNL     1      32.966 -24.356 -14.386  0.00  0.00    -0.000 C 
ENDBRANCH  22  31
ENDBRANCH   4  21
TORSDOF 3
ENDMDL
MODEL 5
REMARK VINA RESULT:      -6.2      2.875      9.226
REMARK  Name = 10343641
REMARK  3 active torsions:
REMARK  status: ('A' for Active; 'I' for Inactive)
REMARK    1  A    between atoms: C_4  and  N_21
REMARK    2  A    between atoms: C_8  and  C_14
REMARK    3  A    between atoms: C_22  and  C_31
REMARK                            x       y       z     vdW  Elec       q    Type
REMARK                         _______ _______ _______ _____ _____    ______ ____
ROOT
ATOM      1  O   UNL     1      33.986  -6.636 -22.533  0.00  0.00    -0.271 OA
ATOM      2  N   UNL     1      32.981  -8.120 -21.052  0.00  0.00    -0.254 N 
ATOM      3  N   UNL     1      32.559  -9.176 -23.869  0.00  0.00    -0.243 NA
ATOM      4  C   UNL     1      32.117  -7.894 -23.359  0.00  0.00    +0.255 C 
ATOM      5  C   UNL     1      33.124  -7.488 -22.297  0.00  0.00    +0.271 C 
ATOM      6  C   UNL     1      32.076  -9.209 -20.801  0.00  0.00    +0.055 C 
ATOM      7  C   UNL     1      31.738 -10.170 -21.776  0.00  0.00    +0.031 C 
ATOM      8  C   UNL     1      32.386 -10.211 -23.121  0.00  0.00    +0.079 C 
ATOM      9  C   UNL     1      33.756  -7.600 -19.925  0.00  0.00    +0.120 C 
ATOM     10  C   UNL     1      31.506  -9.352 -19.520  0.00  0.00    +0.015 C 
ATOM     11  C   UNL     1      30.801 -11.179 -21.489  0.00  0.00    +0.003 C 
ATOM     12  C   UNL     1      30.591 -10.369 -19.236  0.00  0.00    +0.001 C 
ATOM     13  C   UNL     1      30.230 -11.276 -20.223  0.00  0.00    +0.000 C 
ENDROOT
BRANCH   8  14
ATOM     14  C   UNL     1      32.881 -11.517 -23.643  0.00  0.00    +0.017 C 
ATOM     15  C   UNL     1      32.778 -12.656 -22.853  0.00  0.00    +0.001 C 
ATOM     16  C   UNL     1      33.437 -11.582 -24.914  0.00  0.00    +0.001 C 
ATOM     17  C   UNL     1      33.241 -13.878 -23.342  0.00  0.00    +0.000 C 
ATOM     18  C   UNL     1      33.900 -12.805 -25.403  0.00  0.00    +0.000 C 
ATOM     19  C   UNL     1      33.802 -13.953 -24.616  0.00  0.00    +0.000 C 
ENDBRANCH   8  14
BRANCH   4  21
ATOM     20  O   UNL     1      31.176  -5.245 -23.156  0.00  0.00    -0.269 OA
ATOM     21  N   UNL     1      32.139  -6.912 -24.409  0.00  0.00    -0.275 N 
ATOM     22  C   UNL     1      31.653  -5.616 -24.229  0.00  0.00    +0.261 C 
ATOM     23  H   UNL     1      32.509  -7.164 -25.286  0.00  0.00    +0.152 HD
BRANCH  22  31
ATOM     24  N   UNL     1      32.804  -4.732 -26.252  0.00  0.00    -0.284 N 
ATOM     25  C   UNL     1      32.603  -3.776 -27.213  0.00  0.00    +0.048 C 
ATOM     26  C   UNL     1      33.988  -5.574 -26.293  0.00  0.00    +0.096 C 
ATOM     27  C   UNL     1      35.141  -4.884 -27.056  0.00  0.00    +0.027 C 
ATOM     28  C   UNL     1      34.715  -4.288 -28.421  0.00  0.00    +0.029 C 
ATOM     29  C   UNL     1      33.459  -3.481 -28.273  0.00  0.00    -0.009 C 
ATOM     30  C   UNL     1      31.401  -3.142 -26.950  0.00  0.00    +0.015 C 
ATOM     31  C   UNL     1      31.771  -4.735 -25.366  0.00  0.00    +0.106 C 
ATOM     32  C   UNL     1      30.881  -3.755 -25.772  0.00  0.00    +0.021 C 
ATOM     33  C   UNL     1      33.032  -2.477 -29.144  0.00  0.00    -0.003 C 
ATOM     34  C   UNL     1      30.997  -2.120 -27.829  0.00  0.00    +0.001 C 
ATOM     35  C   UNL     1      31.824  -1.805 -28.923  0.00  0.00    -0.000 C 
ENDBRANCH  22  31
ENDBRANCH   4  21
TORSDOF 3
ENDMDL
MODEL 6
REMARK VINA RESULT:      -6.0      2.974      6.213
REMARK  Name = 10343641
REMARK  3 active torsions:
REMARK  status: ('A' for Active; 'I' for Inactive)
REMARK    1  A    between atoms: C_4  and  N_21
REMARK    2  A    between atoms: C_8  and  C_14
REMARK    3  A    between atoms: C_22  and  C_31
REMARK                            x       y       z     vdW  Elec       q    Type
REMARK                         _______ _______ _______ _____ _____    ______ ____
ROOT
ATOM      1  O   UNL     1      31.860 -14.845 -20.726  0.00  0.00    -0.271 OA
ATOM      2  N   UNL     1      32.044 -12.627 -21.399  0.00  0.00    -0.254 N 
ATOM      3  N   UNL     1      33.683 -14.327 -23.310  0.00  0.00    -0.243 NA
ATOM      4  C   UNL     1      33.871 -14.224 -21.878  0.00  0.00    +0.255 C 
ATOM      5  C   UNL     1      32.499 -13.950 -21.286  0.00  0.00    +0.271 C 
ATOM      6  C   UNL     1      32.709 -11.608 -22.165  0.00  0.00    +0.055 C 
ATOM      7  C   UNL     1      33.434 -11.882 -23.343  0.00  0.00    +0.031 C 
ATOM      8  C   UNL     1      33.472 -13.237 -23.967  0.00  0.00    +0.079 C 
ATOM      9  C   UNL     1      30.851 -12.246 -20.642  0.00  0.00    +0.120 C 
ATOM     10  C   UNL     1      32.627 -10.266 -21.746  0.00  0.00    +0.015 C 
ATOM     11  C   UNL     1      34.114 -10.851 -24.018  0.00  0.00    +0.003 C 
ATOM     12  C   UNL     1      33.288  -9.243 -22.433  0.00  0.00    +0.001 C 
ATOM     13  C   UNL     1      34.041  -9.538 -23.562  0.00  0.00    +0.000 C 
ENDROOT
BRANCH   8  14
ATOM     14  C   UNL     1      33.242 -13.363 -25.434  0.00  0.00    +0.017 C 
ATOM     15  C   UNL     1      33.478 -12.272 -26.263  0.00  0.00    +0.001 C 
ATOM     16  C   UNL     1      32.796 -14.570 -25.959  0.00  0.00    +0.001 C 
ATOM     17  C   UNL     1      33.262 -12.390 -27.636  0.00  0.00    +0.000 C 
ATOM     18  C   UNL     1      32.581 -14.688 -27.333  0.00  0.00    +0.000 C 
ATOM     19  C   UNL     1      32.814 -13.597 -28.172  0.00  0.00    +0.000 C 
ENDBRANCH   8  14
BRANCH   4  21
ATOM     20  O   UNL     1      34.089 -16.639 -23.315  0.00  0.00    -0.269 OA
ATOM     21  N   UNL     1      34.354 -15.473 -21.354  0.00  0.00    -0.275 N 
ATOM     22  C   UNL     1      34.433 -16.629 -22.132  0.00  0.00    +0.261 C 
ATOM     23  H   UNL     1      34.640 -15.513 -20.412  0.00  0.00    +0.152 HD
BRANCH  22  31
ATOM     24  N   UNL     1      34.233 -18.850 -21.026  0.00  0.00    -0.284 N 
ATOM     25  C   UNL     1      35.050 -19.792 -20.457  0.00  0.00    +0.048 C 
ATOM     26  C   UNL     1      32.798 -19.071 -21.094  0.00  0.00    +0.096 C 
ATOM     27  C   UNL     1      32.327 -20.046 -19.991  0.00  0.00    +0.027 C 
ATOM     28  C   UNL     1      33.183 -21.334 -19.894  0.00  0.00    +0.029 C 
ATOM     29  C   UNL     1      34.644 -20.995 -19.881  0.00  0.00    -0.009 C 
ATOM     30  C   UNL     1      36.356 -19.343 -20.544  0.00  0.00    +0.015 C 
ATOM     31  C   UNL     1      34.968 -17.797 -21.475  0.00  0.00    +0.106 C 
ATOM     32  C   UNL     1      36.294 -18.072 -21.190  0.00  0.00    +0.021 C 
ATOM     33  C   UNL     1      35.662 -21.810 -19.383  0.00  0.00    -0.003 C 
ATOM     34  C   UNL     1      37.367 -20.170 -20.020  0.00  0.00    +0.001 C 
ATOM     35  C   UNL     1      37.000 -21.402 -19.447  0.00  0.00    -0.000 C 
ENDBRANCH  22  31
ENDBRANCH   4  21
TORSDOF 3
ENDMDL
MODEL 7
REMARK VINA RESULT:      -5.3      6.081     10.401
REMARK  Name = 10343641
REMARK  3 active torsions:
REMARK  status: ('A' for Active; 'I' for Inactive)
REMARK    1  A    between atoms: C_4  and  N_21
REMARK    2  A    between atoms: C_8  and  C_14
REMARK    3  A    between atoms: C_22  and  C_31
REMARK                            x       y       z     vdW  Elec       q    Type
REMARK                         _______ _______ _______ _____ _____    ______ ____
ROOT
ATOM      1  O   UNL     1      37.319 -19.543 -19.880  0.00  0.00    -0.271 OA
ATOM      2  N   UNL     1      36.752 -19.067 -22.084  0.00  0.00    -0.254 N 
ATOM      3  N   UNL     1      34.373 -18.365 -20.330  0.00  0.00    -0.243 NA
ATOM      4  C   UNL     1      34.992 -19.668 -20.452  0.00  0.00    +0.255 C 
ATOM      5  C   UNL     1      36.459 -19.417 -20.756  0.00  0.00    +0.271 C 
ATOM      6  C   UNL     1      35.755 -18.781 -23.080  0.00  0.00    +0.055 C 
ATOM      7  C   UNL     1      34.512 -18.189 -22.778  0.00  0.00    +0.031 C 
ATOM      8  C   UNL     1      34.169 -17.693 -21.412  0.00  0.00    +0.079 C 
ATOM      9  C   UNL     1      38.156 -19.051 -22.495  0.00  0.00    +0.120 C 
ATOM     10  C   UNL     1      36.023 -19.082 -24.430  0.00  0.00    +0.015 C 
ATOM     11  C   UNL     1      33.553 -17.988 -23.787  0.00  0.00    +0.003 C 
ATOM     12  C   UNL     1      35.073 -18.860 -25.432  0.00  0.00    +0.001 C 
ATOM     13  C   UNL     1      33.834 -18.324 -25.108  0.00  0.00    +0.000 C 
ENDROOT
BRANCH   8  14
ATOM     14  C   UNL     1      33.567 -16.337 -21.267  0.00  0.00    +0.017 C 
ATOM     15  C   UNL     1      32.498 -16.149 -20.398  0.00  0.00    +0.001 C 
ATOM     16  C   UNL     1      34.081 -15.274 -22.000  0.00  0.00    +0.001 C 
ATOM     17  C   UNL     1      31.934 -14.880 -20.263  0.00  0.00    +0.000 C 
ATOM     18  C   UNL     1      33.518 -14.005 -21.863  0.00  0.00    +0.000 C 
ATOM     19  C   UNL     1      32.444 -13.808 -20.995  0.00  0.00    +0.000 C 
ENDBRANCH   8  14
BRANCH   4  21
ATOM     20  O   UNL     1      35.367 -22.440 -20.100  0.00  0.00    -0.269 OA
ATOM     21  N   UNL     1      34.898 -20.377 -19.204  0.00  0.00    -0.275 N 
ATOM     22  C   UNL     1      35.099 -21.755 -19.112  0.00  0.00    +0.261 C 
ATOM     23  H   UNL     1      34.685 -19.871 -18.387  0.00  0.00    +0.152 HD
BRANCH  22  31
ATOM     24  N   UNL     1      33.859 -22.774 -17.209  0.00  0.00    -0.284 N 
ATOM     25  C   UNL     1      34.118 -23.249 -15.950  0.00  0.00    +0.048 C 
ATOM     26  C   UNL     1      32.508 -22.820 -17.745  0.00  0.00    +0.096 C 
ATOM     27  C   UNL     1      31.456 -22.841 -16.614  0.00  0.00    +0.027 C 
ATOM     28  C   UNL     1      31.755 -23.882 -15.505  0.00  0.00    +0.029 C 
ATOM     29  C   UNL     1      33.185 -23.780 -15.061  0.00  0.00    -0.009 C 
ATOM     30  C   UNL     1      35.472 -23.106 -15.702  0.00  0.00    +0.015 C 
ATOM     31  C   UNL     1      35.003 -22.319 -17.786  0.00  0.00    +0.106 C 
ATOM     32  C   UNL     1      36.027 -22.510 -16.874  0.00  0.00    +0.021 C 
ATOM     33  C   UNL     1      33.687 -24.224 -13.837  0.00  0.00    -0.003 C 
ATOM     34  C   UNL     1      35.957 -23.543 -14.456  0.00  0.00    +0.001 C 
ATOM     35  C   UNL     1      35.050 -24.102 -13.538  0.00  0.00    -0.000 C 
ENDBRANCH  22  31
ENDBRANCH   4  21
TORSDOF 3
ENDMDL
MODEL 8
REMARK VINA RESULT:      -5.1      2.835      9.291
REMARK  Name = 10343641
REMARK  3 active torsions:
REMARK  status: ('A' for Active; 'I' for Inactive)
REMARK    1  A    between atoms: C_4  and  N_21
REMARK    2  A    between atoms: C_8  and  C_14
REMARK    3  A    between atoms: C_22  and  C_31
REMARK                            x       y       z     vdW  Elec       q    Type
REMARK                         _______ _______ _______ _____ _____    ______ ____
ROOT
ATOM      1  O   UNL     1      34.223  -7.098 -22.361  0.00  0.00    -0.271 OA
ATOM      2  N   UNL     1      32.963  -8.439 -20.939  0.00  0.00    -0.254 N 
ATOM      3  N   UNL     1      32.876  -9.673 -23.713  0.00  0.00    -0.243 NA
ATOM      4  C   UNL     1      32.427  -8.344 -23.352  0.00  0.00    +0.255 C 
ATOM      5  C   UNL     1      33.300  -7.900 -22.191  0.00  0.00    +0.271 C 
ATOM      6  C   UNL     1      31.986  -9.475 -20.744  0.00  0.00    +0.055 C 
ATOM      7  C   UNL     1      31.739 -10.489 -21.692  0.00  0.00    +0.031 C 
ATOM      8  C   UNL     1      32.558 -10.647 -22.930  0.00  0.00    +0.079 C 
ATOM      9  C   UNL     1      33.603  -7.868 -19.753  0.00  0.00    +0.120 C 
ATOM     10  C   UNL     1      31.244  -9.507 -19.547  0.00  0.00    +0.015 C 
ATOM     11  C   UNL     1      30.728 -11.442 -21.471  0.00  0.00    +0.003 C 
ATOM     12  C   UNL     1      30.254 -10.470 -19.325  0.00  0.00    +0.001 C 
ATOM     13  C   UNL     1      29.989 -11.430 -20.292  0.00  0.00    +0.000 C 
ENDROOT
BRANCH   8  14
ATOM     14  C   UNL     1      33.060 -12.003 -23.295  0.00  0.00    +0.017 C 
ATOM     15  C   UNL     1      33.455 -12.261 -24.602  0.00  0.00    +0.001 C 
ATOM     16  C   UNL     1      33.129 -12.994 -22.323  0.00  0.00    +0.001 C 
ATOM     17  C   UNL     1      33.925 -13.530 -24.942  0.00  0.00    +0.000 C 
ATOM     18  C   UNL     1      33.600 -14.263 -22.664  0.00  0.00    +0.000 C 
ATOM     19  C   UNL     1      33.997 -14.531 -23.974  0.00  0.00    +0.000 C 
ENDBRANCH   8  14
BRANCH   4  21
ATOM     20  O   UNL     1      31.836  -5.588 -23.348  0.00  0.00    -0.269 OA
ATOM     21  N   UNL     1      32.632  -7.440 -24.451  0.00  0.00    -0.275 N 
ATOM     22  C   UNL     1      32.313  -6.083 -24.370  0.00  0.00    +0.261 C 
ATOM     23  H   UNL     1      33.011  -7.790 -25.289  0.00  0.00    +0.152 HD
BRANCH  22  31
ATOM     24  N   UNL     1      31.925  -4.184 -25.932  0.00  0.00    -0.284 N 
ATOM     25  C   UNL     1      32.463  -3.675 -27.085  0.00  0.00    +0.048 C 
ATOM     26  C   UNL     1      30.793  -3.526 -25.300  0.00  0.00    +0.096 C 
ATOM     27  C   UNL     1      29.980  -2.702 -26.323  0.00  0.00    +0.027 C 
ATOM     28  C   UNL     1      30.852  -1.786 -27.217  0.00  0.00    +0.029 C 
ATOM     29  C   UNL     1      32.015  -2.551 -27.777  0.00  0.00    -0.009 C 
ATOM     30  C   UNL     1      33.531  -4.474 -27.455  0.00  0.00    +0.015 C 
ATOM     31  C   UNL     1      32.606  -5.296 -25.544  0.00  0.00    +0.106 C 
ATOM     32  C   UNL     1      33.612  -5.504 -26.471  0.00  0.00    +0.021 C 
ATOM     33  C   UNL     1      32.738  -2.206 -28.920  0.00  0.00    -0.003 C 
ATOM     34  C   UNL     1      34.237  -4.121 -28.620  0.00  0.00    +0.001 C 
ATOM     35  C   UNL     1      33.827  -2.982 -29.337  0.00  0.00    -0.000 C 
ENDBRANCH  22  31
ENDBRANCH   4  21
TORSDOF 3
ENDMDL
MODEL 9
REMARK VINA RESULT:      -5.0      1.518      4.001
REMARK  Name = 10343641
REMARK  3 active torsions:
REMARK  status: ('A' for Active; 'I' for Inactive)
REMARK    1  A    between atoms: C_4  and  N_21
REMARK    2  A    between atoms: C_8  and  C_14
REMARK    3  A    between atoms: C_22  and  C_31
REMARK                            x       y       z     vdW  Elec       q    Type
REMARK                         _______ _______ _______ _____ _____    ______ ____
ROOT
ATOM      1  O   UNL     1      30.746 -12.268 -22.335  0.00  0.00    -0.271 OA
ATOM      2  N   UNL     1      31.035 -10.390 -20.994  0.00  0.00    -0.254 N 
ATOM      3  N   UNL     1      33.010 -10.213 -23.296  0.00  0.00    -0.243 NA
ATOM      4  C   UNL     1      32.931 -11.275 -22.314  0.00  0.00    +0.255 C 
ATOM      5  C   UNL     1      31.471 -11.368 -21.903  0.00  0.00    +0.271 C 
ATOM      6  C   UNL     1      31.822  -9.258 -20.589  0.00  0.00    +0.055 C 
ATOM      7  C   UNL     1      32.754  -8.625 -21.438  0.00  0.00    +0.031 C 
ATOM      8  C   UNL     1      32.916  -8.998 -22.874  0.00  0.00    +0.079 C 
ATOM      9  C   UNL     1      29.720 -10.567 -20.376  0.00  0.00    +0.120 C 
ATOM     10  C   UNL     1      31.656  -8.729 -19.294  0.00  0.00    +0.015 C 
ATOM     11  C   UNL     1      33.539  -7.557 -20.965  0.00  0.00    +0.003 C 
ATOM     12  C   UNL     1      32.425  -7.654 -18.838  0.00  0.00    +0.001 C 
ATOM     13  C   UNL     1      33.374  -7.076 -19.670  0.00  0.00    +0.000 C 
ENDROOT
BRANCH   8  14
ATOM     14  C   UNL     1      32.960  -7.918 -23.900  0.00  0.00    +0.017 C 
ATOM     15  C   UNL     1      31.793  -7.243 -24.238  0.00  0.00    +0.001 C 
ATOM     16  C   UNL     1      34.169  -7.595 -24.506  0.00  0.00    +0.001 C 
ATOM     17  C   UNL     1      31.835  -6.232 -25.199  0.00  0.00    +0.000 C 
ATOM     18  C   UNL     1      34.210  -6.582 -25.466  0.00  0.00    +0.000 C 
ATOM     19  C   UNL     1      33.043  -5.901 -25.812  0.00  0.00    +0.000 C 
ENDBRANCH   8  14
BRANCH   4  21
ATOM     20  O   UNL     1      33.201 -13.732 -20.957  0.00  0.00    -0.269 OA
ATOM     21  N   UNL     1      33.318 -12.526 -22.910  0.00  0.00    -0.275 N 
ATOM     22  C   UNL     1      33.429 -13.703 -22.168  0.00  0.00    +0.261 C 
ATOM     23  H   UNL     1      33.511 -12.552 -23.875  0.00  0.00    +0.152 HD
BRANCH  22  31
ATOM     24  N   UNL     1      34.234 -16.051 -22.364  0.00  0.00    -0.284 N 
ATOM     25  C   UNL     1      34.490 -16.970 -23.347  0.00  0.00    +0.048 C 
ATOM     26  C   UNL     1      34.428 -16.400 -20.966  0.00  0.00    +0.096 C 
ATOM     27  C   UNL     1      35.457 -17.542 -20.810  0.00  0.00    +0.027 C 
ATOM     28  C   UNL     1      35.200 -18.743 -21.754  0.00  0.00    +0.029 C 
ATOM     29  C   UNL     1      34.965 -18.268 -23.158  0.00  0.00    -0.009 C 
ATOM     30  C   UNL     1      34.204 -16.390 -24.570  0.00  0.00    +0.015 C 
ATOM     31  C   UNL     1      33.796 -14.885 -22.911  0.00  0.00    +0.106 C 
ATOM     32  C   UNL     1      33.767 -15.062 -24.283  0.00  0.00    +0.021 C 
ATOM     33  C   UNL     1      35.129 -19.035 -24.312  0.00  0.00    -0.003 C 
ATOM     34  C   UNL     1      34.393 -17.172 -25.724  0.00  0.00    +0.001 C 
ATOM     35  C   UNL     1      34.853 -18.494 -25.574  0.00  0.00    -0.000 C 
ENDBRANCH  22  31
ENDBRANCH   4  21
TORSDOF 3
ENDMDL
