MODEL 1
REMARK VINA RESULT:     -10.4      0.000      0.000
REMARK  Name = 11987874
REMARK  7 active torsions:
REMARK  status: ('A' for Active; 'I' for Inactive)
REMARK    1  A    between atoms: N_2  and  C_26
REMARK    2  A    between atoms: C_3  and  N_13
REMARK    3  A    between atoms: C_14  and  C_19
REMARK    4  A    between atoms: C_26  and  C_29
REMARK    5  A    between atoms: N_28  and  C_31
REMARK    6  A    between atoms: C_31  and  C_32
REMARK    7  A    between atoms: C_32  and  O_33
REMARK                            x       y       z     vdW  Elec       q    Type
REMARK                         _______ _______ _______ _____ _____    ______ ____
ROOT
ATOM      1  O   UNL     1      32.730 -22.387 -18.647  0.00  0.00    -0.273 OA
ATOM      2  N   UNL     1      33.843 -23.442 -16.894  0.00  0.00    -0.249 N 
ATOM      3  C   UNL     1      35.114 -22.095 -18.529  0.00  0.00    +0.154 C 
ATOM      4  C   UNL     1      36.012 -21.648 -17.391  0.00  0.00    +0.057 C 
ATOM      5  C   UNL     1      36.145 -22.756 -16.390  0.00  0.00    -0.006 C 
ATOM      6  C   UNL     1      35.054 -23.609 -16.144  0.00  0.00    +0.050 C 
ATOM      7  C   UNL     1      33.771 -22.610 -18.023  0.00  0.00    +0.248 C 
ATOM      8  C   UNL     1      37.326 -22.885 -15.645  0.00  0.00    -0.003 C 
ATOM      9  C   UNL     1      35.180 -24.587 -15.143  0.00  0.00    +0.015 C 
ATOM     10  C   UNL     1      37.438 -23.868 -14.665  0.00  0.00    -0.000 C 
ATOM     11  C   UNL     1      36.366 -24.717 -14.415  0.00  0.00    +0.001 C 
ENDROOT
BRANCH   3  13
ATOM     12  O   UNL     1      37.002 -21.016 -20.324  0.00  0.00    -0.269 OA
ATOM     13  N   UNL     1      34.876 -21.015 -19.450  0.00  0.00    -0.294 N 
ATOM     14  C   UNL     1      35.867 -20.535 -20.310  0.00  0.00    +0.260 C 
ATOM     15  H   UNL     1      33.985 -20.599 -19.475  0.00  0.00    +0.150 HD
BRANCH  14  19
ATOM     16 CL   UNL     1      33.802 -15.099 -24.995  0.00  0.00    -0.075 Cl
ATOM     17  S   UNL     1      34.575 -15.858 -22.205  0.00  0.00    -0.061 S 
ATOM     18  N   UNL     1      35.324 -18.162 -20.778  0.00  0.00    -0.304 N 
ATOM     19  C   UNL     1      35.461 -19.450 -21.215  0.00  0.00    +0.103 C 
ATOM     20  C   UNL     1      35.179 -19.564 -22.547  0.00  0.00    +0.021 C 
ATOM     21  C   UNL     1      34.857 -18.263 -22.911  0.00  0.00    +0.022 C 
ATOM     22  C   UNL     1      34.945 -17.441 -21.858  0.00  0.00    +0.080 C 
ATOM     23  C   UNL     1      34.475 -17.661 -24.107  0.00  0.00    +0.020 C 
ATOM     24  C   UNL     1      34.279 -16.303 -23.871  0.00  0.00    +0.088 C 
ATOM     25  H   UNL     1      35.472 -17.828 -19.863  0.00  0.00    +0.153 HD
ENDBRANCH  14  19
ENDBRANCH   3  13
BRANCH   2  26
ATOM     26  C   UNL     1      32.642 -24.153 -16.461  0.00  0.00    +0.183 C 
BRANCH  26  29
ATOM     27  O   UNL     1      32.033 -22.577 -14.733  0.00  0.00    -0.273 OA
ATOM     28  N   UNL     1      30.468 -23.144 -16.356  0.00  0.00    -0.301 N 
ATOM     29  C   UNL     1      31.714 -23.192 -15.748  0.00  0.00    +0.243 C 
ATOM     30  H   UNL     1      30.323 -23.679 -17.168  0.00  0.00    +0.150 HD
BRANCH  28  31
ATOM     31  C   UNL     1      29.372 -22.346 -15.855  0.00  0.00    +0.121 C 
BRANCH  31  32
ATOM     32  C   UNL     1      28.061 -22.717 -16.523  0.00  0.00    +0.158 C 
BRANCH  32  33
ATOM     33  O   UNL     1      27.480 -21.556 -17.102  0.00  0.00    -0.380 OA
ATOM     34  H   UNL     1      27.335 -20.888 -16.412  0.00  0.00    +0.211 HD
ENDBRANCH  32  33
ENDBRANCH  31  32
ENDBRANCH  28  31
ENDBRANCH  26  29
ENDBRANCH   2  26
TORSDOF 7
ENDMDL
MODEL 2
REMARK VINA RESULT:      -9.9      1.920      2.772
REMARK  Name = 11987874
REMARK  7 active torsions:
REMARK  status: ('A' for Active; 'I' for Inactive)
REMARK    1  A    between atoms: N_2  and  C_26
REMARK    2  A    between atoms: C_3  and  N_13
REMARK    3  A    between atoms: C_14  and  C_19
REMARK    4  A    between atoms: C_26  and  C_29
REMARK    5  A    between atoms: N_28  and  C_31
REMARK    6  A    between atoms: C_31  and  C_32
REMARK    7  A    between atoms: C_32  and  O_33
REMARK                            x       y       z     vdW  Elec       q    Type
REMARK                         _______ _______ _______ _____ _____    ______ ____
ROOT
ATOM      1  O   UNL     1      33.563 -22.411 -15.670  0.00  0.00    -0.273 OA
ATOM      2  N   UNL     1      34.741 -23.736 -14.159  0.00  0.00    -0.249 N 
ATOM      3  C   UNL     1      35.697 -23.259 -16.387  0.00  0.00    +0.154 C 
ATOM      4  C   UNL     1      37.066 -23.203 -15.735  0.00  0.00    +0.057 C 
ATOM      5  C   UNL     1      37.118 -24.171 -14.590  0.00  0.00    -0.006 C 
ATOM      6  C   UNL     1      35.967 -24.395 -13.813  0.00  0.00    +0.050 C 
ATOM      7  C   UNL     1      34.577 -23.049 -15.373  0.00  0.00    +0.248 C 
ATOM      8  C   UNL     1      38.333 -24.782 -14.249  0.00  0.00    -0.003 C 
ATOM      9  C   UNL     1      36.067 -25.244 -12.698  0.00  0.00    +0.015 C 
ATOM     10  C   UNL     1      38.410 -25.631 -13.149  0.00  0.00    -0.000 C 
ATOM     11  C   UNL     1      37.279 -25.861 -12.374  0.00  0.00    +0.001 C 
ENDROOT
BRANCH   3  13
ATOM     12  O   UNL     1      34.152 -23.493 -18.734  0.00  0.00    -0.269 OA
ATOM     13  N   UNL     1      35.578 -22.262 -17.418  0.00  0.00    -0.294 N 
ATOM     14  C   UNL     1      34.789 -22.453 -18.554  0.00  0.00    +0.260 C 
ATOM     15  H   UNL     1      36.068 -21.414 -17.318  0.00  0.00    +0.150 HD
BRANCH  14  19
ATOM     16 CL   UNL     1      34.439 -16.755 -23.368  0.00  0.00    -0.075 Cl
ATOM     17  S   UNL     1      36.170 -18.535 -21.697  0.00  0.00    -0.061 S 
ATOM     18  N   UNL     1      35.880 -20.694 -19.918  0.00  0.00    -0.304 N 
ATOM     19  C   UNL     1      34.744 -21.329 -19.501  0.00  0.00    +0.103 C 
ATOM     20  C   UNL     1      33.625 -20.789 -20.068  0.00  0.00    +0.021 C 
ATOM     21  C   UNL     1      34.137 -19.775 -20.866  0.00  0.00    +0.022 C 
ATOM     22  C   UNL     1      35.471 -19.726 -20.771  0.00  0.00    +0.080 C 
ATOM     23  C   UNL     1      33.564 -18.832 -21.716  0.00  0.00    +0.020 C 
ATOM     24  C   UNL     1      34.584 -18.057 -22.261  0.00  0.00    +0.088 C 
ATOM     25  H   UNL     1      36.806 -20.899 -19.653  0.00  0.00    +0.153 HD
ENDBRANCH  14  19
ENDBRANCH   3  13
BRANCH   2  26
ATOM     26  C   UNL     1      33.630 -23.771 -13.210  0.00  0.00    +0.183 C 
BRANCH  26  29
ATOM     27  O   UNL     1      32.364 -25.567 -14.215  0.00  0.00    -0.273 OA
ATOM     28  N   UNL     1      31.419 -23.447 -14.082  0.00  0.00    -0.301 N 
ATOM     29  C   UNL     1      32.417 -24.388 -13.873  0.00  0.00    +0.243 C 
ATOM     30  H   UNL     1      31.569 -22.528 -13.765  0.00  0.00    +0.150 HD
BRANCH  28  31
ATOM     31  C   UNL     1      30.169 -23.750 -14.742  0.00  0.00    +0.121 C 
BRANCH  31  32
ATOM     32  C   UNL     1      29.892 -22.786 -15.880  0.00  0.00    +0.158 C 
BRANCH  32  33
ATOM     33  O   UNL     1      30.992 -22.790 -16.782  0.00  0.00    -0.380 OA
ATOM     34  H   UNL     1      30.734 -23.234 -17.605  0.00  0.00    +0.211 HD
ENDBRANCH  32  33
ENDBRANCH  31  32
ENDBRANCH  28  31
ENDBRANCH  26  29
ENDBRANCH   2  26
TORSDOF 7
ENDMDL
MODEL 3
REMARK VINA RESULT:      -9.6      1.657      2.034
REMARK  Name = 11987874
REMARK  7 active torsions:
REMARK  status: ('A' for Active; 'I' for Inactive)
REMARK    1  A    between atoms: N_2  and  C_26
REMARK    2  A    between atoms: C_3  and  N_13
REMARK    3  A    between atoms: C_14  and  C_19
REMARK    4  A    between atoms: C_26  and  C_29
REMARK    5  A    between atoms: N_28  and  C_31
REMARK    6  A    between atoms: C_31  and  C_32
REMARK    7  A    between atoms: C_32  and  O_33
REMARK                            x       y       z     vdW  Elec       q    Type
REMARK                         _______ _______ _______ _____ _____    ______ ____
ROOT
ATOM      1  O   UNL     1      32.958 -22.282 -19.488  0.00  0.00    -0.273 OA
ATOM      2  N   UNL     1      34.106 -23.184 -17.673  0.00  0.00    -0.249 N 
ATOM      3  C   UNL     1      35.276 -21.684 -19.251  0.00  0.00    +0.154 C 
ATOM      4  C   UNL     1      36.049 -21.125 -18.071  0.00  0.00    +0.057 C 
ATOM      5  C   UNL     1      36.272 -22.207 -17.057  0.00  0.00    -0.006 C 
ATOM      6  C   UNL     1      35.289 -23.193 -16.861  0.00  0.00    +0.050 C 
ATOM      7  C   UNL     1      33.986 -22.368 -18.810  0.00  0.00    +0.248 C 
ATOM      8  C   UNL     1      37.420 -22.181 -16.252  0.00  0.00    -0.003 C 
ATOM      9  C   UNL     1      35.488 -24.146 -15.848  0.00  0.00    +0.015 C 
ATOM     10  C   UNL     1      37.607 -23.141 -15.261  0.00  0.00    -0.000 C 
ATOM     11  C   UNL     1      36.642 -24.122 -15.060  0.00  0.00    +0.001 C 
ENDROOT
BRANCH   3  13
ATOM     12  O   UNL     1      37.060 -19.741 -20.244  0.00  0.00    -0.269 OA
ATOM     13  N   UNL     1      34.948 -20.644 -20.190  0.00  0.00    -0.294 N 
ATOM     14  C   UNL     1      35.892 -19.716 -20.635  0.00  0.00    +0.260 C 
ATOM     15  H   UNL     1      34.027 -20.584 -20.531  0.00  0.00    +0.150 HD
BRANCH  14  19
ATOM     16 CL   UNL     1      33.441 -14.653 -25.547  0.00  0.00    -0.075 Cl
ATOM     17  S   UNL     1      34.458 -17.431 -25.092  0.00  0.00    -0.061 S 
ATOM     18  N   UNL     1      35.320 -19.036 -22.949  0.00  0.00    -0.304 N 
ATOM     19  C   UNL     1      35.413 -18.735 -21.619  0.00  0.00    +0.103 C 
ATOM     20  C   UNL     1      35.013 -17.454 -21.362  0.00  0.00    +0.021 C 
ATOM     21  C   UNL     1      34.665 -16.977 -22.619  0.00  0.00    +0.022 C 
ATOM     22  C   UNL     1      34.851 -17.919 -23.552  0.00  0.00    +0.080 C 
ATOM     23  C   UNL     1      34.180 -15.759 -23.090  0.00  0.00    +0.020 C 
ATOM     24  C   UNL     1      34.012 -15.858 -24.468  0.00  0.00    +0.088 C 
ATOM     25  H   UNL     1      35.549 -19.891 -23.381  0.00  0.00    +0.153 HD
ENDBRANCH  14  19
ENDBRANCH   3  13
BRANCH   2  26
ATOM     26  C   UNL     1      32.986 -24.044 -17.298  0.00  0.00    +0.183 C 
BRANCH  26  29
ATOM     27  O   UNL     1      31.171 -22.514 -16.846  0.00  0.00    -0.273 OA
ATOM     28  N   UNL     1      32.293 -23.501 -15.066  0.00  0.00    -0.301 N 
ATOM     29  C   UNL     1      32.032 -23.274 -16.410  0.00  0.00    +0.243 C 
ATOM     30  H   UNL     1      33.009 -24.133 -14.829  0.00  0.00    +0.150 HD
BRANCH  28  31
ATOM     31  C   UNL     1      31.566 -22.855 -13.997  0.00  0.00    +0.121 C 
BRANCH  31  32
ATOM     32  C   UNL     1      30.515 -23.775 -13.403  0.00  0.00    +0.158 C 
BRANCH  32  33
ATOM     33  O   UNL     1      31.115 -25.016 -13.055  0.00  0.00    -0.380 OA
ATOM     34  H   UNL     1      31.075 -25.136 -12.093  0.00  0.00    +0.211 HD
ENDBRANCH  32  33
ENDBRANCH  31  32
ENDBRANCH  28  31
ENDBRANCH  26  29
ENDBRANCH   2  26
TORSDOF 7
ENDMDL
MODEL 4
REMARK VINA RESULT:      -9.5      5.804     11.139
REMARK  Name = 11987874
REMARK  7 active torsions:
REMARK  status: ('A' for Active; 'I' for Inactive)
REMARK    1  A    between atoms: N_2  and  C_26
REMARK    2  A    between atoms: C_3  and  N_13
REMARK    3  A    between atoms: C_14  and  C_19
REMARK    4  A    between atoms: C_26  and  C_29
REMARK    5  A    between atoms: N_28  and  C_31
REMARK    6  A    between atoms: C_31  and  C_32
REMARK    7  A    between atoms: C_32  and  O_33
REMARK                            x       y       z     vdW  Elec       q    Type
REMARK                         _______ _______ _______ _____ _____    ______ ____
ROOT
ATOM      1  O   UNL     1      34.202 -14.438 -21.219  0.00  0.00    -0.273 OA
ATOM      2  N   UNL     1      33.911 -13.287 -23.224  0.00  0.00    -0.249 N 
ATOM      3  C   UNL     1      34.385 -15.712 -23.251  0.00  0.00    +0.154 C 
ATOM      4  C   UNL     1      33.455 -15.832 -24.444  0.00  0.00    +0.057 C 
ATOM      5  C   UNL     1      33.537 -14.585 -25.273  0.00  0.00    -0.006 C 
ATOM      6  C   UNL     1      33.735 -13.342 -24.646  0.00  0.00    +0.050 C 
ATOM      7  C   UNL     1      34.120 -14.442 -22.451  0.00  0.00    +0.248 C 
ATOM      8  C   UNL     1      33.332 -14.655 -26.659  0.00  0.00    -0.003 C 
ATOM      9  C   UNL     1      33.727 -12.183 -25.440  0.00  0.00    +0.015 C 
ATOM     10  C   UNL     1      33.340 -13.497 -27.431  0.00  0.00    -0.000 C 
ATOM     11  C   UNL     1      33.536 -12.263 -26.822  0.00  0.00    +0.001 C 
ENDROOT
BRANCH   3  13
ATOM     12  O   UNL     1      35.644 -18.213 -23.581  0.00  0.00    -0.269 OA
ATOM     13  N   UNL     1      34.245 -16.846 -22.375  0.00  0.00    -0.294 N 
ATOM     14  C   UNL     1      34.904 -18.055 -22.608  0.00  0.00    +0.260 C 
ATOM     15  H   UNL     1      33.665 -16.767 -21.584  0.00  0.00    +0.150 HD
BRANCH  14  19
ATOM     16 CL   UNL     1      33.683 -23.390 -17.528  0.00  0.00    -0.075 Cl
ATOM     17  S   UNL     1      35.692 -21.775 -19.048  0.00  0.00    -0.061 S 
ATOM     18  N   UNL     1      35.730 -19.740 -20.988  0.00  0.00    -0.304 N 
ATOM     19  C   UNL     1      34.687 -19.108 -21.606  0.00  0.00    +0.103 C 
ATOM     20  C   UNL     1      33.481 -19.580 -21.170  0.00  0.00    +0.021 C 
ATOM     21  C   UNL     1      33.841 -20.547 -20.241  0.00  0.00    +0.022 C 
ATOM     22  C   UNL     1      35.173 -20.636 -20.141  0.00  0.00    +0.080 C 
ATOM     23  C   UNL     1      33.122 -21.414 -19.422  0.00  0.00    +0.020 C 
ATOM     24  C   UNL     1      34.028 -22.173 -18.687  0.00  0.00    +0.088 C 
ATOM     25  H   UNL     1      36.691 -19.577 -21.132  0.00  0.00    +0.153 HD
ENDBRANCH  14  19
ENDBRANCH   3  13
BRANCH   2  26
ATOM     26  C   UNL     1      33.860 -11.989 -22.556  0.00  0.00    +0.183 C 
BRANCH  26  29
ATOM     27  O   UNL     1      31.470 -12.234 -22.301  0.00  0.00    -0.273 OA
ATOM     28  N   UNL     1      32.350 -10.140 -22.793  0.00  0.00    -0.301 N 
ATOM     29  C   UNL     1      32.429 -11.497 -22.514  0.00  0.00    +0.243 C 
ATOM     30  H   UNL     1      33.186  -9.645 -22.948  0.00  0.00    +0.150 HD
BRANCH  28  31
ATOM     31  C   UNL     1      31.100  -9.418 -22.869  0.00  0.00    +0.121 C 
BRANCH  31  32
ATOM     32  C   UNL     1      31.328  -7.924 -23.006  0.00  0.00    +0.158 C 
BRANCH  32  33
ATOM     33  O   UNL     1      30.817  -7.480 -24.257  0.00  0.00    -0.380 OA
ATOM     34  H   UNL     1      31.459  -7.680 -24.957  0.00  0.00    +0.211 HD
ENDBRANCH  32  33
ENDBRANCH  31  32
ENDBRANCH  28  31
ENDBRANCH  26  29
ENDBRANCH   2  26
TORSDOF 7
ENDMDL
MODEL 5
REMARK VINA RESULT:      -9.5      5.453     10.649
REMARK  Name = 11987874
REMARK  7 active torsions:
REMARK  status: ('A' for Active; 'I' for Inactive)
REMARK    1  A    between atoms: N_2  and  C_26
REMARK    2  A    between atoms: C_3  and  N_13
REMARK    3  A    between atoms: C_14  and  C_19
REMARK    4  A    between atoms: C_26  and  C_29
REMARK    5  A    between atoms: N_28  and  C_31
REMARK    6  A    between atoms: C_31  and  C_32
REMARK    7  A    between atoms: C_32  and  O_33
REMARK                            x       y       z     vdW  Elec       q    Type
REMARK                         _______ _______ _______ _____ _____    ______ ____
ROOT
ATOM      1  O   UNL     1      34.101 -14.401 -21.233  0.00  0.00    -0.273 OA
ATOM      2  N   UNL     1      33.822 -13.262 -23.246  0.00  0.00    -0.249 N 
ATOM      3  C   UNL     1      34.360 -15.673 -23.258  0.00  0.00    +0.154 C 
ATOM      4  C   UNL     1      33.459 -15.820 -24.469  0.00  0.00    +0.057 C 
ATOM      5  C   UNL     1      33.525 -14.572 -25.300  0.00  0.00    -0.006 C 
ATOM      6  C   UNL     1      33.678 -13.323 -24.672  0.00  0.00    +0.050 C 
ATOM      7  C   UNL     1      34.045 -14.408 -22.466  0.00  0.00    +0.248 C 
ATOM      8  C   UNL     1      33.352 -14.650 -26.689  0.00  0.00    -0.003 C 
ATOM      9  C   UNL     1      33.655 -12.166 -25.468  0.00  0.00    +0.015 C 
ATOM     10  C   UNL     1      33.345 -13.494 -27.464  0.00  0.00    -0.000 C 
ATOM     11  C   UNL     1      33.496 -12.254 -26.854  0.00  0.00    +0.001 C 
ENDROOT
BRANCH   3  13
ATOM     12  O   UNL     1      35.624 -18.170 -23.603  0.00  0.00    -0.269 OA
ATOM     13  N   UNL     1      34.232 -16.809 -22.382  0.00  0.00    -0.294 N 
ATOM     14  C   UNL     1      34.893 -18.015 -22.623  0.00  0.00    +0.260 C 
ATOM     15  H   UNL     1      33.659 -16.733 -21.586  0.00  0.00    +0.150 HD
BRANCH  14  19
ATOM     16 CL   UNL     1      33.735 -23.361 -17.540  0.00  0.00    -0.075 Cl
ATOM     17  S   UNL     1      35.725 -21.743 -19.081  0.00  0.00    -0.061 S 
ATOM     18  N   UNL     1      35.739 -19.704 -21.017  0.00  0.00    -0.304 N 
ATOM     19  C   UNL     1      34.688 -19.070 -21.620  0.00  0.00    +0.103 C 
ATOM     20  C   UNL     1      33.488 -19.543 -21.170  0.00  0.00    +0.021 C 
ATOM     21  C   UNL     1      33.859 -20.512 -20.248  0.00  0.00    +0.022 C 
ATOM     22  C   UNL     1      35.192 -20.601 -20.165  0.00  0.00    +0.080 C 
ATOM     23  C   UNL     1      33.150 -21.381 -19.422  0.00  0.00    +0.020 C 
ATOM     24  C   UNL     1      34.065 -22.142 -18.700  0.00  0.00    +0.088 C 
ATOM     25  H   UNL     1      36.698 -19.541 -21.172  0.00  0.00    +0.153 HD
ENDBRANCH  14  19
ENDBRANCH   3  13
BRANCH   2  26
ATOM     26  C   UNL     1      33.723 -11.963 -22.583  0.00  0.00    +0.183 C 
BRANCH  26  29
ATOM     27  O   UNL     1      31.320 -11.725 -22.669  0.00  0.00    -0.273 OA
ATOM     28  N   UNL     1      32.390 -11.707 -20.605  0.00  0.00    -0.301 N 
ATOM     29  C   UNL     1      32.340 -11.803 -21.988  0.00  0.00    +0.243 C 
ATOM     30  H   UNL     1      33.265 -11.784 -20.162  0.00  0.00    +0.150 HD
BRANCH  28  31
ATOM     31  C   UNL     1      31.220 -11.499 -19.782  0.00  0.00    +0.121 C 
BRANCH  31  32
ATOM     32  C   UNL     1      31.250 -10.143 -19.103  0.00  0.00    +0.158 C 
BRANCH  32  33
ATOM     33  O   UNL     1      32.589  -9.664 -19.064  0.00  0.00    -0.380 OA
ATOM     34  H   UNL     1      32.809  -9.252 -19.915  0.00  0.00    +0.211 HD
ENDBRANCH  32  33
ENDBRANCH  31  32
ENDBRANCH  28  31
ENDBRANCH  26  29
ENDBRANCH   2  26
TORSDOF 7
ENDMDL
MODEL 6
REMARK VINA RESULT:      -9.0      6.384     11.224
REMARK  Name = 11987874
REMARK  7 active torsions:
REMARK  status: ('A' for Active; 'I' for Inactive)
REMARK    1  A    between atoms: N_2  and  C_26
REMARK    2  A    between atoms: C_3  and  N_13
REMARK    3  A    between atoms: C_14  and  C_19
REMARK    4  A    between atoms: C_26  and  C_29
REMARK    5  A    between atoms: N_28  and  C_31
REMARK    6  A    between atoms: C_31  and  C_32
REMARK    7  A    between atoms: C_32  and  O_33
REMARK                            x       y       z     vdW  Elec       q    Type
REMARK                         _______ _______ _______ _____ _____    ______ ____
ROOT
ATOM      1  O   UNL     1      31.847 -14.051 -20.337  0.00  0.00    -0.273 OA
ATOM      2  N   UNL     1      32.144 -12.341 -21.891  0.00  0.00    -0.249 N 
ATOM      3  C   UNL     1      33.703 -14.258 -21.852  0.00  0.00    +0.154 C 
ATOM      4  C   UNL     1      33.775 -14.169 -23.365  0.00  0.00    +0.057 C 
ATOM      5  C   UNL     1      33.645 -12.738 -23.792  0.00  0.00    -0.006 C 
ATOM      6  C   UNL     1      32.816 -11.865 -23.066  0.00  0.00    +0.050 C 
ATOM      7  C   UNL     1      32.453 -13.579 -21.302  0.00  0.00    +0.248 C 
ATOM      8  C   UNL     1      34.286 -12.298 -24.960  0.00  0.00    -0.003 C 
ATOM      9  C   UNL     1      32.650 -10.551 -23.536  0.00  0.00    +0.015 C 
ATOM     10  C   UNL     1      34.120 -10.989 -25.404  0.00  0.00    -0.000 C 
ATOM     11  C   UNL     1      33.303 -10.118 -24.693  0.00  0.00    +0.001 C 
ENDROOT
BRANCH   3  13
ATOM     12  O   UNL     1      35.532 -16.237 -22.680  0.00  0.00    -0.269 OA
ATOM     13  N   UNL     1      33.711 -15.630 -21.417  0.00  0.00    -0.294 N 
ATOM     14  C   UNL     1      34.654 -16.553 -21.875  0.00  0.00    +0.260 C 
ATOM     15  H   UNL     1      33.029 -15.929 -20.774  0.00  0.00    +0.150 HD
BRANCH  14  19
ATOM     16 CL   UNL     1      34.018 -23.425 -19.025  0.00  0.00    -0.075 Cl
ATOM     17  S   UNL     1      35.846 -21.219 -19.889  0.00  0.00    -0.061 S 
ATOM     18  N   UNL     1      35.661 -18.631 -20.974  0.00  0.00    -0.304 N 
ATOM     19  C   UNL     1      34.552 -17.907 -21.313  0.00  0.00    +0.103 C 
ATOM     20  C   UNL     1      33.401 -18.599 -21.061  0.00  0.00    +0.021 C 
ATOM     21  C   UNL     1      33.865 -19.801 -20.544  0.00  0.00    +0.022 C 
ATOM     22  C   UNL     1      35.203 -19.811 -20.497  0.00  0.00    +0.080 C 
ATOM     23  C   UNL     1      33.243 -20.958 -20.080  0.00  0.00    +0.020 C 
ATOM     24  C   UNL     1      34.229 -21.853 -19.676  0.00  0.00    +0.088 C 
ATOM     25  H   UNL     1      36.602 -18.351 -21.060  0.00  0.00    +0.153 HD
ENDBRANCH  14  19
ENDBRANCH   3  13
BRANCH   2  26
ATOM     26  C   UNL     1      31.096 -11.517 -21.294  0.00  0.00    +0.183 C 
BRANCH  26  29
ATOM     27  O   UNL     1      32.024 -10.934 -19.141  0.00  0.00    -0.273 OA
ATOM     28  N   UNL     1      31.811  -9.288 -20.769  0.00  0.00    -0.301 N 
ATOM     29  C   UNL     1      31.708 -10.580 -20.274  0.00  0.00    +0.243 C 
ATOM     30  H   UNL     1      31.528  -9.118 -21.695  0.00  0.00    +0.150 HD
BRANCH  28  31
ATOM     31  C   UNL     1      32.315  -8.179 -19.990  0.00  0.00    +0.121 C 
BRANCH  31  32
ATOM     32  C   UNL     1      32.246  -6.877 -20.766  0.00  0.00    +0.158 C 
BRANCH  32  33
ATOM     33  O   UNL     1      32.656  -7.104 -22.108  0.00  0.00    -0.380 OA
ATOM     34  H   UNL     1      33.560  -6.774 -22.230  0.00  0.00    +0.211 HD
ENDBRANCH  32  33
ENDBRANCH  31  32
ENDBRANCH  28  31
ENDBRANCH  26  29
ENDBRANCH   2  26
TORSDOF 7
ENDMDL
MODEL 7
REMARK VINA RESULT:      -8.8      4.638      9.347
REMARK  Name = 11987874
REMARK  7 active torsions:
REMARK  status: ('A' for Active; 'I' for Inactive)
REMARK    1  A    between atoms: N_2  and  C_26
REMARK    2  A    between atoms: C_3  and  N_13
REMARK    3  A    between atoms: C_14  and  C_19
REMARK    4  A    between atoms: C_26  and  C_29
REMARK    5  A    between atoms: N_28  and  C_31
REMARK    6  A    between atoms: C_31  and  C_32
REMARK    7  A    between atoms: C_32  and  O_33
REMARK                            x       y       z     vdW  Elec       q    Type
REMARK                         _______ _______ _______ _____ _____    ______ ____
ROOT
ATOM      1  O   UNL     1      35.363 -16.998 -19.739  0.00  0.00    -0.273 OA
ATOM      2  N   UNL     1      34.963 -16.561 -21.992  0.00  0.00    -0.249 N 
ATOM      3  C   UNL     1      35.526 -18.853 -21.261  0.00  0.00    +0.154 C 
ATOM      4  C   UNL     1      34.562 -19.373 -22.311  0.00  0.00    +0.057 C 
ATOM      5  C   UNL     1      34.570 -18.458 -23.499  0.00  0.00    -0.006 C 
ATOM      6  C   UNL     1      34.742 -17.075 -23.313  0.00  0.00    +0.050 C 
ATOM      7  C   UNL     1      35.241 -17.400 -20.899  0.00  0.00    +0.248 C 
ATOM      8  C   UNL     1      34.322 -18.975 -24.779  0.00  0.00    -0.003 C 
ATOM      9  C   UNL     1      34.664 -16.233 -24.435  0.00  0.00    +0.015 C 
ATOM     10  C   UNL     1      34.260 -18.127 -25.881  0.00  0.00    -0.000 C 
ATOM     11  C   UNL     1      34.430 -16.758 -25.709  0.00  0.00    +0.001 C 
ENDROOT
BRANCH   3  13
ATOM     12  O   UNL     1      36.841 -21.311 -20.839  0.00  0.00    -0.269 OA
ATOM     13  N   UNL     1      35.458 -19.648 -20.063  0.00  0.00    -0.294 N 
ATOM     14  C   UNL     1      36.141 -20.859 -19.931  0.00  0.00    +0.260 C 
ATOM     15  H   UNL     1      34.912 -19.327 -19.310  0.00  0.00    +0.150 HD
BRANCH  14  19
ATOM     16 CL   UNL     1      35.528 -24.277 -13.320  0.00  0.00    -0.075 Cl
ATOM     17  S   UNL     1      34.236 -23.603 -15.934  0.00  0.00    -0.061 S 
ATOM     18  N   UNL     1      34.856 -22.206 -18.295  0.00  0.00    -0.304 N 
ATOM     19  C   UNL     1      35.999 -21.538 -18.635  0.00  0.00    +0.103 C 
ATOM     20  C   UNL     1      36.934 -21.598 -17.641  0.00  0.00    +0.021 C 
ATOM     21  C   UNL     1      36.299 -22.346 -16.659  0.00  0.00    +0.022 C 
ATOM     22  C   UNL     1      35.070 -22.701 -17.054  0.00  0.00    +0.080 C 
ATOM     23  C   UNL     1      36.669 -22.788 -15.390  0.00  0.00    +0.020 C 
ATOM     24  C   UNL     1      35.608 -23.511 -14.853  0.00  0.00    +0.088 C 
ATOM     25  H   UNL     1      34.042 -22.306 -18.841  0.00  0.00    +0.153 HD
ENDBRANCH  14  19
ENDBRANCH   3  13
BRANCH   2  26
ATOM     26  C   UNL     1      34.886 -15.118 -21.774  0.00  0.00    +0.183 C 
BRANCH  26  29
ATOM     27  O   UNL     1      32.542 -15.348 -21.231  0.00  0.00    -0.273 OA
ATOM     28  N   UNL     1      33.252 -13.494 -22.440  0.00  0.00    -0.301 N 
ATOM     29  C   UNL     1      33.435 -14.686 -21.755  0.00  0.00    +0.243 C 
ATOM     30  H   UNL     1      34.041 -13.046 -22.821  0.00  0.00    +0.150 HD
BRANCH  28  31
ATOM     31  C   UNL     1      31.958 -12.875 -22.622  0.00  0.00    +0.121 C 
BRANCH  31  32
ATOM     32  C   UNL     1      31.693 -11.816 -21.567  0.00  0.00    +0.158 C 
BRANCH  32  33
ATOM     33  O   UNL     1      30.298 -11.543 -21.512  0.00  0.00    -0.380 OA
ATOM     34  H   UNL     1      29.849 -12.251 -21.023  0.00  0.00    +0.211 HD
ENDBRANCH  32  33
ENDBRANCH  31  32
ENDBRANCH  28  31
ENDBRANCH  26  29
ENDBRANCH   2  26
TORSDOF 7
ENDMDL
MODEL 8
REMARK VINA RESULT:      -8.6      5.028      8.845
REMARK  Name = 11987874
REMARK  7 active torsions:
REMARK  status: ('A' for Active; 'I' for Inactive)
REMARK    1  A    between atoms: N_2  and  C_26
REMARK    2  A    between atoms: C_3  and  N_13
REMARK    3  A    between atoms: C_14  and  C_19
REMARK    4  A    between atoms: C_26  and  C_29
REMARK    5  A    between atoms: N_28  and  C_31
REMARK    6  A    between atoms: C_31  and  C_32
REMARK    7  A    between atoms: C_32  and  O_33
REMARK                            x       y       z     vdW  Elec       q    Type
REMARK                         _______ _______ _______ _____ _____    ______ ____
ROOT
ATOM      1  O   UNL     1      34.783 -15.453 -20.487  0.00  0.00    -0.273 OA
ATOM      2  N   UNL     1      35.055 -17.298 -21.883  0.00  0.00    -0.249 N 
ATOM      3  C   UNL     1      33.565 -15.447 -22.560  0.00  0.00    +0.154 C 
ATOM      4  C   UNL     1      34.023 -15.665 -23.990  0.00  0.00    +0.057 C 
ATOM      5  C   UNL     1      34.302 -17.122 -24.212  0.00  0.00    -0.006 C 
ATOM      6  C   UNL     1      34.835 -17.897 -23.167  0.00  0.00    +0.050 C 
ATOM      7  C   UNL     1      34.551 -16.028 -21.553  0.00  0.00    +0.248 C 
ATOM      8  C   UNL     1      34.109 -17.683 -25.483  0.00  0.00    -0.003 C 
ATOM      9  C   UNL     1      35.162 -19.239 -23.427  0.00  0.00    +0.015 C 
ATOM     10  C   UNL     1      34.427 -19.018 -25.720  0.00  0.00    -0.000 C 
ATOM     11  C   UNL     1      34.954 -19.793 -24.693  0.00  0.00    +0.001 C 
ENDROOT
BRANCH   3  13
ATOM     12  O   UNL     1      31.964 -13.657 -24.038  0.00  0.00    -0.269 OA
ATOM     13  N   UNL     1      33.397 -14.044 -22.284  0.00  0.00    -0.294 N 
ATOM     14  C   UNL     1      32.583 -13.221 -23.066  0.00  0.00    +0.260 C 
ATOM     15  H   UNL     1      33.871 -13.651 -21.517  0.00  0.00    +0.150 HD
BRANCH  14  19
ATOM     16 CL   UNL     1      32.040  -6.130 -20.790  0.00  0.00    -0.075 Cl
ATOM     17  S   UNL     1      32.982  -8.030 -22.901  0.00  0.00    -0.061 S 
ATOM     18  N   UNL     1      32.985 -10.798 -23.398  0.00  0.00    -0.304 N 
ATOM     19  C   UNL     1      32.487 -11.819 -22.637  0.00  0.00    +0.103 C 
ATOM     20  C   UNL     1      31.920 -11.358 -21.483  0.00  0.00    +0.021 C 
ATOM     21  C   UNL     1      32.096  -9.984 -21.575  0.00  0.00    +0.022 C 
ATOM     22  C   UNL     1      32.728  -9.662 -22.710  0.00  0.00    +0.080 C 
ATOM     23  C   UNL     1      31.761  -8.910 -20.753  0.00  0.00    +0.020 C 
ATOM     24  C   UNL     1      32.196  -7.738 -21.366  0.00  0.00    +0.088 C 
ATOM     25  H   UNL     1      33.439 -10.874 -24.269  0.00  0.00    +0.153 HD
ENDBRANCH  14  19
ENDBRANCH   3  13
BRANCH   2  26
ATOM     26  C   UNL     1      35.837 -18.028 -20.888  0.00  0.00    +0.183 C 
BRANCH  26  29
ATOM     27  O   UNL     1      33.881 -19.408 -20.554  0.00  0.00    -0.273 OA
ATOM     28  N   UNL     1      35.977 -20.261 -20.023  0.00  0.00    -0.301 N 
ATOM     29  C   UNL     1      35.103 -19.293 -20.495  0.00  0.00    +0.243 C 
ATOM     30  H   UNL     1      36.941 -20.061 -20.021  0.00  0.00    +0.150 HD
BRANCH  28  31
ATOM     31  C   UNL     1      35.543 -21.550 -19.533  0.00  0.00    +0.121 C 
BRANCH  31  32
ATOM     32  C   UNL     1      36.186 -21.885 -18.200  0.00  0.00    +0.158 C 
BRANCH  32  33
ATOM     33  O   UNL     1      35.322 -22.737 -17.459  0.00  0.00    -0.380 OA
ATOM     34  H   UNL     1      34.768 -22.201 -16.869  0.00  0.00    +0.211 HD
ENDBRANCH  32  33
ENDBRANCH  31  32
ENDBRANCH  28  31
ENDBRANCH  26  29
ENDBRANCH   2  26
TORSDOF 7
ENDMDL
MODEL 9
REMARK VINA RESULT:      -8.0      9.530     13.623
REMARK  Name = 11987874
REMARK  7 active torsions:
REMARK  status: ('A' for Active; 'I' for Inactive)
REMARK    1  A    between atoms: N_2  and  C_26
REMARK    2  A    between atoms: C_3  and  N_13
REMARK    3  A    between atoms: C_14  and  C_19
REMARK    4  A    between atoms: C_26  and  C_29
REMARK    5  A    between atoms: N_28  and  C_31
REMARK    6  A    between atoms: C_31  and  C_32
REMARK    7  A    between atoms: C_32  and  O_33
REMARK                            x       y       z     vdW  Elec       q    Type
REMARK                         _______ _______ _______ _____ _____    ______ ____
ROOT
ATOM      1  O   UNL     1      32.747 -10.423 -24.681  0.00  0.00    -0.273 OA
ATOM      2  N   UNL     1      32.201 -11.217 -22.560  0.00  0.00    -0.249 N 
ATOM      3  C   UNL     1      32.952  -8.880 -22.848  0.00  0.00    +0.154 C 
ATOM      4  C   UNL     1      31.971  -8.481 -21.762  0.00  0.00    +0.057 C 
ATOM      5  C   UNL     1      31.856  -9.589 -20.756  0.00  0.00    -0.006 C 
ATOM      6  C   UNL     1      31.945 -10.927 -21.179  0.00  0.00    +0.050 C 
ATOM      7  C   UNL     1      32.590 -10.223 -23.474  0.00  0.00    +0.248 C 
ATOM      8  C   UNL     1      31.576  -9.286 -19.416  0.00  0.00    -0.003 C 
ATOM      9  C   UNL     1      31.753 -11.944 -20.228  0.00  0.00    +0.015 C 
ATOM     10  C   UNL     1      31.401 -10.307 -18.485  0.00  0.00    -0.000 C 
ATOM     11  C   UNL     1      31.489 -11.633 -18.892  0.00  0.00    +0.001 C 
ENDROOT
BRANCH   3  13
ATOM     12  O   UNL     1      35.180  -7.277 -23.492  0.00  0.00    -0.269 OA
ATOM     13  N   UNL     1      32.999  -7.885 -23.887  0.00  0.00    -0.294 N 
ATOM     14  C   UNL     1      34.145  -7.130 -24.145  0.00  0.00    +0.260 C 
ATOM     15  H   UNL     1      32.197  -7.732 -24.436  0.00  0.00    +0.150 HD
BRANCH  14  19
ATOM     16 CL   UNL     1      33.763  -2.314 -29.839  0.00  0.00    -0.075 Cl
ATOM     17  S   UNL     1      32.369  -3.571 -27.509  0.00  0.00    -0.061 S 
ATOM     18  N   UNL     1      32.909  -5.459 -25.496  0.00  0.00    -0.304 N 
ATOM     19  C   UNL     1      34.048  -6.177 -25.261  0.00  0.00    +0.103 C 
ATOM     20  C   UNL     1      35.025  -5.887 -26.170  0.00  0.00    +0.021 C 
ATOM     21  C   UNL     1      34.421  -4.941 -26.987  0.00  0.00    +0.022 C 
ATOM     22  C   UNL     1      33.169  -4.695 -26.582  0.00  0.00    +0.080 C 
ATOM     23  C   UNL     1      34.838  -4.223 -28.105  0.00  0.00    +0.020 C 
ATOM     24  C   UNL     1      33.789  -3.405 -28.516  0.00  0.00    +0.088 C 
ATOM     25  H   UNL     1      32.070  -5.491 -24.981  0.00  0.00    +0.153 HD
ENDBRANCH  14  19
ENDBRANCH   3  13
BRANCH   2  26
ATOM     26  C   UNL     1      32.040 -12.589 -23.034  0.00  0.00    +0.183 C 
BRANCH  26  29
ATOM     27  O   UNL     1      34.232 -13.141 -23.889  0.00  0.00    -0.273 OA
ATOM     28  N   UNL     1      33.490 -14.147 -21.929  0.00  0.00    -0.301 N 
ATOM     29  C   UNL     1      33.381 -13.292 -23.016  0.00  0.00    +0.243 C 
ATOM     30  H   UNL     1      32.745 -14.189 -21.289  0.00  0.00    +0.150 HD
BRANCH  28  31
ATOM     31  C   UNL     1      34.646 -14.982 -21.691  0.00  0.00    +0.121 C 
BRANCH  31  32
ATOM     32  C   UNL     1      34.657 -16.193 -22.606  0.00  0.00    +0.158 C 
BRANCH  32  33
ATOM     33  O   UNL     1      35.615 -15.996 -23.639  0.00  0.00    -0.380 OA
ATOM     34  H   UNL     1      35.215 -16.216 -24.496  0.00  0.00    +0.211 HD
ENDBRANCH  32  33
ENDBRANCH  31  32
ENDBRANCH  28  31
ENDBRANCH  26  29
ENDBRANCH   2  26
TORSDOF 7
ENDMDL
