MODEL 1
REMARK VINA RESULT:     -10.7      0.000      0.000
REMARK  Name = 447700
REMARK  4 active torsions:
REMARK  status: ('A' for Active; 'I' for Inactive)
REMARK    1  A    between atoms: N_4  and  C_23
REMARK    2  A    between atoms: C_7  and  C_17
REMARK    3  A    between atoms: C_25  and  C_29
REMARK    4  A    between atoms: C_29  and  O_30
REMARK                            x       y       z     vdW  Elec       q    Type
REMARK                         _______ _______ _______ _____ _____    ______ ____
ROOT
ATOM      1  O   UNL     1      37.084 -18.633 -21.738  0.00  0.00    -0.270 OA
ATOM      2  N   UNL     1      36.150 -20.112 -20.211  0.00  0.00    -0.228 N 
ATOM      3  N   UNL     1      35.101 -21.614 -18.645  0.00  0.00    -0.322 NA
ATOM      4  N   UNL     1      34.072 -23.073 -17.122  0.00  0.00    -0.247 N 
ATOM      5  N   UNL     1      32.731 -22.016 -18.728  0.00  0.00    -0.170 NA
ATOM      6  C   UNL     1      34.990 -20.768 -19.699  0.00  0.00    +0.204 C 
ATOM      7  C   UNL     1      34.754 -18.986 -21.913  0.00  0.00    +0.056 C 
ATOM      8  C   UNL     1      33.768 -20.512 -20.302  0.00  0.00    +0.065 C 
ATOM      9  C   UNL     1      36.099 -19.224 -21.288  0.00  0.00    +0.255 C 
ATOM     10  C   UNL     1      33.667 -19.606 -21.431  0.00  0.00    +0.010 C 
ATOM     11  C   UNL     1      37.422 -20.399 -19.553  0.00  0.00    +0.123 C 
ATOM     12  C   UNL     1      32.667 -21.167 -19.773  0.00  0.00    +0.116 C 
ATOM     13  C   UNL     1      33.962 -22.191 -18.220  0.00  0.00    +0.150 C 
ATOM     14  H   UNL     1      33.214 -23.471 -16.847  0.00  0.00    +0.165 HD
ENDROOT
BRANCH   7  17
ATOM     15 CL   UNL     1      34.911 -20.281 -24.687  0.00  0.00    -0.082 Cl
ATOM     16 CL   UNL     1      34.331 -16.012 -21.301  0.00  0.00    -0.082 Cl
ATOM     17  C   UNL     1      34.613 -18.086 -23.072  0.00  0.00    +0.026 C 
ATOM     18  C   UNL     1      34.673 -18.595 -24.373  0.00  0.00    +0.059 C 
ATOM     19  C   UNL     1      34.417 -16.713 -22.881  0.00  0.00    +0.059 C 
ATOM     20  C   UNL     1      34.541 -17.744 -25.470  0.00  0.00    +0.011 C 
ATOM     21  C   UNL     1      34.284 -15.862 -23.977  0.00  0.00    +0.011 C 
ATOM     22  C   UNL     1      34.346 -16.377 -25.273  0.00  0.00    +0.002 C 
ENDBRANCH   7  17
BRANCH   4  23
ATOM     23  C   UNL     1      35.168 -23.494 -16.347  0.00  0.00    +0.057 C 
ATOM     24  C   UNL     1      35.364 -24.852 -16.088  0.00  0.00    +0.013 C 
ATOM     25  C   UNL     1      36.451 -25.268 -15.319  0.00  0.00    +0.008 C 
ATOM     26  C   UNL     1      36.063 -22.553 -15.832  0.00  0.00    +0.015 C 
ATOM     27  C   UNL     1      37.344 -24.327 -14.807  0.00  0.00    -0.002 C 
ATOM     28  C   UNL     1      37.151 -22.970 -15.064  0.00  0.00    +0.001 C 
BRANCH  25  29
ATOM     29  C   UNL     1      36.658 -26.719 -15.043  0.00  0.00    +0.164 C 
BRANCH  29  30
ATOM     30  O   UNL     1      36.888 -27.404 -16.268  0.00  0.00    -0.377 OA
ATOM     31  H   UNL     1      37.603 -28.049 -16.150  0.00  0.00    +0.211 HD
ENDBRANCH  29  30
ENDBRANCH  25  29
ENDBRANCH   4  23
TORSDOF 4
ENDMDL
MODEL 2
REMARK VINA RESULT:     -10.7      0.006      1.696
REMARK  Name = 447700
REMARK  4 active torsions:
REMARK  status: ('A' for Active; 'I' for Inactive)
REMARK    1  A    between atoms: N_4  and  C_23
REMARK    2  A    between atoms: C_7  and  C_17
REMARK    3  A    between atoms: C_25  and  C_29
REMARK    4  A    between atoms: C_29  and  O_30
REMARK                            x       y       z     vdW  Elec       q    Type
REMARK                         _______ _______ _______ _____ _____    ______ ____
ROOT
ATOM      1  O   UNL     1      37.087 -18.634 -21.737  0.00  0.00    -0.270 OA
ATOM      2  N   UNL     1      36.153 -20.112 -20.209  0.00  0.00    -0.228 N 
ATOM      3  N   UNL     1      35.105 -21.613 -18.642  0.00  0.00    -0.322 NA
ATOM      4  N   UNL     1      34.075 -23.070 -17.118  0.00  0.00    -0.247 N 
ATOM      5  N   UNL     1      32.733 -22.012 -18.722  0.00  0.00    -0.170 NA
ATOM      6  C   UNL     1      34.994 -20.767 -19.695  0.00  0.00    +0.204 C 
ATOM      7  C   UNL     1      34.757 -18.985 -21.910  0.00  0.00    +0.056 C 
ATOM      8  C   UNL     1      33.771 -20.510 -20.297  0.00  0.00    +0.065 C 
ATOM      9  C   UNL     1      36.103 -19.224 -21.286  0.00  0.00    +0.255 C 
ATOM     10  C   UNL     1      33.670 -19.604 -21.427  0.00  0.00    +0.010 C 
ATOM     11  C   UNL     1      37.426 -20.400 -19.551  0.00  0.00    +0.123 C 
ATOM     12  C   UNL     1      32.670 -21.164 -19.768  0.00  0.00    +0.116 C 
ATOM     13  C   UNL     1      33.965 -22.189 -18.216  0.00  0.00    +0.150 C 
ATOM     14  H   UNL     1      33.217 -23.468 -16.841  0.00  0.00    +0.165 HD
ENDROOT
BRANCH   7  17
ATOM     15 CL   UNL     1      34.344 -16.010 -21.299  0.00  0.00    -0.082 Cl
ATOM     16 CL   UNL     1      34.908 -20.282 -24.682  0.00  0.00    -0.082 Cl
ATOM     17  C   UNL     1      34.616 -18.085 -23.069  0.00  0.00    +0.026 C 
ATOM     18  C   UNL     1      34.423 -16.713 -22.879  0.00  0.00    +0.059 C 
ATOM     19  C   UNL     1      34.673 -18.596 -24.371  0.00  0.00    +0.059 C 
ATOM     20  C   UNL     1      34.288 -15.861 -23.975  0.00  0.00    +0.011 C 
ATOM     21  C   UNL     1      34.538 -17.745 -25.467  0.00  0.00    +0.011 C 
ATOM     22  C   UNL     1      34.346 -16.377 -25.270  0.00  0.00    +0.002 C 
ENDBRANCH   7  17
BRANCH   4  23
ATOM     23  C   UNL     1      35.171 -23.493 -16.343  0.00  0.00    +0.057 C 
ATOM     24  C   UNL     1      35.369 -24.851 -16.088  0.00  0.00    +0.013 C 
ATOM     25  C   UNL     1      36.456 -25.267 -15.320  0.00  0.00    +0.008 C 
ATOM     26  C   UNL     1      36.065 -22.552 -15.825  0.00  0.00    +0.015 C 
ATOM     27  C   UNL     1      37.347 -24.327 -14.805  0.00  0.00    -0.002 C 
ATOM     28  C   UNL     1      37.153 -22.969 -15.058  0.00  0.00    +0.001 C 
BRANCH  25  29
ATOM     29  C   UNL     1      36.664 -26.719 -15.048  0.00  0.00    +0.164 C 
BRANCH  29  30
ATOM     30  O   UNL     1      36.885 -27.403 -16.276  0.00  0.00    -0.377 OA
ATOM     31  H   UNL     1      36.856 -26.769 -17.009  0.00  0.00    +0.211 HD
ENDBRANCH  29  30
ENDBRANCH  25  29
ENDBRANCH   4  23
TORSDOF 4
ENDMDL
MODEL 3
REMARK VINA RESULT:     -10.4      4.846     10.724
REMARK  Name = 447700
REMARK  4 active torsions:
REMARK  status: ('A' for Active; 'I' for Inactive)
REMARK    1  A    between atoms: N_4  and  C_23
REMARK    2  A    between atoms: C_7  and  C_17
REMARK    3  A    between atoms: C_25  and  C_29
REMARK    4  A    between atoms: C_29  and  O_30
REMARK                            x       y       z     vdW  Elec       q    Type
REMARK                         _______ _______ _______ _____ _____    ______ ____
ROOT
ATOM      1  O   UNL     1      35.213 -16.678 -19.648  0.00  0.00    -0.270 OA
ATOM      2  N   UNL     1      34.731 -15.350 -21.490  0.00  0.00    -0.228 N 
ATOM      3  N   UNL     1      34.244 -14.040 -23.454  0.00  0.00    -0.322 NA
ATOM      4  N   UNL     1      33.773 -12.773 -25.372  0.00  0.00    -0.247 N 
ATOM      5  N   UNL     1      33.750 -15.109 -25.552  0.00  0.00    -0.170 NA
ATOM      6  C   UNL     1      34.395 -15.256 -22.875  0.00  0.00    +0.204 C 
ATOM      7  C   UNL     1      34.713 -17.817 -21.658  0.00  0.00    +0.056 C 
ATOM      8  C   UNL     1      34.233 -16.431 -23.593  0.00  0.00    +0.065 C 
ATOM      9  C   UNL     1      34.906 -16.572 -20.838  0.00  0.00    +0.255 C 
ATOM     10  C   UNL     1      34.393 -17.725 -22.957  0.00  0.00    +0.010 C 
ATOM     11  C   UNL     1      34.898 -14.095 -20.761  0.00  0.00    +0.123 C 
ATOM     12  C   UNL     1      33.909 -16.297 -24.934  0.00  0.00    +0.116 C 
ATOM     13  C   UNL     1      33.929 -14.037 -24.763  0.00  0.00    +0.150 C 
ATOM     14  H   UNL     1      33.543 -12.819 -26.328  0.00  0.00    +0.165 HD
ENDROOT
BRANCH   7  17
ATOM     15 CL   UNL     1      37.548 -18.970 -21.496  0.00  0.00    -0.082 Cl
ATOM     16 CL   UNL     1      32.134 -19.148 -20.672  0.00  0.00    -0.082 Cl
ATOM     17  C   UNL     1      34.850 -19.150 -21.043  0.00  0.00    +0.026 C 
ATOM     18  C   UNL     1      36.109 -19.749 -20.932  0.00  0.00    +0.059 C 
ATOM     19  C   UNL     1      33.722 -19.827 -20.567  0.00  0.00    +0.059 C 
ATOM     20  C   UNL     1      36.239 -21.011 -20.352  0.00  0.00    +0.011 C 
ATOM     21  C   UNL     1      33.852 -21.089 -19.987  0.00  0.00    +0.011 C 
ATOM     22  C   UNL     1      35.111 -21.681 -19.879  0.00  0.00    +0.002 C 
ENDBRANCH   7  17
BRANCH   4  23
ATOM     23  C   UNL     1      33.881 -11.459 -24.878  0.00  0.00    +0.057 C 
ATOM     24  C   UNL     1      32.929 -10.965 -23.984  0.00  0.00    +0.013 C 
ATOM     25  C   UNL     1      33.037  -9.663 -23.496  0.00  0.00    +0.008 C 
ATOM     26  C   UNL     1      34.941 -10.644 -25.283  0.00  0.00    +0.015 C 
ATOM     27  C   UNL     1      34.097  -8.852 -23.901  0.00  0.00    -0.002 C 
ATOM     28  C   UNL     1      35.049  -9.343 -24.794  0.00  0.00    +0.001 C 
BRANCH  25  29
ATOM     29  C   UNL     1      32.019  -9.138 -22.541  0.00  0.00    +0.164 C 
BRANCH  29  30
ATOM     30  O   UNL     1      32.676  -8.493 -21.457  0.00  0.00    -0.377 OA
ATOM     31  H   UNL     1      32.430  -8.927 -20.625  0.00  0.00    +0.211 HD
ENDBRANCH  29  30
ENDBRANCH  25  29
ENDBRANCH   4  23
TORSDOF 4
ENDMDL
MODEL 4
REMARK VINA RESULT:     -10.4      4.893     10.802
REMARK  Name = 447700
REMARK  4 active torsions:
REMARK  status: ('A' for Active; 'I' for Inactive)
REMARK    1  A    between atoms: N_4  and  C_23
REMARK    2  A    between atoms: C_7  and  C_17
REMARK    3  A    between atoms: C_25  and  C_29
REMARK    4  A    between atoms: C_29  and  O_30
REMARK                            x       y       z     vdW  Elec       q    Type
REMARK                         _______ _______ _______ _____ _____    ______ ____
ROOT
ATOM      1  O   UNL     1      35.225 -16.704 -19.650  0.00  0.00    -0.270 OA
ATOM      2  N   UNL     1      34.741 -15.396 -21.506  0.00  0.00    -0.228 N 
ATOM      3  N   UNL     1      34.252 -14.108 -23.483  0.00  0.00    -0.322 NA
ATOM      4  N   UNL     1      33.779 -12.861 -25.414  0.00  0.00    -0.247 N 
ATOM      5  N   UNL     1      33.781 -15.200 -25.575  0.00  0.00    -0.170 NA
ATOM      6  C   UNL     1      34.412 -15.318 -22.892  0.00  0.00    +0.204 C 
ATOM      7  C   UNL     1      34.749 -17.864 -21.652  0.00  0.00    +0.056 C 
ATOM      8  C   UNL     1      34.266 -16.500 -23.602  0.00  0.00    +0.065 C 
ATOM      9  C   UNL     1      34.925 -16.611 -20.842  0.00  0.00    +0.255 C 
ATOM     10  C   UNL     1      34.436 -17.787 -22.954  0.00  0.00    +0.010 C 
ATOM     11  C   UNL     1      34.890 -14.134 -20.786  0.00  0.00    +0.123 C 
ATOM     12  C   UNL     1      33.949 -16.380 -24.946  0.00  0.00    +0.116 C 
ATOM     13  C   UNL     1      33.945 -14.120 -24.794  0.00  0.00    +0.150 C 
ATOM     14  H   UNL     1      33.555 -12.918 -26.372  0.00  0.00    +0.165 HD
ENDROOT
BRANCH   7  17
ATOM     15 CL   UNL     1      32.178 -19.217 -20.674  0.00  0.00    -0.082 Cl
ATOM     16 CL   UNL     1      37.595 -18.986 -21.464  0.00  0.00    -0.082 Cl
ATOM     17  C   UNL     1      34.896 -19.191 -21.026  0.00  0.00    +0.026 C 
ATOM     18  C   UNL     1      33.774 -19.877 -20.551  0.00  0.00    +0.059 C 
ATOM     19  C   UNL     1      36.162 -19.775 -20.901  0.00  0.00    +0.059 C 
ATOM     20  C   UNL     1      33.913 -21.131 -19.958  0.00  0.00    +0.011 C 
ATOM     21  C   UNL     1      36.302 -21.030 -20.307  0.00  0.00    +0.011 C 
ATOM     22  C   UNL     1      35.177 -21.708 -19.836  0.00  0.00    +0.002 C 
ENDBRANCH   7  17
BRANCH   4  23
ATOM     23  C   UNL     1      33.871 -11.543 -24.931  0.00  0.00    +0.057 C 
ATOM     24  C   UNL     1      32.908 -11.051 -24.047  0.00  0.00    +0.013 C 
ATOM     25  C   UNL     1      33.000  -9.744 -23.569  0.00  0.00    +0.008 C 
ATOM     26  C   UNL     1      34.925 -10.721 -25.336  0.00  0.00    +0.015 C 
ATOM     27  C   UNL     1      34.054  -8.926 -23.974  0.00  0.00    -0.002 C 
ATOM     28  C   UNL     1      35.017  -9.414 -24.857  0.00  0.00    +0.001 C 
BRANCH  25  29
ATOM     29  C   UNL     1      31.971  -9.221 -22.625  0.00  0.00    +0.164 C 
BRANCH  29  30
ATOM     30  O   UNL     1      31.119  -8.312 -23.312  0.00  0.00    -0.377 OA
ATOM     31  H   UNL     1      31.610  -7.501 -23.517  0.00  0.00    +0.211 HD
ENDBRANCH  29  30
ENDBRANCH  25  29
ENDBRANCH   4  23
TORSDOF 4
ENDMDL
MODEL 5
REMARK VINA RESULT:     -10.0      8.216     13.738
REMARK  Name = 447700
REMARK  4 active torsions:
REMARK  status: ('A' for Active; 'I' for Inactive)
REMARK    1  A    between atoms: N_4  and  C_23
REMARK    2  A    between atoms: C_7  and  C_17
REMARK    3  A    between atoms: C_25  and  C_29
REMARK    4  A    between atoms: C_29  and  O_30
REMARK                            x       y       z     vdW  Elec       q    Type
REMARK                         _______ _______ _______ _____ _____    ______ ____
ROOT
ATOM      1  O   UNL     1      31.899 -14.054 -22.260  0.00  0.00    -0.270 OA
ATOM      2  N   UNL     1      32.389 -11.835 -22.739  0.00  0.00    -0.228 N 
ATOM      3  N   UNL     1      32.974  -9.558 -23.266  0.00  0.00    -0.322 NA
ATOM      4  N   UNL     1      33.554  -7.343 -23.782  0.00  0.00    -0.247 N 
ATOM      5  N   UNL     1      34.799  -9.073 -24.758  0.00  0.00    -0.170 NA
ATOM      6  C   UNL     1      33.203 -10.884 -23.424  0.00  0.00    +0.204 C 
ATOM      7  C   UNL     1      33.688 -13.676 -23.757  0.00  0.00    +0.056 C 
ATOM      8  C   UNL     1      34.221 -11.356 -24.240  0.00  0.00    +0.065 C 
ATOM      9  C   UNL     1      32.579 -13.214 -22.855  0.00  0.00    +0.255 C 
ATOM     10  C   UNL     1      34.450 -12.780 -24.402  0.00  0.00    +0.010 C 
ATOM     11  C   UNL     1      31.328 -11.308 -21.884  0.00  0.00    +0.123 C 
ATOM     12  C   UNL     1      34.990 -10.401 -24.886  0.00  0.00    +0.116 C 
ATOM     13  C   UNL     1      33.788  -8.727 -23.945  0.00  0.00    +0.150 C 
ATOM     14  H   UNL     1      34.172  -6.774 -24.296  0.00  0.00    +0.165 HD
ENDROOT
BRANCH   7  17
ATOM     15 CL   UNL     1      34.823 -15.223 -21.367  0.00  0.00    -0.082 Cl
ATOM     16 CL   UNL     1      33.025 -14.810 -26.526  0.00  0.00    -0.082 Cl
ATOM     17  C   UNL     1      33.942 -15.114 -23.960  0.00  0.00    +0.026 C 
ATOM     18  C   UNL     1      34.460 -15.893 -22.921  0.00  0.00    +0.059 C 
ATOM     19  C   UNL     1      33.666 -15.711 -25.196  0.00  0.00    +0.059 C 
ATOM     20  C   UNL     1      34.702 -17.253 -23.113  0.00  0.00    +0.011 C 
ATOM     21  C   UNL     1      33.907 -17.071 -25.388  0.00  0.00    +0.011 C 
ATOM     22  C   UNL     1      34.425 -17.843 -24.347  0.00  0.00    +0.002 C 
ENDBRANCH   7  17
BRANCH   4  23
ATOM     23  C   UNL     1      32.610  -6.619 -23.029  0.00  0.00    +0.057 C 
ATOM     24  C   UNL     1      32.099  -5.415 -23.516  0.00  0.00    +0.013 C 
ATOM     25  C   UNL     1      31.164  -4.699 -22.769  0.00  0.00    +0.008 C 
ATOM     26  C   UNL     1      32.183  -7.104 -21.791  0.00  0.00    +0.015 C 
ATOM     27  C   UNL     1      30.739  -5.185 -21.533  0.00  0.00    -0.002 C 
ATOM     28  C   UNL     1      31.247  -6.389 -21.044  0.00  0.00    +0.001 C 
BRANCH  25  29
ATOM     29  C   UNL     1      30.620  -3.412 -23.291  0.00  0.00    +0.164 C 
BRANCH  29  30
ATOM     30  O   UNL     1      30.047  -2.673 -22.219  0.00  0.00    -0.377 OA
ATOM     31  H   UNL     1      30.206  -3.138 -21.383  0.00  0.00    +0.211 HD
ENDBRANCH  29  30
ENDBRANCH  25  29
ENDBRANCH   4  23
TORSDOF 4
ENDMDL
MODEL 6
REMARK VINA RESULT:     -10.0      8.212     13.683
REMARK  Name = 447700
REMARK  4 active torsions:
REMARK  status: ('A' for Active; 'I' for Inactive)
REMARK    1  A    between atoms: N_4  and  C_23
REMARK    2  A    between atoms: C_7  and  C_17
REMARK    3  A    between atoms: C_25  and  C_29
REMARK    4  A    between atoms: C_29  and  O_30
REMARK                            x       y       z     vdW  Elec       q    Type
REMARK                         _______ _______ _______ _____ _____    ______ ____
ROOT
ATOM      1  O   UNL     1      31.902 -14.058 -22.263  0.00  0.00    -0.270 OA
ATOM      2  N   UNL     1      32.392 -11.838 -22.737  0.00  0.00    -0.228 N 
ATOM      3  N   UNL     1      32.979  -9.560 -23.260  0.00  0.00    -0.322 NA
ATOM      4  N   UNL     1      33.560  -7.345 -23.772  0.00  0.00    -0.247 N 
ATOM      5  N   UNL     1      34.811  -9.073 -24.741  0.00  0.00    -0.170 NA
ATOM      6  C   UNL     1      33.210 -10.887 -23.418  0.00  0.00    +0.204 C 
ATOM      7  C   UNL     1      33.699 -13.678 -23.749  0.00  0.00    +0.056 C 
ATOM      8  C   UNL     1      34.232 -11.357 -24.228  0.00  0.00    +0.065 C 
ATOM      9  C   UNL     1      32.584 -13.217 -22.853  0.00  0.00    +0.255 C 
ATOM     10  C   UNL     1      34.463 -12.781 -24.390  0.00  0.00    +0.010 C 
ATOM     11  C   UNL     1      31.326 -11.312 -21.888  0.00  0.00    +0.123 C 
ATOM     12  C   UNL     1      35.004 -10.401 -24.869  0.00  0.00    +0.116 C 
ATOM     13  C   UNL     1      33.795  -8.728 -23.934  0.00  0.00    +0.150 C 
ATOM     14  H   UNL     1      34.180  -6.775 -24.282  0.00  0.00    +0.165 HD
ENDROOT
BRANCH   7  17
ATOM     15 CL   UNL     1      33.057 -14.810 -26.524  0.00  0.00    -0.082 Cl
ATOM     16 CL   UNL     1      34.819 -15.225 -21.353  0.00  0.00    -0.082 Cl
ATOM     17  C   UNL     1      33.955 -15.115 -23.952  0.00  0.00    +0.026 C 
ATOM     18  C   UNL     1      33.688 -15.712 -25.188  0.00  0.00    +0.059 C 
ATOM     19  C   UNL     1      34.466 -15.895 -22.908  0.00  0.00    +0.059 C 
ATOM     20  C   UNL     1      33.929 -17.072 -25.380  0.00  0.00    +0.011 C 
ATOM     21  C   UNL     1      34.707 -17.256 -23.100  0.00  0.00    +0.011 C 
ATOM     22  C   UNL     1      34.439 -17.845 -24.336  0.00  0.00    +0.002 C 
ENDBRANCH   7  17
BRANCH   4  23
ATOM     23  C   UNL     1      32.611  -6.622 -23.024  0.00  0.00    +0.057 C 
ATOM     24  C   UNL     1      32.084  -5.430 -23.523  0.00  0.00    +0.013 C 
ATOM     25  C   UNL     1      31.145  -4.716 -22.781  0.00  0.00    +0.008 C 
ATOM     26  C   UNL     1      32.196  -7.096 -21.777  0.00  0.00    +0.015 C 
ATOM     27  C   UNL     1      30.730  -5.191 -21.537  0.00  0.00    -0.002 C 
ATOM     28  C   UNL     1      31.255  -6.382 -21.035  0.00  0.00    +0.001 C 
BRANCH  25  29
ATOM     29  C   UNL     1      30.583  -3.442 -23.317  0.00  0.00    +0.164 C 
BRANCH  29  30
ATOM     30  O   UNL     1      30.079  -2.659 -22.241  0.00  0.00    -0.377 OA
ATOM     31  H   UNL     1      29.135  -2.487 -22.379  0.00  0.00    +0.211 HD
ENDBRANCH  29  30
ENDBRANCH  25  29
ENDBRANCH   4  23
TORSDOF 4
ENDMDL
MODEL 7
REMARK VINA RESULT:      -9.7      7.532     12.896
REMARK  Name = 447700
REMARK  4 active torsions:
REMARK  status: ('A' for Active; 'I' for Inactive)
REMARK    1  A    between atoms: N_4  and  C_23
REMARK    2  A    between atoms: C_7  and  C_17
REMARK    3  A    between atoms: C_25  and  C_29
REMARK    4  A    between atoms: C_29  and  O_30
REMARK                            x       y       z     vdW  Elec       q    Type
REMARK                         _______ _______ _______ _____ _____    ______ ____
ROOT
ATOM      1  O   UNL     1      32.102 -14.477 -22.107  0.00  0.00    -0.270 OA
ATOM      2  N   UNL     1      32.507 -12.279 -22.735  0.00  0.00    -0.228 N 
ATOM      3  N   UNL     1      33.002 -10.023 -23.424  0.00  0.00    -0.322 NA
ATOM      4  N   UNL     1      33.493  -7.830 -24.099  0.00  0.00    -0.247 N 
ATOM      5  N   UNL     1      34.665  -9.591 -25.108  0.00  0.00    -0.170 NA
ATOM      6  C   UNL     1      33.236 -11.354 -23.541  0.00  0.00    +0.204 C 
ATOM      7  C   UNL     1      33.731 -14.152 -23.787  0.00  0.00    +0.056 C 
ATOM      8  C   UNL     1      34.176 -11.853 -24.429  0.00  0.00    +0.065 C 
ATOM      9  C   UNL     1      32.707 -13.660 -22.804  0.00  0.00    +0.255 C 
ATOM     10  C   UNL     1      34.412 -13.280 -24.545  0.00  0.00    +0.010 C 
ATOM     11  C   UNL     1      31.525 -11.723 -21.807  0.00  0.00    +0.123 C 
ATOM     12  C   UNL     1      34.864 -10.922 -25.191  0.00  0.00    +0.116 C 
ATOM     13  C   UNL     1      33.732  -9.217 -24.217  0.00  0.00    +0.150 C 
ATOM     14  H   UNL     1      34.049  -7.280 -24.697  0.00  0.00    +0.165 HD
ENDROOT
BRANCH   7  17
ATOM     15 CL   UNL     1      34.968 -15.602 -21.386  0.00  0.00    -0.082 Cl
ATOM     16 CL   UNL     1      32.970 -15.393 -26.484  0.00  0.00    -0.082 Cl
ATOM     17  C   UNL     1      33.987 -15.595 -23.946  0.00  0.00    +0.026 C 
ATOM     18  C   UNL     1      34.550 -16.332 -22.899  0.00  0.00    +0.059 C 
ATOM     19  C   UNL     1      33.668 -16.241 -25.147  0.00  0.00    +0.059 C 
ATOM     20  C   UNL     1      34.793 -17.697 -23.050  0.00  0.00    +0.011 C 
ATOM     21  C   UNL     1      33.911 -17.606 -25.297  0.00  0.00    +0.011 C 
ATOM     22  C   UNL     1      34.474 -18.335 -24.249  0.00  0.00    +0.002 C 
ENDBRANCH   7  17
BRANCH   4  23
ATOM     23  C   UNL     1      32.615  -7.082 -23.292  0.00  0.00    +0.057 C 
ATOM     24  C   UNL     1      32.793  -7.044 -21.908  0.00  0.00    +0.013 C 
ATOM     25  C   UNL     1      31.922  -6.303 -21.111  0.00  0.00    +0.008 C 
ATOM     26  C   UNL     1      31.561  -6.374 -23.876  0.00  0.00    +0.015 C 
ATOM     27  C   UNL     1      30.871  -5.596 -21.695  0.00  0.00    -0.002 C 
ATOM     28  C   UNL     1      30.691  -5.631 -23.078  0.00  0.00    +0.001 C 
BRANCH  25  29
ATOM     29  C   UNL     1      32.114  -6.265 -19.632  0.00  0.00    +0.164 C 
BRANCH  29  30
ATOM     30  O   UNL     1      33.090  -7.230 -19.257  0.00  0.00    -0.377 OA
ATOM     31  H   UNL     1      33.976  -6.886 -19.451  0.00  0.00    +0.211 HD
ENDBRANCH  29  30
ENDBRANCH  25  29
ENDBRANCH   4  23
TORSDOF 4
ENDMDL
MODEL 8
REMARK VINA RESULT:      -9.1      4.288     10.180
REMARK  Name = 447700
REMARK  4 active torsions:
REMARK  status: ('A' for Active; 'I' for Inactive)
REMARK    1  A    between atoms: N_4  and  C_23
REMARK    2  A    between atoms: C_7  and  C_17
REMARK    3  A    between atoms: C_25  and  C_29
REMARK    4  A    between atoms: C_29  and  O_30
REMARK                            x       y       z     vdW  Elec       q    Type
REMARK                         _______ _______ _______ _____ _____    ______ ____
ROOT
ATOM      1  O   UNL     1      35.299 -19.429 -23.346  0.00  0.00    -0.270 OA
ATOM      2  N   UNL     1      34.838 -17.156 -23.242  0.00  0.00    -0.228 N 
ATOM      3  N   UNL     1      34.317 -14.810 -23.058  0.00  0.00    -0.322 NA
ATOM      4  N   UNL     1      33.804 -12.528 -22.872  0.00  0.00    -0.247 N 
ATOM      5  N   UNL     1      33.577 -13.877 -20.968  0.00  0.00    -0.170 NA
ATOM      6  C   UNL     1      34.411 -16.030 -22.475  0.00  0.00    +0.204 C 
ATOM      7  C   UNL     1      34.606 -18.597 -21.246  0.00  0.00    +0.056 C 
ATOM      8  C   UNL     1      34.098 -16.225 -21.138  0.00  0.00    +0.065 C 
ATOM      9  C   UNL     1      34.948 -18.439 -22.701  0.00  0.00    +0.255 C 
ATOM     10  C   UNL     1      34.208 -17.537 -20.527  0.00  0.00    +0.010 C 
ATOM     11  C   UNL     1      35.157 -16.920 -24.648  0.00  0.00    +0.123 C 
ATOM     12  C   UNL     1      33.686 -15.107 -20.430  0.00  0.00    +0.116 C 
ATOM     13  C   UNL     1      33.905 -13.801 -22.268  0.00  0.00    +0.150 C 
ATOM     14  H   UNL     1      33.500 -11.821 -22.257  0.00  0.00    +0.165 HD
ENDROOT
BRANCH   7  17
ATOM     15 CL   UNL     1      31.986 -20.079 -20.665  0.00  0.00    -0.082 Cl
ATOM     16 CL   UNL     1      37.440 -19.565 -20.596  0.00  0.00    -0.082 Cl
ATOM     17  C   UNL     1      34.721 -19.910 -20.585  0.00  0.00    +0.026 C 
ATOM     18  C   UNL     1      33.574 -20.652 -20.284  0.00  0.00    +0.059 C 
ATOM     19  C   UNL     1      35.979 -20.426 -20.254  0.00  0.00    +0.059 C 
ATOM     20  C   UNL     1      33.682 -21.894 -19.658  0.00  0.00    +0.011 C 
ATOM     21  C   UNL     1      36.088 -21.668 -19.629  0.00  0.00    +0.011 C 
ATOM     22  C   UNL     1      34.939 -22.402 -19.331  0.00  0.00    +0.002 C 
ENDBRANCH   7  17
BRANCH   4  23
ATOM     23  C   UNL     1      34.055 -12.072 -24.180  0.00  0.00    +0.057 C 
ATOM     24  C   UNL     1      33.680 -12.849 -25.277  0.00  0.00    +0.013 C 
ATOM     25  C   UNL     1      33.929 -12.397 -26.572  0.00  0.00    +0.008 C 
ATOM     26  C   UNL     1      34.682 -10.841 -24.383  0.00  0.00    +0.015 C 
ATOM     27  C   UNL     1      34.554 -11.166 -26.773  0.00  0.00    -0.002 C 
ATOM     28  C   UNL     1      34.930 -10.388 -25.679  0.00  0.00    +0.001 C 
BRANCH  25  29
ATOM     29  C   UNL     1      33.528 -13.229 -27.744  0.00  0.00    +0.164 C 
BRANCH  29  30
ATOM     30  O   UNL     1      33.561 -14.604 -27.379  0.00  0.00    -0.377 OA
ATOM     31  H   UNL     1      34.279 -15.048 -27.855  0.00  0.00    +0.211 HD
ENDBRANCH  29  30
ENDBRANCH  25  29
ENDBRANCH   4  23
TORSDOF 4
ENDMDL
MODEL 9
REMARK VINA RESULT:      -9.0      4.600      7.360
REMARK  Name = 447700
REMARK  4 active torsions:
REMARK  status: ('A' for Active; 'I' for Inactive)
REMARK    1  A    between atoms: N_4  and  C_23
REMARK    2  A    between atoms: C_7  and  C_17
REMARK    3  A    between atoms: C_25  and  C_29
REMARK    4  A    between atoms: C_29  and  O_30
REMARK                            x       y       z     vdW  Elec       q    Type
REMARK                         _______ _______ _______ _____ _____    ______ ____
ROOT
ATOM      1  O   UNL     1      32.177 -12.326 -20.461  0.00  0.00    -0.270 OA
ATOM      2  N   UNL     1      32.938 -14.375 -21.246  0.00  0.00    -0.228 N 
ATOM      3  N   UNL     1      33.715 -16.473 -22.142  0.00  0.00    -0.322 NA
ATOM      4  N   UNL     1      34.469 -18.512 -23.024  0.00  0.00    -0.247 N 
ATOM      5  N   UNL     1      34.355 -16.658 -24.454  0.00  0.00    -0.170 NA
ATOM      6  C   UNL     1      33.423 -15.162 -22.333  0.00  0.00    +0.204 C 
ATOM      7  C   UNL     1      32.809 -12.406 -22.736  0.00  0.00    +0.056 C 
ATOM      8  C   UNL     1      33.581 -14.553 -23.568  0.00  0.00    +0.065 C 
ATOM      9  C   UNL     1      32.613 -13.023 -21.380  0.00  0.00    +0.255 C 
ATOM     10  C   UNL     1      33.269 -13.148 -23.755  0.00  0.00    +0.010 C 
ATOM     11  C   UNL     1      32.779 -15.045 -19.958  0.00  0.00    +0.123 C 
ATOM     12  C   UNL     1      34.053 -15.353 -24.597  0.00  0.00    +0.116 C 
ATOM     13  C   UNL     1      34.165 -17.146 -23.217  0.00  0.00    +0.150 C 
ATOM     14  H   UNL     1      34.794 -18.964 -23.836  0.00  0.00    +0.165 HD
ENDROOT
BRANCH   7  17
ATOM     15 CL   UNL     1      34.927 -10.796 -24.259  0.00  0.00    -0.082 Cl
ATOM     16 CL   UNL     1      30.150 -11.354 -21.635  0.00  0.00    -0.082 Cl
ATOM     17  C   UNL     1      32.519 -10.978 -22.962  0.00  0.00    +0.026 C 
ATOM     18  C   UNL     1      33.433 -10.172 -23.647  0.00  0.00    +0.059 C 
ATOM     19  C   UNL     1      31.326 -10.418 -22.491  0.00  0.00    +0.059 C 
ATOM     20  C   UNL     1      33.160  -8.821 -23.859  0.00  0.00    +0.011 C 
ATOM     21  C   UNL     1      31.053  -9.067 -22.703  0.00  0.00    +0.011 C 
ATOM     22  C   UNL     1      31.969  -8.268 -23.388  0.00  0.00    +0.002 C 
ENDBRANCH   7  17
BRANCH   4  23
ATOM     23  C   UNL     1      34.397 -19.353 -21.897  0.00  0.00    +0.057 C 
ATOM     24  C   UNL     1      35.565 -19.857 -21.322  0.00  0.00    +0.013 C 
ATOM     25  C   UNL     1      35.492 -20.689 -20.206  0.00  0.00    +0.008 C 
ATOM     26  C   UNL     1      33.155 -19.687 -21.352  0.00  0.00    +0.015 C 
ATOM     27  C   UNL     1      34.252 -21.021 -19.662  0.00  0.00    -0.002 C 
ATOM     28  C   UNL     1      33.083 -20.519 -20.235  0.00  0.00    +0.001 C 
BRANCH  25  29
ATOM     29  C   UNL     1      36.742 -21.227 -19.594  0.00  0.00    +0.164 C 
BRANCH  29  30
ATOM     30  O   UNL     1      36.757 -20.919 -18.205  0.00  0.00    -0.377 OA
ATOM     31  H   UNL     1      37.516 -21.353 -17.785  0.00  0.00    +0.211 HD
ENDBRANCH  29  30
ENDBRANCH  25  29
ENDBRANCH   4  23
TORSDOF 4
ENDMDL
