MODEL 1
REMARK VINA RESULT:      -6.4      0.000      0.000
REMARK  Name = 51683
REMARK  3 active torsions:
REMARK  status: ('A' for Active; 'I' for Inactive)
REMARK    1  A    between atoms: C_3  and  O_11
REMARK    2  A    between atoms: C_4  and  O_13
REMARK    3  A    between atoms: C_5  and  O_15
REMARK                            x       y       z     vdW  Elec       q    Type
REMARK                         _______ _______ _______ _____ _____    ______ ____
ROOT
ATOM      1  N   UNL     1      36.220 -25.347 -13.992  0.00  0.00    +0.393 N 
ATOM      2  C   UNL     1      36.544 -24.245 -13.076  0.00  0.00    -0.001 C 
ATOM      3  C   UNL     1      35.208 -24.069 -12.361  0.00  0.00    +0.119 C 
ATOM      4  C   UNL     1      37.752 -24.612 -12.219  0.00  0.00    +0.094 C 
ATOM      5  C   UNL     1      34.216 -24.178 -13.524  0.00  0.00    +0.115 C 
ATOM      6  C   UNL     1      34.924 -25.027 -14.589  0.00  0.00    -0.045 C 
ATOM      7  C   UNL     1      37.293 -25.601 -14.945  0.00  0.00    -0.077 C 
ATOM      8  C   UNL     1      38.944 -24.931 -13.130  0.00  0.00    +0.025 C 
ATOM      9  C   UNL     1      38.573 -25.974 -14.187  0.00  0.00    -0.020 C 
ATOM     10  H   UNL     1      36.143 -26.236 -13.500  0.00  0.00    -0.079 HD
ENDROOT
BRANCH   3  11
ATOM     11  O   UNL     1      35.011 -25.107 -11.409  0.00  0.00    -0.384 OA
ATOM     12  H   UNL     1      34.935 -24.723 -10.522  0.00  0.00    +0.210 HD
ENDBRANCH   3  11
BRANCH   4  13
ATOM     13  O   UNL     1      38.076 -23.514 -11.376  0.00  0.00    -0.386 OA
ATOM     14  H   UNL     1      39.033 -23.493 -11.225  0.00  0.00    +0.210 HD
ENDBRANCH   4  13
BRANCH   5  15
ATOM     15  O   UNL     1      32.984 -24.754 -13.134  0.00  0.00    -0.384 OA
ATOM     16  H   UNL     1      32.756 -24.453 -12.240  0.00  0.00    +0.210 HD
ENDBRANCH   5  15
TORSDOF 3
ENDMDL
MODEL 2
REMARK VINA RESULT:      -6.2     12.804     13.494
REMARK  Name = 51683
REMARK  3 active torsions:
REMARK  status: ('A' for Active; 'I' for Inactive)
REMARK    1  A    between atoms: C_3  and  O_11
REMARK    2  A    between atoms: C_4  and  O_13
REMARK    3  A    between atoms: C_5  and  O_15
REMARK                            x       y       z     vdW  Elec       q    Type
REMARK                         _______ _______ _______ _____ _____    ______ ____
ROOT
ATOM      1  N   UNL     1      33.860 -15.777 -23.728  0.00  0.00    +0.393 N 
ATOM      2  C   UNL     1      34.434 -15.579 -22.390  0.00  0.00    -0.001 C 
ATOM      3  C   UNL     1      33.414 -14.620 -21.782  0.00  0.00    +0.119 C 
ATOM      4  C   UNL     1      34.627 -16.925 -21.697  0.00  0.00    +0.094 C 
ATOM      5  C   UNL     1      33.166 -13.654 -22.944  0.00  0.00    +0.115 C 
ATOM      6  C   UNL     1      33.478 -14.453 -24.217  0.00  0.00    -0.045 C 
ATOM      7  C   UNL     1      34.754 -16.525 -24.603  0.00  0.00    -0.077 C 
ATOM      8  C   UNL     1      35.538 -17.813 -22.555  0.00  0.00    +0.025 C 
ATOM      9  C   UNL     1      35.028 -17.906 -23.995  0.00  0.00    -0.020 C 
ATOM     10  H   UNL     1      33.030 -16.367 -23.699  0.00  0.00    -0.079 HD
ENDROOT
BRANCH   3  11
ATOM     11  O   UNL     1      32.228 -15.317 -21.421  0.00  0.00    -0.384 OA
ATOM     12  H   UNL     1      31.721 -15.528 -22.220  0.00  0.00    +0.210 HD
ENDBRANCH   3  11
BRANCH   4  13
ATOM     13  O   UNL     1      35.228 -16.712 -20.425  0.00  0.00    -0.386 OA
ATOM     14  H   UNL     1      36.193 -16.741 -20.515  0.00  0.00    +0.210 HD
ENDBRANCH   4  13
BRANCH   5  15
ATOM     15  O   UNL     1      31.844 -13.150 -22.957  0.00  0.00    -0.384 OA
ATOM     16  H   UNL     1      31.524 -13.060 -22.046  0.00  0.00    +0.210 HD
ENDBRANCH   5  15
TORSDOF 3
ENDMDL
MODEL 3
REMARK VINA RESULT:      -6.1      1.332      3.831
REMARK  Name = 51683
REMARK  3 active torsions:
REMARK  status: ('A' for Active; 'I' for Inactive)
REMARK    1  A    between atoms: C_3  and  O_11
REMARK    2  A    between atoms: C_4  and  O_13
REMARK    3  A    between atoms: C_5  and  O_15
REMARK                            x       y       z     vdW  Elec       q    Type
REMARK                         _______ _______ _______ _____ _____    ______ ____
ROOT
ATOM      1  N   UNL     1      37.063 -24.350 -14.213  0.00  0.00    +0.393 N 
ATOM      2  C   UNL     1      36.844 -25.042 -12.936  0.00  0.00    -0.001 C 
ATOM      3  C   UNL     1      38.259 -25.039 -12.365  0.00  0.00    +0.119 C 
ATOM      4  C   UNL     1      35.764 -24.326 -12.130  0.00  0.00    +0.094 C 
ATOM      5  C   UNL     1      39.092 -25.403 -13.598  0.00  0.00    +0.115 C 
ATOM      6  C   UNL     1      38.265 -24.937 -14.804  0.00  0.00    -0.045 C 
ATOM      7  C   UNL     1      35.879 -24.378 -15.063  0.00  0.00    -0.077 C 
ATOM      8  C   UNL     1      34.469 -24.272 -12.949  0.00  0.00    +0.025 C 
ATOM      9  C   UNL     1      34.716 -23.687 -14.342  0.00  0.00    -0.020 C 
ATOM     10  H   UNL     1      37.219 -23.352 -14.080  0.00  0.00    -0.079 HD
ENDROOT
BRANCH   3  11
ATOM     11  O   UNL     1      38.596 -23.749 -11.871  0.00  0.00    -0.384 OA
ATOM     12  H   UNL     1      38.029 -23.083 -12.291  0.00  0.00    +0.210 HD
ENDBRANCH   3  11
BRANCH   4  13
ATOM     13  O   UNL     1      35.536 -25.040 -10.920  0.00  0.00    -0.386 OA
ATOM     14  H   UNL     1      35.770 -25.972 -11.047  0.00  0.00    +0.210 HD
ENDBRANCH   4  13
BRANCH   5  15
ATOM     15  O   UNL     1      40.373 -24.804 -13.584  0.00  0.00    -0.384 OA
ATOM     16  H   UNL     1      40.315 -23.909 -13.955  0.00  0.00    +0.210 HD
ENDBRANCH   5  15
TORSDOF 3
ENDMDL
MODEL 4
REMARK VINA RESULT:      -6.1      4.271      6.935
REMARK  Name = 51683
REMARK  3 active torsions:
REMARK  status: ('A' for Active; 'I' for Inactive)
REMARK    1  A    between atoms: C_3  and  O_11
REMARK    2  A    between atoms: C_4  and  O_13
REMARK    3  A    between atoms: C_5  and  O_15
REMARK                            x       y       z     vdW  Elec       q    Type
REMARK                         _______ _______ _______ _____ _____    ______ ____
ROOT
ATOM      1  N   UNL     1      31.166 -23.221 -15.285  0.00  0.00    +0.393 N 
ATOM      2  C   UNL     1      30.671 -24.547 -14.890  0.00  0.00    -0.001 C 
ATOM      3  C   UNL     1      31.414 -24.747 -13.572  0.00  0.00    +0.119 C 
ATOM      4  C   UNL     1      29.146 -24.546 -14.841  0.00  0.00    +0.094 C 
ATOM      5  C   UNL     1      32.815 -24.238 -13.925  0.00  0.00    +0.115 C 
ATOM      6  C   UNL     1      32.611 -23.233 -15.068  0.00  0.00    -0.045 C 
ATOM      7  C   UNL     1      30.745 -22.857 -16.632  0.00  0.00    -0.077 C 
ATOM      8  C   UNL     1      28.592 -24.144 -16.213  0.00  0.00    +0.025 C 
ATOM      9  C   UNL     1      29.214 -22.833 -16.702  0.00  0.00    -0.020 C 
ATOM     10  H   UNL     1      30.756 -22.481 -14.715  0.00  0.00    -0.079 HD
ENDROOT
BRANCH   3  11
ATOM     11  O   UNL     1      30.820 -23.967 -12.543  0.00  0.00    -0.384 OA
ATOM     12  H   UNL     1      31.077 -24.321 -11.678  0.00  0.00    +0.210 HD
ENDBRANCH   3  11
BRANCH   4  13
ATOM     13  O   UNL     1      28.690 -25.851 -14.504  0.00  0.00    -0.386 OA
ATOM     14  H   UNL     1      28.734 -26.420 -15.289  0.00  0.00    +0.210 HD
ENDBRANCH   4  13
BRANCH   5  15
ATOM     15  O   UNL     1      33.470 -23.644 -12.821  0.00  0.00    -0.384 OA
ATOM     16  H   UNL     1      34.196 -24.217 -12.529  0.00  0.00    +0.210 HD
ENDBRANCH   5  15
TORSDOF 3
ENDMDL
MODEL 5
REMARK VINA RESULT:      -6.1     12.477     13.168
REMARK  Name = 51683
REMARK  3 active torsions:
REMARK  status: ('A' for Active; 'I' for Inactive)
REMARK    1  A    between atoms: C_3  and  O_11
REMARK    2  A    between atoms: C_4  and  O_13
REMARK    3  A    between atoms: C_5  and  O_15
REMARK                            x       y       z     vdW  Elec       q    Type
REMARK                         _______ _______ _______ _____ _____    ______ ____
ROOT
ATOM      1  N   UNL     1      34.249 -16.774 -23.633  0.00  0.00    +0.393 N 
ATOM      2  C   UNL     1      34.753 -16.033 -22.469  0.00  0.00    -0.001 C 
ATOM      3  C   UNL     1      33.916 -14.760 -22.558  0.00  0.00    +0.119 C 
ATOM      4  C   UNL     1      34.608 -16.878 -21.206  0.00  0.00    +0.094 C 
ATOM      5  C   UNL     1      33.962 -14.464 -24.061  0.00  0.00    +0.115 C 
ATOM      6  C   UNL     1      34.190 -15.821 -24.740  0.00  0.00    -0.045 C 
ATOM      7  C   UNL     1      35.026 -17.979 -23.895  0.00  0.00    -0.077 C 
ATOM      8  C   UNL     1      35.371 -18.196 -21.384  0.00  0.00    +0.025 C 
ATOM      9  C   UNL     1      34.959 -18.907 -22.676  0.00  0.00    -0.020 C 
ATOM     10  H   UNL     1      33.313 -17.143 -23.469  0.00  0.00    -0.079 HD
ENDROOT
BRANCH   3  11
ATOM     11  O   UNL     1      32.587 -15.005 -22.115  0.00  0.00    -0.384 OA
ATOM     12  H   UNL     1      32.345 -15.924 -22.309  0.00  0.00    +0.210 HD
ENDBRANCH   3  11
BRANCH   4  13
ATOM     13  O   UNL     1      35.146 -16.160 -20.102  0.00  0.00    -0.386 OA
ATOM     14  H   UNL     1      34.522 -16.195 -19.360  0.00  0.00    +0.210 HD
ENDBRANCH   4  13
BRANCH   5  15
ATOM     15  O   UNL     1      32.780 -13.841 -24.527  0.00  0.00    -0.384 OA
ATOM     16  H   UNL     1      32.288 -14.462 -25.087  0.00  0.00    +0.210 HD
ENDBRANCH   5  15
TORSDOF 3
ENDMDL
MODEL 6
REMARK VINA RESULT:      -6.0      1.828      2.673
REMARK  Name = 51683
REMARK  3 active torsions:
REMARK  status: ('A' for Active; 'I' for Inactive)
REMARK    1  A    between atoms: C_3  and  O_11
REMARK    2  A    between atoms: C_4  and  O_13
REMARK    3  A    between atoms: C_5  and  O_15
REMARK                            x       y       z     vdW  Elec       q    Type
REMARK                         _______ _______ _______ _____ _____    ______ ____
ROOT
ATOM      1  N   UNL     1      35.855 -24.010 -13.426  0.00  0.00    +0.393 N 
ATOM      2  C   UNL     1      37.270 -24.051 -13.030  0.00  0.00    -0.001 C 
ATOM      3  C   UNL     1      37.184 -24.888 -11.757  0.00  0.00    +0.119 C 
ATOM      4  C   UNL     1      38.119 -24.600 -14.173  0.00  0.00    +0.094 C 
ATOM      5  C   UNL     1      35.946 -24.294 -11.078  0.00  0.00    +0.115 C 
ATOM      6  C   UNL     1      35.092 -23.716 -12.214  0.00  0.00    -0.045 C 
ATOM      7  C   UNL     1      35.623 -23.098 -14.539  0.00  0.00    -0.077 C 
ATOM      8  C   UNL     1      37.926 -23.724 -15.417  0.00  0.00    +0.025 C 
ATOM      9  C   UNL     1      36.443 -23.553 -15.753  0.00  0.00    -0.020 C 
ATOM     10  H   UNL     1      35.542 -24.905 -13.800  0.00  0.00    -0.079 HD
ENDROOT
BRANCH   3  11
ATOM     11  O   UNL     1      36.996 -26.261 -12.075  0.00  0.00    -0.384 OA
ATOM     12  H   UNL     1      36.271 -26.350 -12.713  0.00  0.00    +0.210 HD
ENDBRANCH   3  11
BRANCH   4  13
ATOM     13  O   UNL     1      39.487 -24.586 -13.785  0.00  0.00    -0.386 OA
ATOM     14  H   UNL     1      40.003 -24.086 -14.437  0.00  0.00    +0.210 HD
ENDBRANCH   4  13
BRANCH   5  15
ATOM     15  O   UNL     1      35.230 -25.254 -10.324  0.00  0.00    -0.384 OA
ATOM     16  H   UNL     1      34.729 -24.805  -9.624  0.00  0.00    +0.210 HD
ENDBRANCH   5  15
TORSDOF 3
ENDMDL
MODEL 7
REMARK VINA RESULT:      -6.0     12.264     13.295
REMARK  Name = 51683
REMARK  3 active torsions:
REMARK  status: ('A' for Active; 'I' for Inactive)
REMARK    1  A    between atoms: C_3  and  O_11
REMARK    2  A    between atoms: C_4  and  O_13
REMARK    3  A    between atoms: C_5  and  O_15
REMARK                            x       y       z     vdW  Elec       q    Type
REMARK                         _______ _______ _______ _____ _____    ______ ____
ROOT
ATOM      1  N   UNL     1      34.224 -16.322 -22.148  0.00  0.00    +0.393 N 
ATOM      2  C   UNL     1      35.008 -16.706 -23.329  0.00  0.00    -0.001 C 
ATOM      3  C   UNL     1      35.391 -18.137 -22.963  0.00  0.00    +0.119 C 
ATOM      4  C   UNL     1      34.182 -16.505 -24.596  0.00  0.00    +0.094 C 
ATOM      5  C   UNL     1      35.768 -17.989 -21.485  0.00  0.00    +0.115 C 
ATOM      6  C   UNL     1      34.979 -16.773 -20.981  0.00  0.00    -0.045 C 
ATOM      7  C   UNL     1      33.881 -14.905 -22.154  0.00  0.00    -0.077 C 
ATOM      8  C   UNL     1      33.739 -15.040 -24.690  0.00  0.00    +0.025 C 
ATOM      9  C   UNL     1      33.049 -14.585 -23.402  0.00  0.00    -0.020 C 
ATOM     10  H   UNL     1      33.309 -16.773 -22.140  0.00  0.00    -0.079 HD
ENDROOT
BRANCH   3  11
ATOM     11  O   UNL     1      34.281 -19.009 -23.134  0.00  0.00    -0.384 OA
ATOM     12  H   UNL     1      33.477 -18.486 -23.280  0.00  0.00    +0.210 HD
ENDBRANCH   3  11
BRANCH   4  13
ATOM     13  O   UNL     1      34.978 -16.838 -25.728  0.00  0.00    -0.386 OA
ATOM     14  H   UNL     1      35.335 -16.026 -26.120  0.00  0.00    +0.210 HD
ENDBRANCH   4  13
BRANCH   5  15
ATOM     15  O   UNL     1      35.472 -19.150 -20.732  0.00  0.00    -0.384 OA
ATOM     16  H   UNL     1      34.542 -19.392 -20.865  0.00  0.00    +0.210 HD
ENDBRANCH   5  15
TORSDOF 3
ENDMDL
MODEL 8
REMARK VINA RESULT:      -5.9      2.090      2.875
REMARK  Name = 51683
REMARK  3 active torsions:
REMARK  status: ('A' for Active; 'I' for Inactive)
REMARK    1  A    between atoms: C_3  and  O_11
REMARK    2  A    between atoms: C_4  and  O_13
REMARK    3  A    between atoms: C_5  and  O_15
REMARK                            x       y       z     vdW  Elec       q    Type
REMARK                         _______ _______ _______ _____ _____    ______ ____
ROOT
ATOM      1  N   UNL     1      36.659 -24.292 -13.362  0.00  0.00    +0.393 N 
ATOM      2  C   UNL     1      36.326 -25.404 -14.263  0.00  0.00    -0.001 C 
ATOM      3  C   UNL     1      35.117 -24.826 -14.992  0.00  0.00    +0.119 C 
ATOM      4  C   UNL     1      37.541 -25.777 -15.108  0.00  0.00    +0.094 C 
ATOM      5  C   UNL     1      34.345 -24.170 -13.843  0.00  0.00    +0.115 C 
ATOM      6  C   UNL     1      35.399 -23.836 -12.779  0.00  0.00    -0.045 C 
ATOM      7  C   UNL     1      37.691 -24.656 -12.399  0.00  0.00    -0.077 C 
ATOM      8  C   UNL     1      38.707 -26.154 -14.187  0.00  0.00    +0.025 C 
ATOM      9  C   UNL     1      38.968 -25.063 -13.145  0.00  0.00    -0.020 C 
ATOM     10  H   UNL     1      37.087 -23.515 -13.865  0.00  0.00    -0.079 HD
ENDROOT
BRANCH   3  11
ATOM     11  O   UNL     1      35.529 -23.866 -15.958  0.00  0.00    -0.384 OA
ATOM     12  H   UNL     1      36.001 -23.143 -15.515  0.00  0.00    +0.210 HD
ENDBRANCH   3  11
BRANCH   4  13
ATOM     13  O   UNL     1      37.208 -26.885 -15.937  0.00  0.00    -0.386 OA
ATOM     14  H   UNL     1      37.258 -27.702 -15.417  0.00  0.00    +0.210 HD
ENDBRANCH   4  13
BRANCH   5  15
ATOM     15  O   UNL     1      33.637 -23.017 -14.254  0.00  0.00    -0.384 OA
ATOM     16  H   UNL     1      34.204 -22.477 -14.827  0.00  0.00    +0.210 HD
ENDBRANCH   5  15
TORSDOF 3
ENDMDL
MODEL 9
REMARK VINA RESULT:      -5.9     12.063     12.838
REMARK  Name = 51683
REMARK  3 active torsions:
REMARK  status: ('A' for Active; 'I' for Inactive)
REMARK    1  A    between atoms: C_3  and  O_11
REMARK    2  A    between atoms: C_4  and  O_13
REMARK    3  A    between atoms: C_5  and  O_15
REMARK                            x       y       z     vdW  Elec       q    Type
REMARK                         _______ _______ _______ _____ _____    ______ ____
ROOT
ATOM      1  N   UNL     1      34.229 -16.348 -23.609  0.00  0.00    +0.393 N 
ATOM      2  C   UNL     1      34.962 -16.931 -22.477  0.00  0.00    -0.001 C 
ATOM      3  C   UNL     1      34.438 -16.073 -21.328  0.00  0.00    +0.119 C 
ATOM      4  C   UNL     1      34.704 -18.433 -22.402  0.00  0.00    +0.094 C 
ATOM      5  C   UNL     1      34.458 -14.674 -21.952  0.00  0.00    +0.115 C 
ATOM      6  C   UNL     1      34.323 -14.896 -23.464  0.00  0.00    -0.045 C 
ATOM      7  C   UNL     1      34.689 -16.873 -24.889  0.00  0.00    -0.077 C 
ATOM      8  C   UNL     1      35.129 -19.090 -23.721  0.00  0.00    +0.025 C 
ATOM      9  C   UNL     1      34.484 -18.393 -24.922  0.00  0.00    -0.020 C 
ATOM     10  H   UNL     1      33.245 -16.614 -23.599  0.00  0.00    -0.079 HD
ENDROOT
BRANCH   3  11
ATOM     11  O   UNL     1      33.119 -16.467 -20.973  0.00  0.00    -0.384 OA
ATOM     12  H   UNL     1      33.141 -16.957 -20.137  0.00  0.00    +0.210 HD
ENDBRANCH   3  11
BRANCH   4  13
ATOM     13  O   UNL     1      35.461 -18.982 -21.329  0.00  0.00    -0.386 OA
ATOM     14  H   UNL     1      35.492 -19.947 -21.417  0.00  0.00    +0.210 HD
ENDBRANCH   4  13
BRANCH   5  15
ATOM     15  O   UNL     1      33.426 -13.844 -21.454  0.00  0.00    -0.384 OA
ATOM     16  H   UNL     1      33.680 -12.914 -21.561  0.00  0.00    +0.210 HD
ENDBRANCH   5  15
TORSDOF 3
ENDMDL
