MODEL 1
REMARK VINA RESULT:      -6.0      0.000      0.000
REMARK  Name = 79541
REMARK  10 active torsions:
REMARK  status: ('A' for Active; 'I' for Inactive)
REMARK    1  A    between atoms: C_1  and  C_2
REMARK    2  A    between atoms: C_1  and  C_8
REMARK    3  A    between atoms: C_2  and  C_3
REMARK    4  A    between atoms: C_3  and  C_4
REMARK    5  A    between atoms: C_4  and  C_5
REMARK    6  A    between atoms: C_5  and  C_6
REMARK    7  A    between atoms: C_8  and  C_9
REMARK    8  A    between atoms: C_9  and  C_10
REMARK    9  A    between atoms: C_10  and  O_11
REMARK   10  A    between atoms: O_11  and  C_13
REMARK                            x       y       z     vdW  Elec       q    Type
REMARK                         _______ _______ _______ _____ _____    ______ ____
ROOT
ATOM      1  C   UNL     1      35.674 -18.186 -22.910  0.00  0.00    +0.000 C 
ENDROOT
BRANCH   1   2
ATOM      2  C   UNL     1      35.239 -18.429 -21.464  0.00  0.00    +0.000 C 
BRANCH   2   3
ATOM      3  C   UNL     1      34.607 -19.806 -21.240  0.00  0.00    +0.000 C 
BRANCH   3   4
ATOM      4  C   UNL     1      33.143 -19.741 -20.800  0.00  0.00    +0.000 C 
BRANCH   4   5
ATOM      5  C   UNL     1      32.853 -20.752 -19.689  0.00  0.00    +0.000 C 
BRANCH   5   6
ATOM      6  C   UNL     1      34.038 -21.691 -19.467  0.00  0.00    +0.000 C 
ATOM      7  C   UNL     1      33.723 -22.750 -18.422  0.00  0.00    +0.000 C 
ENDBRANCH   5   6
ENDBRANCH   4   5
ENDBRANCH   3   4
ENDBRANCH   2   3
ENDBRANCH   1   2
BRANCH   1   8
ATOM      8  C   UNL     1      34.902 -19.087 -23.879  0.00  0.00    +0.004 C 
BRANCH   8   9
ATOM      9  C   UNL     1      34.406 -18.299 -25.094  0.00  0.00    +0.047 C 
BRANCH   9  10
ATOM     10  C   UNL     1      34.501 -16.793 -24.883  0.00  0.00    +0.209 C 
BRANCH  10  11
ATOM     11  O   UNL     1      34.161 -16.113 -26.082  0.00  0.00    -0.441 OA
BRANCH  11  13
ATOM     12  O   UNL     1      33.135 -14.106 -25.550  0.00  0.00    -0.238 OA
ATOM     13  C   UNL     1      33.115 -15.244 -25.992  0.00  0.00    +0.418 C 
ENDBRANCH  11  13
ENDBRANCH  10  11
ENDBRANCH   9  10
ENDBRANCH   8   9
ENDBRANCH   1   8
TORSDOF 10
ENDMDL
MODEL 2
REMARK VINA RESULT:      -5.9      2.340      3.236
REMARK  Name = 79541
REMARK  10 active torsions:
REMARK  status: ('A' for Active; 'I' for Inactive)
REMARK    1  A    between atoms: C_1  and  C_2
REMARK    2  A    between atoms: C_1  and  C_8
REMARK    3  A    between atoms: C_2  and  C_3
REMARK    4  A    between atoms: C_3  and  C_4
REMARK    5  A    between atoms: C_4  and  C_5
REMARK    6  A    between atoms: C_5  and  C_6
REMARK    7  A    between atoms: C_8  and  C_9
REMARK    8  A    between atoms: C_9  and  C_10
REMARK    9  A    between atoms: C_10  and  O_11
REMARK   10  A    between atoms: O_11  and  C_13
REMARK                            x       y       z     vdW  Elec       q    Type
REMARK                         _______ _______ _______ _____ _____    ______ ____
ROOT
ATOM      1  C   UNL     1      34.321 -18.214 -24.939  0.00  0.00    +0.000 C 
ENDROOT
BRANCH   1   2
ATOM      2  C   UNL     1      34.839 -19.179 -23.871  0.00  0.00    +0.000 C 
BRANCH   2   3
ATOM      3  C   UNL     1      35.651 -18.490 -22.770  0.00  0.00    +0.000 C 
BRANCH   3   4
ATOM      4  C   UNL     1      35.274 -18.946 -21.359  0.00  0.00    +0.000 C 
BRANCH   4   5
ATOM      5  C   UNL     1      33.756 -18.991 -21.178  0.00  0.00    +0.000 C 
BRANCH   5   6
ATOM      6  C   UNL     1      33.317 -20.269 -20.465  0.00  0.00    +0.000 C 
ATOM      7  C   UNL     1      34.504 -21.012 -19.871  0.00  0.00    +0.000 C 
ENDBRANCH   5   6
ENDBRANCH   4   5
ENDBRANCH   3   4
ENDBRANCH   2   3
ENDBRANCH   1   2
BRANCH   1   8
ATOM      8  C   UNL     1      34.969 -16.834 -24.799  0.00  0.00    +0.004 C 
BRANCH   8   9
ATOM      9  C   UNL     1      33.942 -15.777 -24.382  0.00  0.00    +0.047 C 
BRANCH   9  10
ATOM     10  C   UNL     1      34.317 -15.096 -23.072  0.00  0.00    +0.209 C 
BRANCH  10  11
ATOM     11  O   UNL     1      33.447 -15.526 -22.035  0.00  0.00    -0.441 OA
BRANCH  11  13
ATOM     12  O   UNL     1      34.919 -15.535 -20.248  0.00  0.00    -0.238 OA
ATOM     13  C   UNL     1      33.853 -15.242 -20.766  0.00  0.00    +0.418 C 
ENDBRANCH  11  13
ENDBRANCH  10  11
ENDBRANCH   9  10
ENDBRANCH   8   9
ENDBRANCH   1   8
TORSDOF 10
ENDMDL
MODEL 3
REMARK VINA RESULT:      -5.9      4.587      7.142
REMARK  Name = 79541
REMARK  10 active torsions:
REMARK  status: ('A' for Active; 'I' for Inactive)
REMARK    1  A    between atoms: C_1  and  C_2
REMARK    2  A    between atoms: C_1  and  C_8
REMARK    3  A    between atoms: C_2  and  C_3
REMARK    4  A    between atoms: C_3  and  C_4
REMARK    5  A    between atoms: C_4  and  C_5
REMARK    6  A    between atoms: C_5  and  C_6
REMARK    7  A    between atoms: C_8  and  C_9
REMARK    8  A    between atoms: C_9  and  C_10
REMARK    9  A    between atoms: C_10  and  O_11
REMARK   10  A    between atoms: O_11  and  C_13
REMARK                            x       y       z     vdW  Elec       q    Type
REMARK                         _______ _______ _______ _____ _____    ______ ____
ROOT
ATOM      1  C   UNL     1      35.229 -19.990 -20.936  0.00  0.00    +0.000 C 
ENDROOT
BRANCH   1   2
ATOM      2  C   UNL     1      36.032 -18.726 -21.248  0.00  0.00    +0.000 C 
BRANCH   2   3
ATOM      3  C   UNL     1      35.204 -17.441 -21.162  0.00  0.00    +0.000 C 
BRANCH   3   4
ATOM      4  C   UNL     1      35.165 -16.651 -22.472  0.00  0.00    +0.000 C 
BRANCH   4   5
ATOM      5  C   UNL     1      34.489 -15.292 -22.280  0.00  0.00    +0.000 C 
BRANCH   5   6
ATOM      6  C   UNL     1      34.275 -14.981 -20.799  0.00  0.00    +0.000 C 
ATOM      7  C   UNL     1      32.804 -14.760 -20.483  0.00  0.00    +0.000 C 
ENDBRANCH   5   6
ENDBRANCH   4   5
ENDBRANCH   3   4
ENDBRANCH   2   3
ENDBRANCH   1   2
BRANCH   1   8
ATOM      8  C   UNL     1      33.726 -19.745 -21.102  0.00  0.00    +0.004 C 
BRANCH   8   9
ATOM      9  C   UNL     1      32.921 -20.484 -20.029  0.00  0.00    +0.047 C 
BRANCH   9  10
ATOM     10  C   UNL     1      33.676 -21.680 -19.464  0.00  0.00    +0.209 C 
BRANCH  10  11
ATOM     11  O   UNL     1      32.800 -22.484 -18.688  0.00  0.00    -0.441 OA
BRANCH  11  13
ATOM     12  O   UNL     1      34.543 -23.235 -17.361  0.00  0.00    -0.238 OA
ATOM     13  C   UNL     1      33.354 -23.078 -17.594  0.00  0.00    +0.418 C 
ENDBRANCH  11  13
ENDBRANCH  10  11
ENDBRANCH   9  10
ENDBRANCH   8   9
ENDBRANCH   1   8
TORSDOF 10
ENDMDL
MODEL 4
REMARK VINA RESULT:      -5.9      3.910      6.674
REMARK  Name = 79541
REMARK  10 active torsions:
REMARK  status: ('A' for Active; 'I' for Inactive)
REMARK    1  A    between atoms: C_1  and  C_2
REMARK    2  A    between atoms: C_1  and  C_8
REMARK    3  A    between atoms: C_2  and  C_3
REMARK    4  A    between atoms: C_3  and  C_4
REMARK    5  A    between atoms: C_4  and  C_5
REMARK    6  A    between atoms: C_5  and  C_6
REMARK    7  A    between atoms: C_8  and  C_9
REMARK    8  A    between atoms: C_9  and  C_10
REMARK    9  A    between atoms: C_10  and  O_11
REMARK   10  A    between atoms: O_11  and  C_13
REMARK                            x       y       z     vdW  Elec       q    Type
REMARK                         _______ _______ _______ _____ _____    ______ ____
ROOT
ATOM      1  C   UNL     1      35.611 -18.583 -22.430  0.00  0.00    +0.000 C 
ENDROOT
BRANCH   1   2
ATOM      2  C   UNL     1      34.749 -18.922 -23.648  0.00  0.00    +0.000 C 
BRANCH   2   3
ATOM      3  C   UNL     1      34.640 -17.775 -24.656  0.00  0.00    +0.000 C 
BRANCH   3   4
ATOM      4  C   UNL     1      34.981 -16.407 -24.062  0.00  0.00    +0.000 C 
BRANCH   4   5
ATOM      5  C   UNL     1      33.791 -15.449 -24.158  0.00  0.00    +0.000 C 
BRANCH   5   6
ATOM      6  C   UNL     1      33.312 -15.016 -22.773  0.00  0.00    +0.000 C 
ATOM      7  C   UNL     1      34.460 -14.968 -21.776  0.00  0.00    +0.000 C 
ENDBRANCH   5   6
ENDBRANCH   4   5
ENDBRANCH   3   4
ENDBRANCH   2   3
ENDBRANCH   1   2
BRANCH   1   8
ATOM      8  C   UNL     1      34.782 -18.607 -21.142  0.00  0.00    +0.004 C 
BRANCH   8   9
ATOM      9  C   UNL     1      34.493 -20.043 -20.695  0.00  0.00    +0.047 C 
BRANCH   9  10
ATOM     10  C   UNL     1      33.016 -20.269 -20.400  0.00  0.00    +0.209 C 
BRANCH  10  11
ATOM     11  O   UNL     1      32.868 -21.249 -19.383  0.00  0.00    -0.441 OA
BRANCH  11  13
ATOM     12  O   UNL     1      33.857 -23.342 -19.345  0.00  0.00    -0.238 OA
ATOM     13  C   UNL     1      33.903 -22.125 -19.252  0.00  0.00    +0.418 C 
ENDBRANCH  11  13
ENDBRANCH  10  11
ENDBRANCH   9  10
ENDBRANCH   8   9
ENDBRANCH   1   8
TORSDOF 10
ENDMDL
MODEL 5
REMARK VINA RESULT:      -5.9      2.109      3.092
REMARK  Name = 79541
REMARK  10 active torsions:
REMARK  status: ('A' for Active; 'I' for Inactive)
REMARK    1  A    between atoms: C_1  and  C_2
REMARK    2  A    between atoms: C_1  and  C_8
REMARK    3  A    between atoms: C_2  and  C_3
REMARK    4  A    between atoms: C_3  and  C_4
REMARK    5  A    between atoms: C_4  and  C_5
REMARK    6  A    between atoms: C_5  and  C_6
REMARK    7  A    between atoms: C_8  and  C_9
REMARK    8  A    between atoms: C_9  and  C_10
REMARK    9  A    between atoms: C_10  and  O_11
REMARK   10  A    between atoms: O_11  and  C_13
REMARK                            x       y       z     vdW  Elec       q    Type
REMARK                         _______ _______ _______ _____ _____    ______ ____
ROOT
ATOM      1  C   UNL     1      34.203 -15.454 -20.748  0.00  0.00    +0.000 C 
ENDROOT
BRANCH   1   2
ATOM      2  C   UNL     1      34.990 -16.740 -21.006  0.00  0.00    +0.000 C 
BRANCH   2   3
ATOM      3  C   UNL     1      34.690 -17.375 -22.368  0.00  0.00    +0.000 C 
BRANCH   3   4
ATOM      4  C   UNL     1      34.725 -18.904 -22.348  0.00  0.00    +0.000 C 
BRANCH   4   5
ATOM      5  C   UNL     1      35.225 -19.430 -21.001  0.00  0.00    +0.000 C 
BRANCH   5   6
ATOM      6  C   UNL     1      34.246 -20.437 -20.398  0.00  0.00    +0.000 C 
ATOM      7  C   UNL     1      32.806 -19.974 -20.550  0.00  0.00    +0.000 C 
ENDBRANCH   5   6
ENDBRANCH   4   5
ENDBRANCH   3   4
ENDBRANCH   2   3
ENDBRANCH   1   2
BRANCH   1   8
ATOM      8  C   UNL     1      32.903 -15.429 -21.557  0.00  0.00    +0.004 C 
BRANCH   8   9
ATOM      9  C   UNL     1      32.776 -14.134 -22.365  0.00  0.00    +0.047 C 
BRANCH   9  10
ATOM     10  C   UNL     1      33.682 -14.129 -23.590  0.00  0.00    +0.209 C 
BRANCH  10  11
ATOM     11  O   UNL     1      32.900 -14.222 -24.772  0.00  0.00    -0.441 OA
BRANCH  11  13
ATOM     12  O   UNL     1      33.628 -15.058 -26.805  0.00  0.00    -0.238 OA
ATOM     13  C   UNL     1      33.266 -15.200 -25.647  0.00  0.00    +0.418 C 
ENDBRANCH  11  13
ENDBRANCH  10  11
ENDBRANCH   9  10
ENDBRANCH   8   9
ENDBRANCH   1   8
TORSDOF 10
ENDMDL
MODEL 6
REMARK VINA RESULT:      -5.8      1.324      2.621
REMARK  Name = 79541
REMARK  10 active torsions:
REMARK  status: ('A' for Active; 'I' for Inactive)
REMARK    1  A    between atoms: C_1  and  C_2
REMARK    2  A    between atoms: C_1  and  C_8
REMARK    3  A    between atoms: C_2  and  C_3
REMARK    4  A    between atoms: C_3  and  C_4
REMARK    5  A    between atoms: C_4  and  C_5
REMARK    6  A    between atoms: C_5  and  C_6
REMARK    7  A    between atoms: C_8  and  C_9
REMARK    8  A    between atoms: C_9  and  C_10
REMARK    9  A    between atoms: C_10  and  O_11
REMARK   10  A    between atoms: O_11  and  C_13
REMARK                            x       y       z     vdW  Elec       q    Type
REMARK                         _______ _______ _______ _____ _____    ______ ____
ROOT
ATOM      1  C   UNL     1      34.439 -17.220 -25.067  0.00  0.00    +0.000 C 
ENDROOT
BRANCH   1   2
ATOM      2  C   UNL     1      34.779 -18.609 -24.525  0.00  0.00    +0.000 C 
BRANCH   2   3
ATOM      3  C   UNL     1      35.317 -18.589 -23.091  0.00  0.00    +0.000 C 
BRANCH   3   4
ATOM      4  C   UNL     1      34.740 -19.699 -22.209  0.00  0.00    +0.000 C 
BRANCH   4   5
ATOM      5  C   UNL     1      33.986 -19.118 -21.011  0.00  0.00    +0.000 C 
BRANCH   5   6
ATOM      6  C   UNL     1      32.903 -20.077 -20.517  0.00  0.00    +0.000 C 
ATOM      7  C   UNL     1      33.498 -21.219 -19.707  0.00  0.00    +0.000 C 
ENDBRANCH   5   6
ENDBRANCH   4   5
ENDBRANCH   3   4
ENDBRANCH   2   3
ENDBRANCH   1   2
BRANCH   1   8
ATOM      8  C   UNL     1      34.799 -16.128 -24.055  0.00  0.00    +0.004 C 
BRANCH   8   9
ATOM      9  C   UNL     1      33.727 -15.035 -24.013  0.00  0.00    +0.047 C 
BRANCH   9  10
ATOM     10  C   UNL     1      33.126 -14.765 -25.386  0.00  0.00    +0.209 C 
BRANCH  10  11
ATOM     11  O   UNL     1      33.280 -13.393 -25.722  0.00  0.00    -0.441 OA
BRANCH  11  13
ATOM     12  O   UNL     1      34.029 -13.627 -27.901  0.00  0.00    -0.238 OA
ATOM     13  C   UNL     1      33.316 -13.111 -27.054  0.00  0.00    +0.418 C 
ENDBRANCH  11  13
ENDBRANCH  10  11
ENDBRANCH   9  10
ENDBRANCH   8   9
ENDBRANCH   1   8
TORSDOF 10
ENDMDL
MODEL 7
REMARK VINA RESULT:      -5.8      5.050      7.960
REMARK  Name = 79541
REMARK  10 active torsions:
REMARK  status: ('A' for Active; 'I' for Inactive)
REMARK    1  A    between atoms: C_1  and  C_2
REMARK    2  A    between atoms: C_1  and  C_8
REMARK    3  A    between atoms: C_2  and  C_3
REMARK    4  A    between atoms: C_3  and  C_4
REMARK    5  A    between atoms: C_4  and  C_5
REMARK    6  A    between atoms: C_5  and  C_6
REMARK    7  A    between atoms: C_8  and  C_9
REMARK    8  A    between atoms: C_9  and  C_10
REMARK    9  A    between atoms: C_10  and  O_11
REMARK   10  A    between atoms: O_11  and  C_13
REMARK                            x       y       z     vdW  Elec       q    Type
REMARK                         _______ _______ _______ _____ _____    ______ ____
ROOT
ATOM      1  C   UNL     1      33.740 -20.460 -20.260  0.00  0.00    +0.000 C 
ENDROOT
BRANCH   1   2
ATOM      2  C   UNL     1      33.677 -19.386 -21.349  0.00  0.00    +0.000 C 
BRANCH   2   3
ATOM      3  C   UNL     1      34.894 -18.456 -21.358  0.00  0.00    +0.000 C 
BRANCH   3   4
ATOM      4  C   UNL     1      35.581 -18.365 -22.722  0.00  0.00    +0.000 C 
BRANCH   4   5
ATOM      5  C   UNL     1      34.868 -19.233 -23.761  0.00  0.00    +0.000 C 
BRANCH   5   6
ATOM      6  C   UNL     1      34.435 -18.410 -24.973  0.00  0.00    +0.000 C 
ATOM      7  C   UNL     1      34.779 -16.939 -24.799  0.00  0.00    +0.000 C 
ENDBRANCH   5   6
ENDBRANCH   4   5
ENDBRANCH   3   4
ENDBRANCH   2   3
ENDBRANCH   1   2
BRANCH   1   8
ATOM      8  C   UNL     1      35.189 -20.844 -19.946  0.00  0.00    +0.004 C 
BRANCH   8   9
ATOM      9  C   UNL     1      35.251 -22.011 -18.956  0.00  0.00    +0.047 C 
BRANCH   9  10
ATOM     10  C   UNL     1      36.384 -21.854 -17.950  0.00  0.00    +0.209 C 
BRANCH  10  11
ATOM     11  O   UNL     1      36.149 -22.682 -16.821  0.00  0.00    -0.441 OA
BRANCH  11  13
ATOM     12  O   UNL     1      38.279 -22.960 -15.956  0.00  0.00    -0.238 OA
ATOM     13  C   UNL     1      37.104 -22.644 -15.850  0.00  0.00    +0.418 C 
ENDBRANCH  11  13
ENDBRANCH  10  11
ENDBRANCH   9  10
ENDBRANCH   8   9
ENDBRANCH   1   8
TORSDOF 10
ENDMDL
MODEL 8
REMARK VINA RESULT:      -5.8      1.686      2.140
REMARK  Name = 79541
REMARK  10 active torsions:
REMARK  status: ('A' for Active; 'I' for Inactive)
REMARK    1  A    between atoms: C_1  and  C_2
REMARK    2  A    between atoms: C_1  and  C_8
REMARK    3  A    between atoms: C_2  and  C_3
REMARK    4  A    between atoms: C_3  and  C_4
REMARK    5  A    between atoms: C_4  and  C_5
REMARK    6  A    between atoms: C_5  and  C_6
REMARK    7  A    between atoms: C_8  and  C_9
REMARK    8  A    between atoms: C_9  and  C_10
REMARK    9  A    between atoms: C_10  and  O_11
REMARK   10  A    between atoms: O_11  and  C_13
REMARK                            x       y       z     vdW  Elec       q    Type
REMARK                         _______ _______ _______ _____ _____    ______ ____
ROOT
ATOM      1  C   UNL     1      34.762 -19.498 -22.392  0.00  0.00    +0.000 C 
ENDROOT
BRANCH   1   2
ATOM      2  C   UNL     1      33.943 -19.146 -21.148  0.00  0.00    +0.000 C 
BRANCH   2   3
ATOM      3  C   UNL     1      32.863 -20.180 -20.818  0.00  0.00    +0.000 C 
BRANCH   3   4
ATOM      4  C   UNL     1      33.122 -20.936 -19.513  0.00  0.00    +0.000 C 
BRANCH   4   5
ATOM      5  C   UNL     1      34.145 -22.057 -19.716  0.00  0.00    +0.000 C 
BRANCH   5   6
ATOM      6  C   UNL     1      35.358 -21.874 -18.805  0.00  0.00    +0.000 C 
ATOM      7  C   UNL     1      36.524 -21.242 -19.549  0.00  0.00    +0.000 C 
ENDBRANCH   5   6
ENDBRANCH   4   5
ENDBRANCH   3   4
ENDBRANCH   2   3
ENDBRANCH   1   2
BRANCH   1   8
ATOM      8  C   UNL     1      35.475 -18.263 -22.952  0.00  0.00    +0.004 C 
BRANCH   8   9
ATOM      9  C   UNL     1      34.949 -17.902 -24.344  0.00  0.00    +0.047 C 
BRANCH   9  10
ATOM     10  C   UNL     1      34.681 -16.409 -24.489  0.00  0.00    +0.209 C 
BRANCH  10  11
ATOM     11  O   UNL     1      35.250 -15.706 -23.393  0.00  0.00    -0.441 OA
BRANCH  11  13
ATOM     12  O   UNL     1      34.232 -13.637 -23.179  0.00  0.00    -0.238 OA
ATOM     13  C   UNL     1      34.444 -14.779 -22.803  0.00  0.00    +0.418 C 
ENDBRANCH  11  13
ENDBRANCH  10  11
ENDBRANCH   9  10
ENDBRANCH   8   9
ENDBRANCH   1   8
TORSDOF 10
ENDMDL
MODEL 9
REMARK VINA RESULT:      -5.8      2.211      3.621
REMARK  Name = 79541
REMARK  10 active torsions:
REMARK  status: ('A' for Active; 'I' for Inactive)
REMARK    1  A    between atoms: C_1  and  C_2
REMARK    2  A    between atoms: C_1  and  C_8
REMARK    3  A    between atoms: C_2  and  C_3
REMARK    4  A    between atoms: C_3  and  C_4
REMARK    5  A    between atoms: C_4  and  C_5
REMARK    6  A    between atoms: C_5  and  C_6
REMARK    7  A    between atoms: C_8  and  C_9
REMARK    8  A    between atoms: C_9  and  C_10
REMARK    9  A    between atoms: C_10  and  O_11
REMARK   10  A    between atoms: O_11  and  C_13
REMARK                            x       y       z     vdW  Elec       q    Type
REMARK                         _______ _______ _______ _____ _____    ______ ____
ROOT
ATOM      1  C   UNL     1      35.303 -19.013 -24.049  0.00  0.00    +0.000 C 
ENDROOT
BRANCH   1   2
ATOM      2  C   UNL     1      35.706 -18.420 -22.697  0.00  0.00    +0.000 C 
BRANCH   2   3
ATOM      3  C   UNL     1      34.715 -18.737 -21.573  0.00  0.00    +0.000 C 
BRANCH   3   4
ATOM      4  C   UNL     1      33.912 -17.520 -21.109  0.00  0.00    +0.000 C 
BRANCH   4   5
ATOM      5  C   UNL     1      34.796 -16.275 -21.017  0.00  0.00    +0.000 C 
BRANCH   5   6
ATOM      6  C   UNL     1      34.056 -15.030 -21.507  0.00  0.00    +0.000 C 
ATOM      7  C   UNL     1      32.849 -14.720 -20.636  0.00  0.00    +0.000 C 
ENDBRANCH   5   6
ENDBRANCH   4   5
ENDBRANCH   3   4
ENDBRANCH   2   3
ENDBRANCH   1   2
BRANCH   1   8
ATOM      8  C   UNL     1      34.225 -18.162 -24.726  0.00  0.00    +0.004 C 
BRANCH   8   9
ATOM      9  C   UNL     1      34.796 -16.829 -25.217  0.00  0.00    +0.047 C 
BRANCH   9  10
ATOM     10  C   UNL     1      33.742 -15.730 -25.257  0.00  0.00    +0.209 C 
BRANCH  10  11
ATOM     11  O   UNL     1      33.417 -15.419 -26.604  0.00  0.00    -0.441 OA
BRANCH  11  13
ATOM     12  O   UNL     1      33.741 -13.456 -27.790  0.00  0.00    -0.238 OA
ATOM     13  C   UNL     1      33.239 -14.096 -26.880  0.00  0.00    +0.418 C 
ENDBRANCH  11  13
ENDBRANCH  10  11
ENDBRANCH   9  10
ENDBRANCH   8   9
ENDBRANCH   1   8
TORSDOF 10
ENDMDL
