MODEL 1
REMARK VINA RESULT:      -9.3      0.000      0.000
REMARK  Name = 5757
REMARK  2 active torsions:
REMARK  status: ('A' for Active; 'I' for Inactive)
REMARK    1  A    between atoms: C_5  and  O_19
REMARK    2  A    between atoms: C_18  and  O_21
REMARK                            x       y       z     vdW  Elec       q    Type
REMARK                         _______ _______ _______ _____ _____    ______ ____
ROOT
ATOM      1  C   UNL     1      34.419 -18.925 -21.656  0.00  0.00    +0.025 C 
ATOM      2  C   UNL     1      35.635 -19.811 -21.321  0.00  0.00    +0.003 C 
ATOM      3  C   UNL     1      35.535 -20.423 -19.924  0.00  0.00    +0.004 C 
ATOM      4  C   UNL     1      34.269 -21.331 -19.866  0.00  0.00    +0.022 C 
ATOM      5  C   UNL     1      34.851 -18.428 -23.050  0.00  0.00    +0.110 C 
ATOM      6  C   UNL     1      33.167 -19.810 -21.646  0.00  0.00    +0.003 C 
ATOM      7  C   UNL     1      36.828 -18.923 -21.665  0.00  0.00    +0.003 C 
ATOM      8  C   UNL     1      33.000 -20.552 -20.306  0.00  0.00    +0.004 C 
ATOM      9  C   UNL     1      36.351 -18.115 -22.886  0.00  0.00    +0.029 C 
ATOM     10  C   UNL     1      36.764 -21.259 -19.559  0.00  0.00    +0.005 C 
ATOM     11  C   UNL     1      34.206 -17.725 -20.699  0.00  0.00    +0.002 C 
ATOM     12  C   UNL     1      34.158 -22.040 -18.519  0.00  0.00    -0.026 C 
ATOM     13  C   UNL     1      36.664 -21.719 -18.107  0.00  0.00    +0.026 C 
ATOM     14  C   UNL     1      35.305 -22.251 -17.724  0.00  0.00    -0.023 C 
ATOM     15  C   UNL     1      32.936 -22.578 -18.079  0.00  0.00    -0.001 C 
ATOM     16  C   UNL     1      35.193 -22.938 -16.501  0.00  0.00    +0.032 C 
ATOM     17  C   UNL     1      32.840 -23.265 -16.867  0.00  0.00    +0.036 C 
ATOM     18  C   UNL     1      33.967 -23.441 -16.075  0.00  0.00    +0.133 C 
ENDROOT
BRANCH   5  19
ATOM     19  O   UNL     1      34.123 -17.296 -23.483  0.00  0.00    -0.384 OA
ATOM     20  H   UNL     1      33.280 -17.581 -23.868  0.00  0.00    +0.210 HD
ENDBRANCH   5  19
BRANCH  18  21
ATOM     21  O   UNL     1      33.876 -24.106 -14.893  0.00  0.00    -0.506 OA
ATOM     22  H   UNL     1      33.241 -23.847 -14.256  0.00  0.00    +0.292 HD
ENDBRANCH  18  21
TORSDOF 2
ENDMDL
MODEL 2
REMARK VINA RESULT:      -8.8      3.098      7.746
REMARK  Name = 5757
REMARK  2 active torsions:
REMARK  status: ('A' for Active; 'I' for Inactive)
REMARK    1  A    between atoms: C_5  and  O_19
REMARK    2  A    between atoms: C_18  and  O_21
REMARK                            x       y       z     vdW  Elec       q    Type
REMARK                         _______ _______ _______ _____ _____    ______ ____
ROOT
ATOM      1  C   UNL     1      36.523 -25.212 -13.840  0.00  0.00    +0.025 C 
ATOM      2  C   UNL     1      37.199 -23.927 -14.356  0.00  0.00    +0.003 C 
ATOM      3  C   UNL     1      36.678 -23.512 -15.731  0.00  0.00    +0.004 C 
ATOM      4  C   UNL     1      35.151 -23.221 -15.618  0.00  0.00    +0.022 C 
ATOM      5  C   UNL     1      37.294 -25.385 -12.516  0.00  0.00    +0.110 C 
ATOM      6  C   UNL     1      35.023 -24.932 -13.681  0.00  0.00    +0.003 C 
ATOM      7  C   UNL     1      38.688 -24.211 -14.175  0.00  0.00    +0.003 C 
ATOM      8  C   UNL     1      34.394 -24.423 -14.992  0.00  0.00    +0.004 C 
ATOM      9  C   UNL     1      38.752 -25.056 -12.889  0.00  0.00    +0.029 C 
ATOM     10  C   UNL     1      37.383 -22.269 -16.277  0.00  0.00    +0.005 C 
ATOM     11  C   UNL     1      36.718 -26.457 -14.743  0.00  0.00    +0.002 C 
ATOM     12  C   UNL     1      34.584 -22.719 -16.944  0.00  0.00    -0.026 C 
ATOM     13  C   UNL     1      36.919 -21.996 -17.705  0.00  0.00    +0.026 C 
ATOM     14  C   UNL     1      35.426 -22.107 -17.897  0.00  0.00    -0.023 C 
ATOM     15  C   UNL     1      33.205 -22.771 -17.212  0.00  0.00    -0.001 C 
ATOM     16  C   UNL     1      34.884 -21.618 -19.100  0.00  0.00    +0.032 C 
ATOM     17  C   UNL     1      32.678 -22.275 -18.405  0.00  0.00    +0.036 C 
ATOM     18  C   UNL     1      33.517 -21.702 -19.352  0.00  0.00    +0.133 C 
ENDROOT
BRANCH   5  19
ATOM     19  O   UNL     1      37.172 -26.684 -11.970  0.00  0.00    -0.384 OA
ATOM     20  H   UNL     1      36.587 -27.217 -12.531  0.00  0.00    +0.210 HD
ENDBRANCH   5  19
BRANCH  18  21
ATOM     21  O   UNL     1      33.008 -21.220 -20.517  0.00  0.00    -0.506 OA
ATOM     22  H   UNL     1      32.996 -21.759 -21.283  0.00  0.00    +0.292 HD
ENDBRANCH  18  21
TORSDOF 2
ENDMDL
MODEL 3
REMARK VINA RESULT:      -8.8      4.832      7.936
REMARK  Name = 5757
REMARK  2 active torsions:
REMARK  status: ('A' for Active; 'I' for Inactive)
REMARK    1  A    between atoms: C_5  and  O_19
REMARK    2  A    between atoms: C_18  and  O_21
REMARK                            x       y       z     vdW  Elec       q    Type
REMARK                         _______ _______ _______ _____ _____    ______ ____
ROOT
ATOM      1  C   UNL     1      36.807 -25.090 -13.418  0.00  0.00    +0.025 C 
ATOM      2  C   UNL     1      36.880 -24.003 -14.508  0.00  0.00    +0.003 C 
ATOM      3  C   UNL     1      35.580 -23.899 -15.307  0.00  0.00    +0.004 C 
ATOM      4  C   UNL     1      34.427 -23.506 -14.335  0.00  0.00    +0.022 C 
ATOM      5  C   UNL     1      38.243 -24.985 -12.867  0.00  0.00    +0.110 C 
ATOM      6  C   UNL     1      35.705 -24.699 -12.426  0.00  0.00    +0.003 C 
ATOM      7  C   UNL     1      38.183 -24.317 -15.238  0.00  0.00    +0.003 C 
ATOM      8  C   UNL     1      34.351 -24.483 -13.130  0.00  0.00    +0.004 C 
ATOM      9  C   UNL     1      39.116 -24.834 -14.127  0.00  0.00    +0.029 C 
ATOM     10  C   UNL     1      35.661 -22.863 -16.429  0.00  0.00    +0.005 C 
ATOM     11  C   UNL     1      36.536 -26.522 -13.945  0.00  0.00    +0.002 C 
ATOM     12  C   UNL     1      33.114 -23.304 -15.088  0.00  0.00    -0.026 C 
ATOM     13  C   UNL     1      34.390 -22.912 -17.272  0.00  0.00    +0.026 C 
ATOM     14  C   UNL     1      33.118 -22.983 -16.462  0.00  0.00    -0.023 C 
ATOM     15  C   UNL     1      31.879 -23.343 -14.418  0.00  0.00    -0.001 C 
ATOM     16  C   UNL     1      31.902 -22.765 -17.135  0.00  0.00    +0.032 C 
ATOM     17  C   UNL     1      30.679 -23.116 -15.095  0.00  0.00    +0.036 C 
ATOM     18  C   UNL     1      30.689 -22.832 -16.455  0.00  0.00    +0.133 C 
ENDROOT
BRANCH   5  19
ATOM     19  O   UNL     1      38.623 -26.108 -12.096  0.00  0.00    -0.384 OA
ATOM     20  H   UNL     1      39.464 -25.924 -11.650  0.00  0.00    +0.210 HD
ENDBRANCH   5  19
BRANCH  18  21
ATOM     21  O   UNL     1      29.523 -22.614 -17.117  0.00  0.00    -0.506 OA
ATOM     22  H   UNL     1      28.805 -23.206 -17.011  0.00  0.00    +0.292 HD
ENDBRANCH  18  21
TORSDOF 2
ENDMDL
MODEL 4
REMARK VINA RESULT:      -8.5      5.656      7.472
REMARK  Name = 5757
REMARK  2 active torsions:
REMARK  status: ('A' for Active; 'I' for Inactive)
REMARK    1  A    between atoms: C_5  and  O_19
REMARK    2  A    between atoms: C_18  and  O_21
REMARK                            x       y       z     vdW  Elec       q    Type
REMARK                         _______ _______ _______ _____ _____    ______ ____
ROOT
ATOM      1  C   UNL     1      30.823 -23.773 -14.852  0.00  0.00    +0.025 C 
ATOM      2  C   UNL     1      31.999 -23.657 -15.841  0.00  0.00    +0.003 C 
ATOM      3  C   UNL     1      33.303 -23.271 -15.144  0.00  0.00    +0.004 C 
ATOM      4  C   UNL     1      33.668 -24.385 -14.116  0.00  0.00    +0.022 C 
ATOM      5  C   UNL     1      29.691 -24.094 -15.848  0.00  0.00    +0.110 C 
ATOM      6  C   UNL     1      31.144 -24.894 -13.857  0.00  0.00    +0.003 C 
ATOM      7  C   UNL     1      31.448 -22.760 -16.947  0.00  0.00    +0.003 C 
ATOM      8  C   UNL     1      32.489 -24.659 -13.143  0.00  0.00    +0.004 C 
ATOM      9  C   UNL     1      29.961 -23.151 -17.037  0.00  0.00    +0.029 C 
ATOM     10  C   UNL     1      34.465 -23.098 -16.124  0.00  0.00    +0.005 C 
ATOM     11  C   UNL     1      30.500 -22.473 -14.072  0.00  0.00    +0.002 C 
ATOM     12  C   UNL     1      35.009 -24.099 -13.443  0.00  0.00    -0.026 C 
ATOM     13  C   UNL     1      35.694 -22.576 -15.384  0.00  0.00    +0.026 C 
ATOM     14  C   UNL     1      35.967 -23.278 -14.076  0.00  0.00    -0.023 C 
ATOM     15  C   UNL     1      35.358 -24.713 -12.228  0.00  0.00    -0.001 C 
ATOM     16  C   UNL     1      37.212 -23.052 -13.461  0.00  0.00    +0.032 C 
ATOM     17  C   UNL     1      36.600 -24.488 -11.632  0.00  0.00    +0.036 C 
ATOM     18  C   UNL     1      37.526 -23.653 -12.245  0.00  0.00    +0.133 C 
ENDROOT
BRANCH   5  19
ATOM     19  O   UNL     1      28.402 -23.896 -15.304  0.00  0.00    -0.384 OA
ATOM     20  H   UNL     1      28.273 -22.954 -15.111  0.00  0.00    +0.210 HD
ENDBRANCH   5  19
BRANCH  18  21
ATOM     21  O   UNL     1      38.735 -23.430 -11.665  0.00  0.00    -0.506 OA
ATOM     22  H   UNL     1      39.287 -24.152 -11.437  0.00  0.00    +0.292 HD
ENDBRANCH  18  21
TORSDOF 2
ENDMDL
MODEL 5
REMARK VINA RESULT:      -8.5      7.347     11.370
REMARK  Name = 5757
REMARK  2 active torsions:
REMARK  status: ('A' for Active; 'I' for Inactive)
REMARK    1  A    between atoms: C_5  and  O_19
REMARK    2  A    between atoms: C_18  and  O_21
REMARK                            x       y       z     vdW  Elec       q    Type
REMARK                         _______ _______ _______ _____ _____    ______ ____
ROOT
ATOM      1  C   UNL     1      33.192 -13.998 -22.276  0.00  0.00    +0.025 C 
ATOM      2  C   UNL     1      32.222 -13.521 -21.177  0.00  0.00    +0.003 C 
ATOM      3  C   UNL     1      32.380 -12.031 -20.875  0.00  0.00    +0.004 C 
ATOM      4  C   UNL     1      32.053 -11.223 -22.167  0.00  0.00    +0.022 C 
ATOM      5  C   UNL     1      32.835 -15.497 -22.289  0.00  0.00    +0.110 C 
ATOM      6  C   UNL     1      32.858 -13.243 -23.569  0.00  0.00    +0.003 C 
ATOM      7  C   UNL     1      32.426 -14.537 -20.057  0.00  0.00    +0.003 C 
ATOM      8  C   UNL     1      32.903 -11.716 -23.369  0.00  0.00    +0.004 C 
ATOM      9  C   UNL     1      32.694 -15.860 -20.799  0.00  0.00    +0.029 C 
ATOM     10  C   UNL     1      31.462 -11.560 -19.746  0.00  0.00    +0.005 C 
ATOM     11  C   UNL     1      34.694 -13.805 -21.946  0.00  0.00    +0.002 C 
ATOM     12  C   UNL     1      32.111  -9.719 -21.908  0.00  0.00    -0.026 C 
ATOM     13  C   UNL     1      31.771 -10.105 -19.400  0.00  0.00    +0.026 C 
ATOM     14  C   UNL     1      31.934  -9.209 -20.603  0.00  0.00    -0.023 C 
ATOM     15  C   UNL     1      32.251  -8.804 -22.966  0.00  0.00    -0.001 C 
ATOM     16  C   UNL     1      31.955  -7.820 -20.385  0.00  0.00    +0.032 C 
ATOM     17  C   UNL     1      32.262  -7.426 -22.737  0.00  0.00    +0.036 C 
ATOM     18  C   UNL     1      32.118  -6.934 -21.446  0.00  0.00    +0.133 C 
ENDROOT
BRANCH   5  19
ATOM     19  O   UNL     1      33.811 -16.293 -22.933  0.00  0.00    -0.384 OA
ATOM     20  H   UNL     1      33.688 -16.241 -23.894  0.00  0.00    +0.210 HD
ENDBRANCH   5  19
BRANCH  18  21
ATOM     21  O   UNL     1      32.131  -5.593 -21.220  0.00  0.00    -0.506 OA
ATOM     22  H   UNL     1      32.792  -5.057 -21.612  0.00  0.00    +0.292 HD
ENDBRANCH  18  21
TORSDOF 2
ENDMDL
MODEL 6
REMARK VINA RESULT:      -8.5      1.493      6.955
REMARK  Name = 5757
REMARK  2 active torsions:
REMARK  status: ('A' for Active; 'I' for Inactive)
REMARK    1  A    between atoms: C_5  and  O_19
REMARK    2  A    between atoms: C_18  and  O_21
REMARK                            x       y       z     vdW  Elec       q    Type
REMARK                         _______ _______ _______ _____ _____    ______ ____
ROOT
ATOM      1  C   UNL     1      36.254 -23.094 -15.694  0.00  0.00    +0.025 C 
ATOM      2  C   UNL     1      35.128 -23.528 -16.653  0.00  0.00    +0.003 C 
ATOM      3  C   UNL     1      34.708 -22.402 -17.597  0.00  0.00    +0.004 C 
ATOM      4  C   UNL     1      35.935 -22.002 -18.472  0.00  0.00    +0.022 C 
ATOM      5  C   UNL     1      36.387 -24.387 -14.866  0.00  0.00    +0.110 C 
ATOM      6  C   UNL     1      37.486 -22.736 -16.535  0.00  0.00    +0.003 C 
ATOM      7  C   UNL     1      34.089 -24.151 -15.723  0.00  0.00    +0.003 C 
ATOM      8  C   UNL     1      37.166 -21.660 -17.590  0.00  0.00    +0.004 C 
ATOM      9  C   UNL     1      34.931 -24.829 -14.626  0.00  0.00    +0.029 C 
ATOM     10  C   UNL     1      33.552 -22.805 -18.515  0.00  0.00    +0.005 C 
ATOM     11  C   UNL     1      35.899 -21.899 -14.773  0.00  0.00    +0.002 C 
ATOM     12  C   UNL     1      35.558 -20.936 -19.498  0.00  0.00    -0.026 C 
ATOM     13  C   UNL     1      33.091 -21.597 -19.327  0.00  0.00    +0.026 C 
ATOM     14  C   UNL     1      34.219 -20.789 -19.919  0.00  0.00    -0.023 C 
ATOM     15  C   UNL     1      36.540 -20.139 -20.112  0.00  0.00    -0.001 C 
ATOM     16  C   UNL     1      33.892 -19.826 -20.892  0.00  0.00    +0.032 C 
ATOM     17  C   UNL     1      36.203 -19.193 -21.082  0.00  0.00    +0.036 C 
ATOM     18  C   UNL     1      34.879 -19.032 -21.469  0.00  0.00    +0.133 C 
ENDROOT
BRANCH   5  19
ATOM     19  O   UNL     1      37.085 -24.197 -13.651  0.00  0.00    -0.384 OA
ATOM     20  H   UNL     1      36.817 -23.354 -13.252  0.00  0.00    +0.210 HD
ENDBRANCH   5  19
BRANCH  18  21
ATOM     21  O   UNL     1      34.548 -18.109 -22.411  0.00  0.00    -0.506 OA
ATOM     22  H   UNL     1      33.649 -17.897 -22.565  0.00  0.00    +0.292 HD
ENDBRANCH  18  21
TORSDOF 2
ENDMDL
MODEL 7
REMARK VINA RESULT:      -8.3      8.190     11.251
REMARK  Name = 5757
REMARK  2 active torsions:
REMARK  status: ('A' for Active; 'I' for Inactive)
REMARK    1  A    between atoms: C_5  and  O_19
REMARK    2  A    between atoms: C_18  and  O_21
REMARK                            x       y       z     vdW  Elec       q    Type
REMARK                         _______ _______ _______ _____ _____    ______ ____
ROOT
ATOM      1  C   UNL     1      32.122  -8.066 -21.811  0.00  0.00    +0.025 C 
ATOM      2  C   UNL     1      32.344  -8.608 -23.237  0.00  0.00    +0.003 C 
ATOM      3  C   UNL     1      33.009  -9.985 -23.234  0.00  0.00    +0.004 C 
ATOM      4  C   UNL     1      32.074 -10.989 -22.494  0.00  0.00    +0.022 C 
ATOM      5  C   UNL     1      31.522  -6.690 -22.160  0.00  0.00    +0.110 C 
ATOM      6  C   UNL     1      31.170  -9.019 -21.080  0.00  0.00    +0.003 C 
ATOM      7  C   UNL     1      33.027  -7.449 -23.957  0.00  0.00    +0.003 C 
ATOM      8  C   UNL     1      31.696 -10.468 -21.081  0.00  0.00    +0.004 C 
ATOM      9  C   UNL     1      32.382  -6.195 -23.338  0.00  0.00    +0.029 C 
ATOM     10  C   UNL     1      33.285 -10.507 -24.645  0.00  0.00    +0.005 C 
ATOM     11  C   UNL     1      33.415  -7.892 -20.974  0.00  0.00    +0.002 C 
ATOM     12  C   UNL     1      32.645 -12.405 -22.530  0.00  0.00    -0.026 C 
ATOM     13  C   UNL     1      34.075 -11.811 -24.569  0.00  0.00    +0.026 C 
ATOM     14  C   UNL     1      33.554 -12.785 -23.540  0.00  0.00    -0.023 C 
ATOM     15  C   UNL     1      32.215 -13.385 -21.618  0.00  0.00    -0.001 C 
ATOM     16  C   UNL     1      34.045 -14.103 -23.581  0.00  0.00    +0.032 C 
ATOM     17  C   UNL     1      32.703 -14.692 -21.675  0.00  0.00    +0.036 C 
ATOM     18  C   UNL     1      33.622 -15.051 -22.653  0.00  0.00    +0.133 C 
ENDROOT
BRANCH   5  19
ATOM     19  O   UNL     1      31.548  -5.784 -21.074  0.00  0.00    -0.384 OA
ATOM     20  H   UNL     1      31.963  -4.954 -21.355  0.00  0.00    +0.210 HD
ENDBRANCH   5  19
BRANCH  18  21
ATOM     21  O   UNL     1      34.101 -16.322 -22.709  0.00  0.00    -0.506 OA
ATOM     22  H   UNL     1      34.092 -16.791 -23.519  0.00  0.00    +0.292 HD
ENDBRANCH  18  21
TORSDOF 2
ENDMDL
MODEL 8
REMARK VINA RESULT:      -8.0     13.558     16.343
REMARK  Name = 5757
REMARK  2 active torsions:
REMARK  status: ('A' for Active; 'I' for Inactive)
REMARK    1  A    between atoms: C_5  and  O_19
REMARK    2  A    between atoms: C_18  and  O_21
REMARK                            x       y       z     vdW  Elec       q    Type
REMARK                         _______ _______ _______ _____ _____    ______ ____
ROOT
ATOM      1  C   UNL     1      32.320  -3.481 -26.605  0.00  0.00    +0.025 C 
ATOM      2  C   UNL     1      33.041  -4.840 -26.707  0.00  0.00    +0.003 C 
ATOM      3  C   UNL     1      33.371  -5.423 -25.334  0.00  0.00    +0.004 C 
ATOM      4  C   UNL     1      32.039  -5.661 -24.559  0.00  0.00    +0.022 C 
ATOM      5  C   UNL     1      32.198  -3.151 -28.105  0.00  0.00    +0.110 C 
ATOM      6  C   UNL     1      30.985  -3.702 -25.882  0.00  0.00    +0.003 C 
ATOM      7  C   UNL     1      34.171  -4.569 -27.697  0.00  0.00    +0.003 C 
ATOM      8  C   UNL     1      31.182  -4.367 -24.506  0.00  0.00    +0.004 C 
ATOM      9  C   UNL     1      33.563  -3.562 -28.690  0.00  0.00    +0.029 C 
ATOM     10  C   UNL     1      34.137  -6.744 -25.425  0.00  0.00    +0.005 C 
ATOM     11  C   UNL     1      33.121  -2.374 -25.873  0.00  0.00    +0.002 C 
ATOM     12  C   UNL     1      32.297  -6.322 -23.207  0.00  0.00    -0.026 C 
ATOM     13  C   UNL     1      34.558  -7.195 -24.029  0.00  0.00    +0.026 C 
ATOM     14  C   UNL     1      33.470  -7.076 -22.990  0.00  0.00    -0.023 C 
ATOM     15  C   UNL     1      31.338  -6.273 -22.180  0.00  0.00    -0.001 C 
ATOM     16  C   UNL     1      33.677  -7.709 -21.751  0.00  0.00    +0.032 C 
ATOM     17  C   UNL     1      31.552  -6.913 -20.958  0.00  0.00    +0.036 C 
ATOM     18  C   UNL     1      32.723  -7.627 -20.740  0.00  0.00    +0.133 C 
ENDROOT
BRANCH   5  19
ATOM     19  O   UNL     1      31.910  -1.788 -28.350  0.00  0.00    -0.384 OA
ATOM     20  H   UNL     1      31.463  -1.408 -27.578  0.00  0.00    +0.210 HD
ENDBRANCH   5  19
BRANCH  18  21
ATOM     21  O   UNL     1      32.935  -8.249 -19.550  0.00  0.00    -0.506 OA
ATOM     22  H   UNL     1      33.786  -8.578 -19.337  0.00  0.00    +0.292 HD
ENDBRANCH  18  21
TORSDOF 2
ENDMDL
MODEL 9
REMARK VINA RESULT:      -7.9      9.203     12.201
REMARK  Name = 5757
REMARK  2 active torsions:
REMARK  status: ('A' for Active; 'I' for Inactive)
REMARK    1  A    between atoms: C_5  and  O_19
REMARK    2  A    between atoms: C_18  and  O_21
REMARK                            x       y       z     vdW  Elec       q    Type
REMARK                         _______ _______ _______ _____ _____    ______ ____
ROOT
ATOM      1  C   UNL     1      31.905  -7.031 -23.453  0.00  0.00    +0.025 C 
ATOM      2  C   UNL     1      32.118  -7.424 -21.978  0.00  0.00    +0.003 C 
ATOM      3  C   UNL     1      31.809  -8.899 -21.724  0.00  0.00    +0.004 C 
ATOM      4  C   UNL     1      32.780  -9.767 -22.581  0.00  0.00    +0.022 C 
ATOM      5  C   UNL     1      32.225  -5.526 -23.358  0.00  0.00    +0.110 C 
ATOM      6  C   UNL     1      32.883  -7.845 -24.310  0.00  0.00    +0.003 C 
ATOM      7  C   UNL     1      31.346  -6.355 -21.210  0.00  0.00    +0.003 C 
ATOM      8  C   UNL     1      32.724  -9.360 -24.078  0.00  0.00    +0.004 C 
ATOM      9  C   UNL     1      31.535  -5.080 -22.054  0.00  0.00    +0.029 C 
ATOM     10  C   UNL     1      31.963  -9.286 -20.252  0.00  0.00    +0.005 C 
ATOM     11  C   UNL     1      30.463  -7.243 -23.981  0.00  0.00    +0.002 C 
ATOM     12  C   UNL     1      32.578 -11.256 -22.307  0.00  0.00    -0.026 C 
ATOM     13  C   UNL     1      31.503 -10.727 -20.045  0.00  0.00    +0.026 C 
ATOM     14  C   UNL     1      32.013 -11.690 -21.089  0.00  0.00    -0.023 C 
ATOM     15  C   UNL     1      33.027 -12.229 -23.216  0.00  0.00    -0.001 C 
ATOM     16  C   UNL     1      31.866 -13.066 -20.836  0.00  0.00    +0.032 C 
ATOM     17  C   UNL     1      32.883 -13.592 -22.950  0.00  0.00    +0.036 C 
ATOM     18  C   UNL     1      32.298 -14.012 -21.762  0.00  0.00    +0.133 C 
ENDROOT
BRANCH   5  19
ATOM     19  O   UNL     1      31.762  -4.791 -24.474  0.00  0.00    -0.384 OA
ATOM     20  H   UNL     1      32.514  -4.364 -24.914  0.00  0.00    +0.210 HD
ENDBRANCH   5  19
BRANCH  18  21
ATOM     21  O   UNL     1      32.153 -15.338 -21.501  0.00  0.00    -0.506 OA
ATOM     22  H   UNL     1      31.816 -15.912 -22.161  0.00  0.00    +0.292 HD
ENDBRANCH  18  21
TORSDOF 2
ENDMDL
