MODEL 1
REMARK VINA RESULT:      -7.5      0.000      0.000
REMARK  Name = 6923772
REMARK  5 active torsions:
REMARK  status: ('A' for Active; 'I' for Inactive)
REMARK    1  A    between atoms: C_1  and  C_3
REMARK    2  A    between atoms: C_1  and  C_9
REMARK    3  A    between atoms: C_1  and  C_14
REMARK    4  A    between atoms: C_9  and  N_10
REMARK    5  A    between atoms: C_14  and  C_17
REMARK                            x       y       z     vdW  Elec       q    Type
REMARK                         _______ _______ _______ _____ _____    ______ ____
ROOT
ATOM      1  C   UNL     1      34.904 -18.322 -21.842  0.00  0.00    +0.012 C 
ENDROOT
BRANCH   1   3
ATOM      2 CL   UNL     1      33.671 -23.041 -18.343  0.00  0.00    -0.082 Cl
ATOM      3  C   UNL     1      34.591 -19.519 -20.954  0.00  0.00    -0.024 C 
ATOM      4  C   UNL     1      35.635 -20.286 -20.478  0.00  0.00    -0.003 C 
ATOM      5  C   UNL     1      33.274 -19.799 -20.653  0.00  0.00    -0.003 C 
ATOM      6  C   UNL     1      35.348 -21.382 -19.665  0.00  0.00    +0.011 C 
ATOM      7  C   UNL     1      32.988 -20.896 -19.841  0.00  0.00    +0.011 C 
ATOM      8  C   UNL     1      34.025 -21.687 -19.346  0.00  0.00    +0.058 C 
ENDBRANCH   1   3
BRANCH   1   9
ATOM      9  C   UNL     1      34.783 -18.660 -23.339  0.00  0.00    -0.081 C 
BRANCH   9  10
ATOM     10  N   UNL     1      35.416 -17.597 -24.161  0.00  0.00    +0.381 N 
ATOM     11  H   UNL     1      35.451 -16.729 -23.625  0.00  0.00    -0.089 HD
ATOM     12  H   UNL     1      34.868 -17.451 -25.008  0.00  0.00    -0.089 HD
ATOM     13  H   UNL     1      36.363 -17.879 -24.411  0.00  0.00    -0.089 HD
ENDBRANCH   9  10
ENDBRANCH   1   9
BRANCH   1  14
ATOM     14  C   UNL     1      33.991 -17.124 -21.516  0.00  0.00    +0.116 C 
BRANCH  14  17
ATOM     15  O   UNL     1      34.994 -15.175 -22.386  0.00  0.00    -0.246 OA
ATOM     16  O   UNL     1      34.905 -15.432 -20.118  0.00  0.00    -0.246 OA
ATOM     17  C   UNL     1      34.706 -15.781 -21.315  0.00  0.00    +0.365 C 
ENDBRANCH  14  17
ENDBRANCH   1  14
TORSDOF 5
ENDMDL
MODEL 2
REMARK VINA RESULT:      -7.5      0.066      1.293
REMARK  Name = 6923772
REMARK  5 active torsions:
REMARK  status: ('A' for Active; 'I' for Inactive)
REMARK    1  A    between atoms: C_1  and  C_3
REMARK    2  A    between atoms: C_1  and  C_9
REMARK    3  A    between atoms: C_1  and  C_14
REMARK    4  A    between atoms: C_9  and  N_10
REMARK    5  A    between atoms: C_14  and  C_17
REMARK                            x       y       z     vdW  Elec       q    Type
REMARK                         _______ _______ _______ _____ _____    ______ ____
ROOT
ATOM      1  C   UNL     1      34.903 -18.282 -21.892  0.00  0.00    +0.012 C 
ENDROOT
BRANCH   1   3
ATOM      2 CL   UNL     1      33.717 -23.018 -18.400  0.00  0.00    -0.082 Cl
ATOM      3  C   UNL     1      34.602 -19.485 -21.007  0.00  0.00    -0.024 C 
ATOM      4  C   UNL     1      33.289 -19.764 -20.687  0.00  0.00    -0.003 C 
ATOM      5  C   UNL     1      35.651 -20.255 -20.552  0.00  0.00    -0.003 C 
ATOM      6  C   UNL     1      33.014 -20.864 -19.876  0.00  0.00    +0.011 C 
ATOM      7  C   UNL     1      35.375 -21.355 -19.740  0.00  0.00    +0.011 C 
ATOM      8  C   UNL     1      34.057 -21.660 -19.402  0.00  0.00    +0.058 C 
ENDBRANCH   1   3
BRANCH   1   9
ATOM      9  C   UNL     1      34.776 -18.615 -23.389  0.00  0.00    -0.081 C 
BRANCH   9  10
ATOM     10  N   UNL     1      35.366 -17.527 -24.212  0.00  0.00    +0.381 N 
ATOM     11  H   UNL     1      34.819 -16.675 -24.089  0.00  0.00    -0.089 HD
ATOM     12  H   UNL     1      35.354 -17.800 -25.194  0.00  0.00    -0.089 HD
ATOM     13  H   UNL     1      36.327 -17.360 -23.916  0.00  0.00    -0.089 HD
ENDBRANCH   9  10
ENDBRANCH   1   9
BRANCH   1  14
ATOM     14  C   UNL     1      33.986 -17.091 -21.556  0.00  0.00    +0.116 C 
BRANCH  14  17
ATOM     15  O   UNL     1      34.969 -15.116 -22.390  0.00  0.00    -0.246 OA
ATOM     16  O   UNL     1      34.909 -15.429 -20.128  0.00  0.00    -0.246 OA
ATOM     17  C   UNL     1      34.697 -15.750 -21.330  0.00  0.00    +0.365 C 
ENDBRANCH  14  17
ENDBRANCH   1  14
TORSDOF 5
ENDMDL
MODEL 3
REMARK VINA RESULT:      -7.3      1.780      2.444
REMARK  Name = 6923772
REMARK  5 active torsions:
REMARK  status: ('A' for Active; 'I' for Inactive)
REMARK    1  A    between atoms: C_1  and  C_3
REMARK    2  A    between atoms: C_1  and  C_9
REMARK    3  A    between atoms: C_1  and  C_14
REMARK    4  A    between atoms: C_9  and  N_10
REMARK    5  A    between atoms: C_14  and  C_17
REMARK                            x       y       z     vdW  Elec       q    Type
REMARK                         _______ _______ _______ _____ _____    ______ ____
ROOT
ATOM      1  C   UNL     1      34.463 -18.123 -21.844  0.00  0.00    +0.012 C 
ENDROOT
BRANCH   1   3
ATOM      2 CL   UNL     1      33.751 -23.018 -18.443  0.00  0.00    -0.082 Cl
ATOM      3  C   UNL     1      34.282 -19.365 -20.981  0.00  0.00    -0.024 C 
ATOM      4  C   UNL     1      35.398 -20.090 -20.616  0.00  0.00    -0.003 C 
ATOM      5  C   UNL     1      33.009 -19.725 -20.591  0.00  0.00    -0.003 C 
ATOM      6  C   UNL     1      35.232 -21.227 -19.826  0.00  0.00    +0.011 C 
ATOM      7  C   UNL     1      32.844 -20.863 -19.801  0.00  0.00    +0.011 C 
ATOM      8  C   UNL     1      33.955 -21.613 -19.418  0.00  0.00    +0.058 C 
ENDBRANCH   1   3
BRANCH   1   9
ATOM      9  C   UNL     1      35.014 -16.931 -21.043  0.00  0.00    -0.081 C 
BRANCH   9  10
ATOM     10  N   UNL     1      34.658 -15.652 -21.709  0.00  0.00    +0.381 N 
ATOM     11  H   UNL     1      34.244 -15.848 -22.621  0.00  0.00    -0.089 HD
ATOM     12  H   UNL     1      35.498 -15.087 -21.832  0.00  0.00    -0.089 HD
ATOM     13  H   UNL     1      33.987 -15.144 -21.134  0.00  0.00    -0.089 HD
ENDBRANCH   9  10
ENDBRANCH   1   9
BRANCH   1  14
ATOM     14  C   UNL     1      35.388 -18.402 -23.045  0.00  0.00    +0.116 C 
BRANCH  14  17
ATOM     15  O   UNL     1      34.368 -18.892 -25.114  0.00  0.00    -0.246 OA
ATOM     16  O   UNL     1      34.939 -16.725 -24.669  0.00  0.00    -0.246 OA
ATOM     17  C   UNL     1      34.852 -17.958 -24.412  0.00  0.00    +0.365 C 
ENDBRANCH  14  17
ENDBRANCH   1  14
TORSDOF 5
ENDMDL
MODEL 4
REMARK VINA RESULT:      -6.9      7.358      8.674
REMARK  Name = 6923772
REMARK  5 active torsions:
REMARK  status: ('A' for Active; 'I' for Inactive)
REMARK    1  A    between atoms: C_1  and  C_3
REMARK    2  A    between atoms: C_1  and  C_9
REMARK    3  A    between atoms: C_1  and  C_14
REMARK    4  A    between atoms: C_9  and  N_10
REMARK    5  A    between atoms: C_14  and  C_17
REMARK                            x       y       z     vdW  Elec       q    Type
REMARK                         _______ _______ _______ _____ _____    ______ ____
ROOT
ATOM      1  C   UNL     1      30.316 -23.820 -15.844  0.00  0.00    +0.012 C 
ENDROOT
BRANCH   1   3
ATOM      2 CL   UNL     1      36.212 -22.790 -16.296  0.00  0.00    -0.082 Cl
ATOM      3  C   UNL     1      31.813 -23.559 -15.959  0.00  0.00    -0.024 C 
ATOM      4  C   UNL     1      32.591 -23.633 -14.821  0.00  0.00    -0.003 C 
ATOM      5  C   UNL     1      32.343 -23.256 -17.195  0.00  0.00    -0.003 C 
ATOM      6  C   UNL     1      33.960 -23.394 -14.927  0.00  0.00    +0.011 C 
ATOM      7  C   UNL     1      33.712 -23.017 -17.300  0.00  0.00    +0.011 C 
ATOM      8  C   UNL     1      34.522 -23.086 -16.166  0.00  0.00    +0.058 C 
ENDBRANCH   1   3
BRANCH   1   9
ATOM      9  C   UNL     1      29.915 -24.302 -14.439  0.00  0.00    -0.081 C 
BRANCH   9  10
ATOM     10  N   UNL     1      28.930 -25.410 -14.535  0.00  0.00    +0.381 N 
ATOM     11  H   UNL     1      28.694 -25.736 -13.598  0.00  0.00    -0.089 HD
ATOM     12  H   UNL     1      29.334 -26.179 -15.070  0.00  0.00    -0.089 HD
ATOM     13  H   UNL     1      28.087 -25.077 -15.001  0.00  0.00    -0.089 HD
ENDBRANCH   9  10
ENDBRANCH   1   9
BRANCH   1  14
ATOM     14  C   UNL     1      29.496 -22.566 -16.204  0.00  0.00    +0.116 C 
BRANCH  14  17
ATOM     15  O   UNL     1      27.498 -21.787 -17.184  0.00  0.00    -0.246 OA
ATOM     16  O   UNL     1      27.954 -24.024 -17.274  0.00  0.00    -0.246 OA
ATOM     17  C   UNL     1      28.185 -22.824 -16.957  0.00  0.00    +0.365 C 
ENDBRANCH  14  17
ENDBRANCH   1  14
TORSDOF 5
ENDMDL
MODEL 5
REMARK VINA RESULT:      -6.9      2.473      3.117
REMARK  Name = 6923772
REMARK  5 active torsions:
REMARK  status: ('A' for Active; 'I' for Inactive)
REMARK    1  A    between atoms: C_1  and  C_3
REMARK    2  A    between atoms: C_1  and  C_9
REMARK    3  A    between atoms: C_1  and  C_14
REMARK    4  A    between atoms: C_9  and  N_10
REMARK    5  A    between atoms: C_14  and  C_17
REMARK                            x       y       z     vdW  Elec       q    Type
REMARK                         _______ _______ _______ _____ _____    ______ ____
ROOT
ATOM      1  C   UNL     1      34.351 -16.785 -22.601  0.00  0.00    +0.012 C 
ENDROOT
BRANCH   1   3
ATOM      2 CL   UNL     1      35.901 -21.685 -19.500  0.00  0.00    -0.082 Cl
ATOM      3  C   UNL     1      34.744 -18.028 -21.814  0.00  0.00    -0.024 C 
ATOM      4  C   UNL     1      36.082 -18.279 -21.590  0.00  0.00    -0.003 C 
ATOM      5  C   UNL     1      33.750 -18.864 -21.350  0.00  0.00    -0.003 C 
ATOM      6  C   UNL     1      36.442 -19.417 -20.869  0.00  0.00    +0.011 C 
ATOM      7  C   UNL     1      34.111 -20.003 -20.629  0.00  0.00    +0.011 C 
ATOM      8  C   UNL     1      35.457 -20.279 -20.389  0.00  0.00    +0.058 C 
ENDBRANCH   1   3
BRANCH   1   9
ATOM      9  C   UNL     1      34.466 -15.502 -21.761  0.00  0.00    -0.081 C 
BRANCH   9  10
ATOM     10  N   UNL     1      34.564 -14.312 -22.645  0.00  0.00    +0.381 N 
ATOM     11  H   UNL     1      33.989 -14.458 -23.475  0.00  0.00    -0.089 HD
ATOM     12  H   UNL     1      35.535 -14.175 -22.923  0.00  0.00    -0.089 HD
ATOM     13  H   UNL     1      34.233 -13.488 -22.144  0.00  0.00    -0.089 HD
ENDBRANCH   9  10
ENDBRANCH   1   9
BRANCH   1  14
ATOM     14  C   UNL     1      35.200 -16.635 -23.878  0.00  0.00    +0.116 C 
BRANCH  14  17
ATOM     15  O   UNL     1      34.202 -16.070 -25.939  0.00  0.00    -0.246 OA
ATOM     16  O   UNL     1      34.345 -18.277 -25.368  0.00  0.00    -0.246 OA
ATOM     17  C   UNL     1      34.509 -17.039 -25.187  0.00  0.00    +0.365 C 
ENDBRANCH  14  17
ENDBRANCH   1  14
TORSDOF 5
ENDMDL
MODEL 6
REMARK VINA RESULT:      -6.8      4.087      5.513
REMARK  Name = 6923772
REMARK  5 active torsions:
REMARK  status: ('A' for Active; 'I' for Inactive)
REMARK    1  A    between atoms: C_1  and  C_3
REMARK    2  A    between atoms: C_1  and  C_9
REMARK    3  A    between atoms: C_1  and  C_14
REMARK    4  A    between atoms: C_9  and  N_10
REMARK    5  A    between atoms: C_14  and  C_17
REMARK                            x       y       z     vdW  Elec       q    Type
REMARK                         _______ _______ _______ _____ _____    ______ ____
ROOT
ATOM      1  C   UNL     1      34.373 -19.950 -20.479  0.00  0.00    +0.012 C 
ENDROOT
BRANCH   1   3
ATOM      2 CL   UNL     1      34.955 -16.174 -25.109  0.00  0.00    -0.082 Cl
ATOM      3  C   UNL     1      34.520 -18.992 -21.654  0.00  0.00    -0.024 C 
ATOM      4  C   UNL     1      34.751 -19.511 -22.911  0.00  0.00    -0.003 C 
ATOM      5  C   UNL     1      34.419 -17.636 -21.424  0.00  0.00    -0.003 C 
ATOM      6  C   UNL     1      34.886 -18.633 -23.987  0.00  0.00    +0.011 C 
ATOM      7  C   UNL     1      34.555 -16.759 -22.500  0.00  0.00    +0.011 C 
ATOM      8  C   UNL     1      34.788 -17.257 -23.781  0.00  0.00    +0.058 C 
ENDBRANCH   1   3
BRANCH   1   9
ATOM      9  C   UNL     1      33.037 -20.711 -20.512  0.00  0.00    -0.081 C 
BRANCH   9  10
ATOM     10  N   UNL     1      32.678 -21.184 -19.150  0.00  0.00    +0.381 N 
ATOM     11  H   UNL     1      33.493 -21.113 -18.540  0.00  0.00    -0.089 HD
ATOM     12  H   UNL     1      32.373 -22.155 -19.196  0.00  0.00    -0.089 HD
ATOM     13  H   UNL     1      31.925 -20.607 -18.777  0.00  0.00    -0.089 HD
ENDBRANCH   9  10
ENDBRANCH   1   9
BRANCH   1  14
ATOM     14  C   UNL     1      35.534 -20.961 -20.428  0.00  0.00    +0.116 C 
BRANCH  14  17
ATOM     15  O   UNL     1      35.419 -22.437 -18.592  0.00  0.00    -0.246 OA
ATOM     16  O   UNL     1      36.859 -20.667 -18.477  0.00  0.00    -0.246 OA
ATOM     17  C   UNL     1      35.981 -21.389 -19.024  0.00  0.00    +0.365 C 
ENDBRANCH  14  17
ENDBRANCH   1  14
TORSDOF 5
ENDMDL
MODEL 7
REMARK VINA RESULT:      -6.8      4.156      5.640
REMARK  Name = 6923772
REMARK  5 active torsions:
REMARK  status: ('A' for Active; 'I' for Inactive)
REMARK    1  A    between atoms: C_1  and  C_3
REMARK    2  A    between atoms: C_1  and  C_9
REMARK    3  A    between atoms: C_1  and  C_14
REMARK    4  A    between atoms: C_9  and  N_10
REMARK    5  A    between atoms: C_14  and  C_17
REMARK                            x       y       z     vdW  Elec       q    Type
REMARK                         _______ _______ _______ _____ _____    ______ ____
ROOT
ATOM      1  C   UNL     1      35.190 -19.174 -21.883  0.00  0.00    +0.012 C 
ENDROOT
BRANCH   1   3
ATOM      2 CL   UNL     1      33.630 -15.251 -26.150  0.00  0.00    -0.082 Cl
ATOM      3  C   UNL     1      34.795 -18.179 -22.966  0.00  0.00    -0.024 C 
ATOM      4  C   UNL     1      34.596 -16.859 -22.616  0.00  0.00    -0.003 C 
ATOM      5  C   UNL     1      34.647 -18.628 -24.262  0.00  0.00    -0.003 C 
ATOM      6  C   UNL     1      34.234 -15.948 -23.608  0.00  0.00    +0.011 C 
ATOM      7  C   UNL     1      34.284 -17.716 -25.253  0.00  0.00    +0.011 C 
ATOM      8  C   UNL     1      34.078 -16.376 -24.926  0.00  0.00    +0.058 C 
ENDBRANCH   1   3
BRANCH   1   9
ATOM      9  C   UNL     1      36.589 -18.889 -21.311  0.00  0.00    -0.081 C 
BRANCH   9  10
ATOM     10  N   UNL     1      36.830 -19.713 -20.099  0.00  0.00    +0.381 N 
ATOM     11  H   UNL     1      37.124 -20.649 -20.378  0.00  0.00    -0.089 HD
ATOM     12  H   UNL     1      35.970 -19.775 -19.554  0.00  0.00    -0.089 HD
ATOM     13  H   UNL     1      37.561 -19.281 -19.534  0.00  0.00    -0.089 HD
ENDBRANCH   9  10
ENDBRANCH   1   9
BRANCH   1  14
ATOM     14  C   UNL     1      34.164 -19.193 -20.733  0.00  0.00    +0.116 C 
BRANCH  14  17
ATOM     15  O   UNL     1      32.420 -20.780 -20.703  0.00  0.00    -0.246 OA
ATOM     16  O   UNL     1      34.422 -21.345 -19.758  0.00  0.00    -0.246 OA
ATOM     17  C   UNL     1      33.618 -20.575 -20.353  0.00  0.00    +0.365 C 
ENDBRANCH  14  17
ENDBRANCH   1  14
TORSDOF 5
ENDMDL
MODEL 8
REMARK VINA RESULT:      -6.6     10.542     11.880
REMARK  Name = 6923772
REMARK  5 active torsions:
REMARK  status: ('A' for Active; 'I' for Inactive)
REMARK    1  A    between atoms: C_1  and  C_3
REMARK    2  A    between atoms: C_1  and  C_9
REMARK    3  A    between atoms: C_1  and  C_14
REMARK    4  A    between atoms: C_9  and  N_10
REMARK    5  A    between atoms: C_14  and  C_17
REMARK                            x       y       z     vdW  Elec       q    Type
REMARK                         _______ _______ _______ _____ _____    ______ ____
ROOT
ATOM      1  C   UNL     1      31.971  -7.870 -21.757  0.00  0.00    +0.012 C 
ENDROOT
BRANCH   1   3
ATOM      2 CL   UNL     1      35.748 -10.357 -25.703  0.00  0.00    -0.082 Cl
ATOM      3  C   UNL     1      32.930  -8.501 -22.758  0.00  0.00    -0.024 C 
ATOM      4  C   UNL     1      34.028  -7.778 -23.175  0.00  0.00    -0.003 C 
ATOM      5  C   UNL     1      32.669  -9.776 -23.216  0.00  0.00    -0.003 C 
ATOM      6  C   UNL     1      34.905  -8.356 -24.092  0.00  0.00    +0.011 C 
ATOM      7  C   UNL     1      33.547 -10.353 -24.133  0.00  0.00    +0.011 C 
ATOM      8  C   UNL     1      34.665  -9.644 -24.571  0.00  0.00    +0.058 C 
ENDBRANCH   1   3
BRANCH   1   9
ATOM      9  C   UNL     1      32.249  -8.328 -20.314  0.00  0.00    -0.081 C 
BRANCH   9  10
ATOM     10  N   UNL     1      32.939  -7.254 -19.555  0.00  0.00    +0.381 N 
ATOM     11  H   UNL     1      33.230  -7.614 -18.646  0.00  0.00    -0.089 HD
ATOM     12  H   UNL     1      32.302  -6.469 -19.421  0.00  0.00    -0.089 HD
ATOM     13  H   UNL     1      33.759  -6.942 -20.075  0.00  0.00    -0.089 HD
ENDBRANCH   9  10
ENDBRANCH   1   9
BRANCH   1  14
ATOM     14  C   UNL     1      32.022  -6.331 -21.821  0.00  0.00    +0.116 C 
BRANCH  14  17
ATOM     15  O   UNL     1      30.039  -5.061 -21.937  0.00  0.00    -0.246 OA
ATOM     16  O   UNL     1      30.989  -5.774 -23.887  0.00  0.00    -0.246 OA
ATOM     17  C   UNL     1      30.906  -5.663 -22.633  0.00  0.00    +0.365 C 
ENDBRANCH  14  17
ENDBRANCH   1  14
TORSDOF 5
ENDMDL
MODEL 9
REMARK VINA RESULT:      -6.6      4.169      5.556
REMARK  Name = 6923772
REMARK  5 active torsions:
REMARK  status: ('A' for Active; 'I' for Inactive)
REMARK    1  A    between atoms: C_1  and  C_3
REMARK    2  A    between atoms: C_1  and  C_9
REMARK    3  A    between atoms: C_1  and  C_14
REMARK    4  A    between atoms: C_9  and  N_10
REMARK    5  A    between atoms: C_14  and  C_17
REMARK                            x       y       z     vdW  Elec       q    Type
REMARK                         _______ _______ _______ _____ _____    ______ ____
ROOT
ATOM      1  C   UNL     1      35.410 -19.761 -21.419  0.00  0.00    +0.012 C 
ENDROOT
BRANCH   1   3
ATOM      2 CL   UNL     1      33.919 -15.849 -25.720  0.00  0.00    -0.082 Cl
ATOM      3  C   UNL     1      35.031 -18.768 -22.510  0.00  0.00    -0.024 C 
ATOM      4  C   UNL     1      34.831 -19.234 -23.794  0.00  0.00    -0.003 C 
ATOM      5  C   UNL     1      34.901 -17.435 -22.182  0.00  0.00    -0.003 C 
ATOM      6  C   UNL     1      34.484 -18.324 -24.792  0.00  0.00    +0.011 C 
ATOM      7  C   UNL     1      34.555 -16.526 -23.181  0.00  0.00    +0.011 C 
ATOM      8  C   UNL     1      34.346 -16.971 -24.487  0.00  0.00    +0.058 C 
ENDBRANCH   1   3
BRANCH   1   9
ATOM      9  C   UNL     1      36.736 -19.391 -20.730  0.00  0.00    -0.081 C 
BRANCH   9  10
ATOM     10  N   UNL     1      36.849 -20.085 -19.422  0.00  0.00    +0.381 N 
ATOM     11  H   UNL     1      37.823 -20.082 -19.119  0.00  0.00    -0.089 HD
ATOM     12  H   UNL     1      36.525 -21.047 -19.518  0.00  0.00    -0.089 HD
ATOM     13  H   UNL     1      36.277 -19.601 -18.730  0.00  0.00    -0.089 HD
ENDBRANCH   9  10
ENDBRANCH   1   9
BRANCH   1  14
ATOM     14  C   UNL     1      34.301 -19.882 -20.357  0.00  0.00    +0.116 C 
BRANCH  14  17
ATOM     15  O   UNL     1      32.651 -21.562 -20.240  0.00  0.00    -0.246 OA
ATOM     16  O   UNL     1      34.770 -22.069 -19.554  0.00  0.00    -0.246 OA
ATOM     17  C   UNL     1      33.868 -21.312 -20.009  0.00  0.00    +0.365 C 
ENDBRANCH  14  17
ENDBRANCH   1  14
TORSDOF 5
ENDMDL
