MODEL 1
REMARK VINA RESULT:      -7.4      0.000      0.000
REMARK  Name = 159772
REMARK  4 active torsions:
REMARK  status: ('A' for Active; 'I' for Inactive)
REMARK    1  A    between atoms: C_1  and  N_7
REMARK    2  A    between atoms: C_2  and  C_16
REMARK    3  A    between atoms: N_7  and  C_10
REMARK    4  A    between atoms: C_16  and  O_17
REMARK                            x       y       z     vdW  Elec       q    Type
REMARK                         _______ _______ _______ _____ _____    ______ ____
ROOT
ATOM      1  C   UNL     1      34.388 -19.086 -21.158  0.00  0.00    +0.084 C 
ATOM      2  C   UNL     1      34.399 -21.420 -19.630  0.00  0.00    +0.076 C 
ATOM      3  C   UNL     1      35.598 -19.691 -20.817  0.00  0.00    +0.019 C 
ATOM      4  C   UNL     1      33.183 -19.648 -20.735  0.00  0.00    +0.019 C 
ATOM      5  C   UNL     1      35.603 -20.858 -20.054  0.00  0.00    +0.008 C 
ATOM      6  C   UNL     1      33.190 -20.814 -19.970  0.00  0.00    +0.008 C 
ENDROOT
BRANCH   2   8
ATOM      7  O   UNL     1      34.786 -22.721 -17.661  0.00  0.00    -0.245 OA
ATOM      8  C   UNL     1      34.404 -22.636 -18.832  0.00  0.00    +0.338 C 
BRANCH   8   9
ATOM      9  O   UNL     1      33.930 -23.711 -19.519  0.00  0.00    -0.477 OA
ATOM     10  H   UNL     1      34.512 -24.227 -20.043  0.00  0.00    +0.295 HD
ENDBRANCH   8   9
ENDBRANCH   2   8
BRANCH   1  11
ATOM     11  N   UNL     1      34.383 -17.916 -21.925  0.00  0.00    -0.214 NA
BRANCH  11  14
ATOM     12  N   UNL     1      35.680 -16.955 -23.613  0.00  0.00    -0.370 N 
ATOM     13  N   UNL     1      34.646 -18.931 -24.096  0.00  0.00    -0.370 N 
ATOM     14  C   UNL     1      34.862 -17.956 -23.146  0.00  0.00    +0.193 C 
ATOM     15  H   UNL     1      35.912 -16.197 -23.030  0.00  0.00    +0.159 HD
ATOM     16  H   UNL     1      36.033 -16.996 -24.532  0.00  0.00    +0.159 HD
ATOM     17  H   UNL     1      34.076 -19.706 -23.886  0.00  0.00    +0.159 HD
ATOM     18  H   UNL     1      35.062 -18.853 -24.986  0.00  0.00    +0.159 HD
ENDBRANCH  11  14
ENDBRANCH   1  11
TORSDOF 4
ENDMDL
MODEL 2
REMARK VINA RESULT:      -7.4      0.032      1.340
REMARK  Name = 159772
REMARK  4 active torsions:
REMARK  status: ('A' for Active; 'I' for Inactive)
REMARK    1  A    between atoms: C_1  and  N_7
REMARK    2  A    between atoms: C_2  and  C_16
REMARK    3  A    between atoms: N_7  and  C_10
REMARK    4  A    between atoms: C_16  and  O_17
REMARK                            x       y       z     vdW  Elec       q    Type
REMARK                         _______ _______ _______ _____ _____    ______ ____
ROOT
ATOM      1  C   UNL     1      34.412 -19.073 -21.172  0.00  0.00    +0.084 C 
ATOM      2  C   UNL     1      34.413 -21.406 -19.640  0.00  0.00    +0.076 C 
ATOM      3  C   UNL     1      33.206 -19.628 -20.744  0.00  0.00    +0.019 C 
ATOM      4  C   UNL     1      35.620 -19.685 -20.833  0.00  0.00    +0.019 C 
ATOM      5  C   UNL     1      33.207 -20.794 -19.979  0.00  0.00    +0.008 C 
ATOM      6  C   UNL     1      35.619 -20.851 -20.068  0.00  0.00    +0.008 C 
ENDROOT
BRANCH   2   8
ATOM      7  O   UNL     1      34.808 -22.711 -17.675  0.00  0.00    -0.245 OA
ATOM      8  C   UNL     1      34.414 -22.622 -18.842  0.00  0.00    +0.338 C 
BRANCH   8   9
ATOM      9  O   UNL     1      33.922 -23.692 -19.524  0.00  0.00    -0.477 OA
ATOM     10  H   UNL     1      34.508 -24.328 -19.884  0.00  0.00    +0.295 HD
ENDBRANCH   8   9
ENDBRANCH   2   8
BRANCH   1  11
ATOM     11  N   UNL     1      34.411 -17.904 -21.939  0.00  0.00    -0.214 NA
BRANCH  11  14
ATOM     12  N   UNL     1      35.643 -16.939 -23.672  0.00  0.00    -0.370 N 
ATOM     13  N   UNL     1      34.651 -18.949 -24.098  0.00  0.00    -0.370 N 
ATOM     14  C   UNL     1      34.863 -17.953 -23.169  0.00  0.00    +0.193 C 
ATOM     15  H   UNL     1      35.869 -16.165 -23.107  0.00  0.00    +0.159 HD
ATOM     16  H   UNL     1      35.977 -16.986 -24.598  0.00  0.00    +0.159 HD
ATOM     17  H   UNL     1      34.107 -19.734 -23.862  0.00  0.00    +0.159 HD
ATOM     18  H   UNL     1      35.044 -18.875 -24.998  0.00  0.00    +0.159 HD
ENDBRANCH  11  14
ENDBRANCH   1  11
TORSDOF 4
ENDMDL
MODEL 3
REMARK VINA RESULT:      -7.1      4.294      5.787
REMARK  Name = 159772
REMARK  4 active torsions:
REMARK  status: ('A' for Active; 'I' for Inactive)
REMARK    1  A    between atoms: C_1  and  N_7
REMARK    2  A    between atoms: C_2  and  C_16
REMARK    3  A    between atoms: N_7  and  C_10
REMARK    4  A    between atoms: C_16  and  O_17
REMARK                            x       y       z     vdW  Elec       q    Type
REMARK                         _______ _______ _______ _____ _____    ______ ____
ROOT
ATOM      1  C   UNL     1      34.078 -22.134 -19.347  0.00  0.00    +0.084 C 
ATOM      2  C   UNL     1      34.759 -19.815 -20.740  0.00  0.00    +0.076 C 
ATOM      3  C   UNL     1      33.078 -21.278 -19.808  0.00  0.00    +0.019 C 
ATOM      4  C   UNL     1      35.419 -21.830 -19.582  0.00  0.00    +0.019 C 
ATOM      5  C   UNL     1      33.418 -20.119 -20.505  0.00  0.00    +0.008 C 
ATOM      6  C   UNL     1      35.759 -20.670 -20.278  0.00  0.00    +0.008 C 
ENDROOT
BRANCH   2   8
ATOM      7  O   UNL     1      35.127 -18.486 -22.695  0.00  0.00    -0.245 OA
ATOM      8  C   UNL     1      35.115 -18.605 -21.465  0.00  0.00    +0.338 C 
BRANCH   8   9
ATOM      9  O   UNL     1      35.443 -17.578 -20.635  0.00  0.00    -0.477 OA
ATOM     10  H   UNL     1      35.593 -16.722 -20.986  0.00  0.00    +0.295 HD
ENDBRANCH   8   9
ENDBRANCH   2   8
BRANCH   1  11
ATOM     11  N   UNL     1      33.736 -23.297 -18.649  0.00  0.00    -0.214 NA
BRANCH  11  14
ATOM     12  N   UNL     1      32.243 -23.175 -16.857  0.00  0.00    -0.370 N 
ATOM     13  N   UNL     1      34.469 -23.180 -16.356  0.00  0.00    -0.370 N 
ATOM     14  C   UNL     1      33.523 -23.222 -17.357  0.00  0.00    +0.193 C 
ATOM     15  H   UNL     1      31.474 -23.198 -17.471  0.00  0.00    +0.159 HD
ATOM     16  H   UNL     1      32.096 -23.118 -15.885  0.00  0.00    +0.159 HD
ATOM     17  H   UNL     1      35.427 -23.207 -16.582  0.00  0.00    +0.159 HD
ATOM     18  H   UNL     1      34.188 -23.123 -15.413  0.00  0.00    +0.159 HD
ENDBRANCH  11  14
ENDBRANCH   1  11
TORSDOF 4
ENDMDL
MODEL 4
REMARK VINA RESULT:      -7.1      8.088      9.010
REMARK  Name = 159772
REMARK  4 active torsions:
REMARK  status: ('A' for Active; 'I' for Inactive)
REMARK    1  A    between atoms: C_1  and  N_7
REMARK    2  A    between atoms: C_2  and  C_16
REMARK    3  A    between atoms: N_7  and  C_10
REMARK    4  A    between atoms: C_16  and  O_17
REMARK                            x       y       z     vdW  Elec       q    Type
REMARK                         _______ _______ _______ _____ _____    ______ ____
ROOT
ATOM      1  C   UNL     1      31.584 -24.259 -14.088  0.00  0.00    +0.084 C 
ATOM      2  C   UNL     1      29.565 -23.650 -15.916  0.00  0.00    +0.076 C 
ATOM      3  C   UNL     1      30.533 -25.154 -14.292  0.00  0.00    +0.019 C 
ATOM      4  C   UNL     1      31.624 -23.058 -14.798  0.00  0.00    +0.019 C 
ATOM      5  C   UNL     1      29.525 -24.849 -15.206  0.00  0.00    +0.008 C 
ATOM      6  C   UNL     1      30.615 -22.754 -15.711  0.00  0.00    +0.008 C 
ENDROOT
BRANCH   2   8
ATOM      7  O   UNL     1      27.788 -24.155 -17.434  0.00  0.00    -0.245 OA
ATOM      8  C   UNL     1      28.513 -23.331 -16.868  0.00  0.00    +0.338 C 
BRANCH   8   9
ATOM      9  O   UNL     1      28.395 -21.992 -17.084  0.00  0.00    -0.477 OA
ATOM     10  H   UNL     1      28.944 -21.570 -17.714  0.00  0.00    +0.295 HD
ENDBRANCH   8   9
ENDBRANCH   2   8
BRANCH   1  11
ATOM     11  N   UNL     1      32.595 -24.565 -13.172  0.00  0.00    -0.214 NA
BRANCH  11  14
ATOM     12  N   UNL     1      34.650 -23.498 -12.866  0.00  0.00    -0.370 N 
ATOM     13  N   UNL     1      34.517 -25.032 -14.550  0.00  0.00    -0.370 N 
ATOM     14  C   UNL     1      33.846 -24.394 -13.529  0.00  0.00    +0.193 C 
ATOM     15  H   UNL     1      34.289 -22.977 -12.113  0.00  0.00    +0.159 HD
ATOM     16  H   UNL     1      35.588 -23.379 -13.143  0.00  0.00    +0.159 HD
ATOM     17  H   UNL     1      34.052 -25.700 -15.104  0.00  0.00    +0.159 HD
ATOM     18  H   UNL     1      35.464 -24.820 -14.726  0.00  0.00    +0.159 HD
ENDBRANCH  11  14
ENDBRANCH   1  11
TORSDOF 4
ENDMDL
MODEL 5
REMARK VINA RESULT:      -7.0      1.104      2.021
REMARK  Name = 159772
REMARK  4 active torsions:
REMARK  status: ('A' for Active; 'I' for Inactive)
REMARK    1  A    between atoms: C_1  and  N_7
REMARK    2  A    between atoms: C_2  and  C_16
REMARK    3  A    between atoms: N_7  and  C_10
REMARK    4  A    between atoms: C_16  and  O_17
REMARK                            x       y       z     vdW  Elec       q    Type
REMARK                         _______ _______ _______ _____ _____    ______ ____
ROOT
ATOM      1  C   UNL     1      35.149 -18.337 -21.380  0.00  0.00    +0.084 C 
ATOM      2  C   UNL     1      34.448 -20.721 -20.110  0.00  0.00    +0.076 C 
ATOM      3  C   UNL     1      33.805 -18.656 -21.187  0.00  0.00    +0.019 C 
ATOM      4  C   UNL     1      36.143 -19.210 -20.937  0.00  0.00    +0.019 C 
ATOM      5  C   UNL     1      33.455 -19.847 -20.553  0.00  0.00    +0.008 C 
ATOM      6  C   UNL     1      35.793 -20.402 -20.303  0.00  0.00    +0.008 C 
ENDROOT
BRANCH   2   8
ATOM      7  O   UNL     1      32.947 -22.445 -19.408  0.00  0.00    -0.245 OA
ATOM      8  C   UNL     1      34.084 -21.964 -19.449  0.00  0.00    +0.338 C 
BRANCH   8   9
ATOM      9  O   UNL     1      35.149 -22.572 -18.860  0.00  0.00    -0.477 OA
ATOM     10  H   UNL     1      36.018 -22.264 -19.030  0.00  0.00    +0.295 HD
ENDBRANCH   8   9
ENDBRANCH   2   8
BRANCH   1  11
ATOM     11  N   UNL     1      35.500 -17.141 -22.015  0.00  0.00    -0.214 NA
BRANCH  11  14
ATOM     12  N   UNL     1      35.301 -17.635 -24.289  0.00  0.00    -0.370 N 
ATOM     13  N   UNL     1      34.101 -15.861 -23.503  0.00  0.00    -0.370 N 
ATOM     14  C   UNL     1      34.983 -16.873 -23.190  0.00  0.00    +0.193 C 
ATOM     15  H   UNL     1      35.923 -18.392 -24.199  0.00  0.00    +0.159 HD
ATOM     16  H   UNL     1      34.906 -17.424 -25.166  0.00  0.00    +0.159 HD
ATOM     17  H   UNL     1      33.792 -15.242 -22.802  0.00  0.00    +0.159 HD
ATOM     18  H   UNL     1      33.778 -15.756 -24.428  0.00  0.00    +0.159 HD
ENDBRANCH  11  14
ENDBRANCH   1  11
TORSDOF 4
ENDMDL
MODEL 6
REMARK VINA RESULT:      -6.8      4.366      5.876
REMARK  Name = 159772
REMARK  4 active torsions:
REMARK  status: ('A' for Active; 'I' for Inactive)
REMARK    1  A    between atoms: C_1  and  N_7
REMARK    2  A    between atoms: C_2  and  C_16
REMARK    3  A    between atoms: N_7  and  C_10
REMARK    4  A    between atoms: C_16  and  O_17
REMARK                            x       y       z     vdW  Elec       q    Type
REMARK                         _______ _______ _______ _____ _____    ______ ____
ROOT
ATOM      1  C   UNL     1      34.984 -19.066 -21.389  0.00  0.00    +0.084 C 
ATOM      2  C   UNL     1      34.689 -17.347 -23.567  0.00  0.00    +0.076 C 
ATOM      3  C   UNL     1      34.888 -19.586 -22.680  0.00  0.00    +0.019 C 
ATOM      4  C   UNL     1      34.933 -17.687 -21.187  0.00  0.00    +0.019 C 
ATOM      5  C   UNL     1      34.741 -18.726 -23.768  0.00  0.00    +0.008 C 
ATOM      6  C   UNL     1      34.785 -16.828 -22.276  0.00  0.00    +0.008 C 
ENDROOT
BRANCH   2   8
ATOM      7  O   UNL     1      34.868 -16.703 -25.864  0.00  0.00    -0.245 OA
ATOM      8  C   UNL     1      34.534 -16.451 -24.702  0.00  0.00    +0.338 C 
BRANCH   8   9
ATOM      9  O   UNL     1      33.964 -15.265 -24.354  0.00  0.00    -0.477 OA
ATOM     10  H   UNL     1      34.141 -14.888 -23.515  0.00  0.00    +0.295 HD
ENDBRANCH   8   9
ENDBRANCH   2   8
BRANCH   1  11
ATOM     11  N   UNL     1      35.133 -19.928 -20.298  0.00  0.00    -0.214 NA
BRANCH  11  14
ATOM     12  N   UNL     1      34.390 -22.011 -19.546  0.00  0.00    -0.370 N 
ATOM     13  N   UNL     1      32.795 -20.454 -20.036  0.00  0.00    -0.370 N 
ATOM     14  C   UNL     1      34.145 -20.731 -19.985  0.00  0.00    +0.193 C 
ATOM     15  H   UNL     1      35.316 -22.333 -19.464  0.00  0.00    +0.159 HD
ATOM     16  H   UNL     1      33.639 -22.604 -19.314  0.00  0.00    +0.159 HD
ATOM     17  H   UNL     1      32.486 -19.569 -20.335  0.00  0.00    +0.159 HD
ATOM     18  H   UNL     1      32.141 -21.142 -19.775  0.00  0.00    +0.159 HD
ENDBRANCH  11  14
ENDBRANCH   1  11
TORSDOF 4
ENDMDL
MODEL 7
REMARK VINA RESULT:      -6.7      4.882      6.606
REMARK  Name = 159772
REMARK  4 active torsions:
REMARK  status: ('A' for Active; 'I' for Inactive)
REMARK    1  A    between atoms: C_1  and  N_7
REMARK    2  A    between atoms: C_2  and  C_16
REMARK    3  A    between atoms: N_7  and  C_10
REMARK    4  A    between atoms: C_16  and  O_17
REMARK                            x       y       z     vdW  Elec       q    Type
REMARK                         _______ _______ _______ _____ _____    ______ ____
ROOT
ATOM      1  C   UNL     1      35.448 -17.722 -22.713  0.00  0.00    +0.084 C 
ATOM      2  C   UNL     1      34.128 -16.090 -24.552  0.00  0.00    +0.076 C 
ATOM      3  C   UNL     1      35.047 -16.437 -22.345  0.00  0.00    +0.019 C 
ATOM      4  C   UNL     1      35.189 -18.190 -24.002  0.00  0.00    +0.019 C 
ATOM      5  C   UNL     1      34.387 -15.622 -23.263  0.00  0.00    +0.008 C 
ATOM      6  C   UNL     1      34.530 -17.374 -24.920  0.00  0.00    +0.008 C 
ENDROOT
BRANCH   2   8
ATOM      7  O   UNL     1      33.351 -15.457 -26.723  0.00  0.00    -0.245 OA
ATOM      8  C   UNL     1      33.441 -15.239 -25.511  0.00  0.00    +0.338 C 
BRANCH   8   9
ATOM      9  O   UNL     1      32.884 -14.142 -24.929  0.00  0.00    -0.477 OA
ATOM     10  H   UNL     1      33.417 -13.400 -24.722  0.00  0.00    +0.295 HD
ENDBRANCH   8   9
ENDBRANCH   2   8
BRANCH   1  11
ATOM     11  N   UNL     1      36.109 -18.539 -21.791  0.00  0.00    -0.214 NA
BRANCH  11  14
ATOM     12  N   UNL     1      36.008 -20.139 -20.092  0.00  0.00    -0.370 N 
ATOM     13  N   UNL     1      34.031 -19.497 -21.033  0.00  0.00    -0.370 N 
ATOM     14  C   UNL     1      35.400 -19.337 -21.029  0.00  0.00    +0.193 C 
ATOM     15  H   UNL     1      36.986 -20.118 -19.988  0.00  0.00    +0.159 HD
ATOM     16  H   UNL     1      35.464 -20.733 -19.525  0.00  0.00    +0.159 HD
ATOM     17  H   UNL     1      33.476 -18.978 -21.660  0.00  0.00    +0.159 HD
ATOM     18  H   UNL     1      33.606 -20.131 -20.409  0.00  0.00    +0.159 HD
ENDBRANCH  11  14
ENDBRANCH   1  11
TORSDOF 4
ENDMDL
MODEL 8
REMARK VINA RESULT:      -6.5      2.951      4.416
REMARK  Name = 159772
REMARK  4 active torsions:
REMARK  status: ('A' for Active; 'I' for Inactive)
REMARK    1  A    between atoms: C_1  and  N_7
REMARK    2  A    between atoms: C_2  and  C_16
REMARK    3  A    between atoms: N_7  and  C_10
REMARK    4  A    between atoms: C_16  and  O_17
REMARK                            x       y       z     vdW  Elec       q    Type
REMARK                         _______ _______ _______ _____ _____    ______ ____
ROOT
ATOM      1  C   UNL     1      34.647 -16.936 -24.655  0.00  0.00    +0.084 C 
ATOM      2  C   UNL     1      35.027 -18.504 -22.378  0.00  0.00    +0.076 C 
ATOM      3  C   UNL     1      34.976 -16.335 -23.440  0.00  0.00    +0.019 C 
ATOM      4  C   UNL     1      34.509 -18.323 -24.731  0.00  0.00    +0.019 C 
ATOM      5  C   UNL     1      35.166 -17.118 -22.303  0.00  0.00    +0.008 C 
ATOM      6  C   UNL     1      34.698 -19.106 -23.593  0.00  0.00    +0.008 C 
ENDROOT
BRANCH   2   8
ATOM      7  O   UNL     1      34.438 -20.178 -20.775  0.00  0.00    -0.245 OA
ATOM      8  C   UNL     1      35.224 -19.321 -21.192  0.00  0.00    +0.338 C 
BRANCH   8   9
ATOM      9  O   UNL     1      36.398 -19.048 -20.560  0.00  0.00    -0.477 OA
ATOM     10  H   UNL     1      37.123 -19.637 -20.642  0.00  0.00    +0.295 HD
ENDBRANCH   8   9
ENDBRANCH   2   8
BRANCH   1  11
ATOM     11  N   UNL     1      34.458 -16.151 -25.796  0.00  0.00    -0.214 NA
BRANCH  11  14
ATOM     12  N   UNL     1      32.346 -15.614 -26.636  0.00  0.00    -0.370 N 
ATOM     13  N   UNL     1      33.276 -14.151 -25.153  0.00  0.00    -0.370 N 
ATOM     14  C   UNL     1      33.432 -15.335 -25.841  0.00  0.00    +0.193 C 
ATOM     15  H   UNL     1      32.333 -16.434 -27.181  0.00  0.00    +0.159 HD
ATOM     16  H   UNL     1      31.581 -14.994 -26.661  0.00  0.00    +0.159 HD
ATOM     17  H   UNL     1      33.985 -13.836 -24.547  0.00  0.00    +0.159 HD
ATOM     18  H   UNL     1      32.455 -13.618 -25.268  0.00  0.00    +0.159 HD
ENDBRANCH  11  14
ENDBRANCH   1  11
TORSDOF 4
ENDMDL
MODEL 9
REMARK VINA RESULT:      -6.5      7.916      9.008
REMARK  Name = 159772
REMARK  4 active torsions:
REMARK  status: ('A' for Active; 'I' for Inactive)
REMARK    1  A    between atoms: C_1  and  N_7
REMARK    2  A    between atoms: C_2  and  C_16
REMARK    3  A    between atoms: N_7  and  C_10
REMARK    4  A    between atoms: C_16  and  O_17
REMARK                            x       y       z     vdW  Elec       q    Type
REMARK                         _______ _______ _______ _____ _____    ______ ____
ROOT
ATOM      1  C   UNL     1      35.919 -24.590 -15.121  0.00  0.00    +0.084 C 
ATOM      2  C   UNL     1      38.683 -24.967 -15.073  0.00  0.00    +0.076 C 
ATOM      3  C   UNL     1      36.775 -23.502 -15.293  0.00  0.00    +0.019 C 
ATOM      4  C   UNL     1      36.446 -25.867 -14.925  0.00  0.00    +0.019 C 
ATOM      5  C   UNL     1      38.156 -23.690 -15.269  0.00  0.00    +0.008 C 
ATOM      6  C   UNL     1      37.827 -26.055 -14.900  0.00  0.00    +0.008 C 
ENDROOT
BRANCH   2   8
ATOM      7  O   UNL     1      40.902 -24.647 -14.238  0.00  0.00    -0.245 OA
ATOM      8  C   UNL     1      40.124 -25.164 -15.046  0.00  0.00    +0.338 C 
BRANCH   8   9
ATOM      9  O   UNL     1      40.553 -26.003 -16.029  0.00  0.00    -0.477 OA
ATOM     10  H   UNL     1      40.450 -25.762 -16.928  0.00  0.00    +0.295 HD
ENDBRANCH   8   9
ENDBRANCH   2   8
BRANCH   1  11
ATOM     11  N   UNL     1      34.534 -24.400 -15.147  0.00  0.00    -0.214 NA
BRANCH  11  14
ATOM     12  N   UNL     1      34.306 -23.698 -12.931  0.00  0.00    -0.370 N 
ATOM     13  N   UNL     1      32.714 -25.119 -13.739  0.00  0.00    -0.370 N 
ATOM     14  C   UNL     1      33.870 -24.422 -14.015  0.00  0.00    +0.193 C 
ATOM     15  H   UNL     1      35.124 -23.155 -12.999  0.00  0.00    +0.159 HD
ATOM     16  H   UNL     1      33.799 -23.722 -12.087  0.00  0.00    +0.159 HD
ATOM     17  H   UNL     1      32.298 -25.678 -14.434  0.00  0.00    +0.159 HD
ATOM     18  H   UNL     1      32.303 -25.058 -12.845  0.00  0.00    +0.159 HD
ENDBRANCH  11  14
ENDBRANCH   1  11
TORSDOF 4
ENDMDL
