MODEL 1
REMARK VINA RESULT:      -8.9      0.000      0.000
REMARK  Name = 9883933
REMARK  10 active torsions:
REMARK  status: ('A' for Active; 'I' for Inactive)
REMARK    1  A    between atoms: N_2  and  C_14
REMARK    2  A    between atoms: C_3  and  O_5
REMARK    3  A    between atoms: O_5  and  C_6
REMARK    4  A    between atoms: C_6  and  O_8
REMARK    5  A    between atoms: O_8  and  C_10
REMARK    6  A    between atoms: C_10  and  C_11
REMARK    7  A    between atoms: C_14  and  C_15
REMARK    8  A    between atoms: C_15  and  C_21
REMARK    9  A    between atoms: C_21  and  C_23
REMARK   10  A    between atoms: C_23  and  O_24
REMARK                            x       y       z     vdW  Elec       q    Type
REMARK                         _______ _______ _______ _____ _____    ______ ____
ROOT
ATOM      1  O   UNL     1      34.548 -22.848 -18.075  0.00  0.00    -0.226 OA
ATOM      2  N   UNL     1      32.239 -22.812 -17.859  0.00  0.00    -0.271 N 
ATOM      3  C   UNL     1      33.433 -22.589 -18.513  0.00  0.00    +0.404 C 
ATOM      4  H   UNL     1      31.403 -22.559 -18.312  0.00  0.00    +0.153 HD
ENDROOT
BRANCH   3   5
ATOM      5  O   UNL     1      33.188 -22.028 -19.736  0.00  0.00    -0.399 OA
BRANCH   5   6
ATOM      6  C   UNL     1      33.663 -20.678 -19.936  0.00  0.00    +0.346 C 
ATOM      7  C   UNL     1      32.487 -19.864 -20.454  0.00  0.00    +0.100 C 
BRANCH   6   8
ATOM      8  O   UNL     1      34.721 -20.646 -20.914  0.00  0.00    -0.414 OA
BRANCH   8  10
ATOM      9  O   UNL     1      36.583 -19.915 -19.763  0.00  0.00    -0.250 OA
ATOM     10  C   UNL     1      35.772 -19.808 -20.674  0.00  0.00    +0.319 C 
BRANCH  10  11
ATOM     11  C   UNL     1      35.794 -18.717 -21.729  0.00  0.00    +0.099 C 
ATOM     12  C   UNL     1      35.206 -17.434 -21.153  0.00  0.00    +0.012 C 
ATOM     13  C   UNL     1      35.030 -19.154 -22.977  0.00  0.00    +0.012 C 
ENDBRANCH  10  11
ENDBRANCH   8  10
ENDBRANCH   6   8
ENDBRANCH   5   6
ENDBRANCH   3   5
BRANCH   2  14
ATOM     14  C   UNL     1      32.155 -23.396 -16.542  0.00  0.00    +0.093 C 
BRANCH  14  15
ATOM     15  C   UNL     1      30.749 -23.221 -15.935  0.00  0.00    +0.029 C 
ATOM     16  C   UNL     1      30.829 -22.469 -14.587  0.00  0.00    +0.002 C 
ATOM     17  C   UNL     1      30.071 -24.596 -15.731  0.00  0.00    +0.002 C 
ATOM     18  C   UNL     1      31.454 -23.298 -13.465  0.00  0.00    +0.000 C 
ATOM     19  C   UNL     1      30.698 -25.421 -14.606  0.00  0.00    +0.000 C 
ATOM     20  C   UNL     1      30.752 -24.640 -13.298  0.00  0.00    +0.000 C 
BRANCH  15  21
ATOM     21  C   UNL     1      29.908 -22.390 -16.923  0.00  0.00    +0.111 C 
BRANCH  21  23
ATOM     22  O   UNL     1      27.784 -22.135 -15.754  0.00  0.00    -0.250 OA
ATOM     23  C   UNL     1      28.441 -22.583 -16.682  0.00  0.00    +0.314 C 
BRANCH  23  24
ATOM     24  O   UNL     1      27.922 -23.352 -17.673  0.00  0.00    -0.480 OA
ATOM     25  H   UNL     1      28.211 -24.237 -17.781  0.00  0.00    +0.295 HD
ENDBRANCH  23  24
ENDBRANCH  21  23
ENDBRANCH  15  21
ENDBRANCH  14  15
ENDBRANCH   2  14
TORSDOF 10
ENDMDL
MODEL 2
REMARK VINA RESULT:      -8.6      4.943      7.141
REMARK  Name = 9883933
REMARK  10 active torsions:
REMARK  status: ('A' for Active; 'I' for Inactive)
REMARK    1  A    between atoms: N_2  and  C_14
REMARK    2  A    between atoms: C_3  and  O_5
REMARK    3  A    between atoms: O_5  and  C_6
REMARK    4  A    between atoms: C_6  and  O_8
REMARK    5  A    between atoms: O_8  and  C_10
REMARK    6  A    between atoms: C_10  and  C_11
REMARK    7  A    between atoms: C_14  and  C_15
REMARK    8  A    between atoms: C_15  and  C_21
REMARK    9  A    between atoms: C_21  and  C_23
REMARK   10  A    between atoms: C_23  and  O_24
REMARK                            x       y       z     vdW  Elec       q    Type
REMARK                         _______ _______ _______ _____ _____    ______ ____
ROOT
ATOM      1  O   UNL     1      36.050 -22.126 -16.051  0.00  0.00    -0.226 OA
ATOM      2  N   UNL     1      36.562 -24.292 -15.398  0.00  0.00    -0.271 N 
ATOM      3  C   UNL     1      35.782 -23.322 -15.992  0.00  0.00    +0.404 C 
ATOM      4  H   UNL     1      36.241 -25.223 -15.412  0.00  0.00    +0.153 HD
ENDROOT
BRANCH   3   5
ATOM      5  O   UNL     1      34.654 -23.892 -16.510  0.00  0.00    -0.399 OA
BRANCH   5   6
ATOM      6  C   UNL     1      33.503 -23.033 -16.662  0.00  0.00    +0.346 C 
ATOM      7  C   UNL     1      32.468 -23.489 -15.646  0.00  0.00    +0.100 C 
BRANCH   6   8
ATOM      8  O   UNL     1      32.945 -23.151 -17.985  0.00  0.00    -0.414 OA
BRANCH   8  10
ATOM      9  O   UNL     1      34.142 -23.945 -19.791  0.00  0.00    -0.250 OA
ATOM     10  C   UNL     1      33.803 -23.038 -19.042  0.00  0.00    +0.319 C 
BRANCH  10  11
ATOM     11  C   UNL     1      34.268 -21.598 -19.158  0.00  0.00    +0.099 C 
ATOM     12  C   UNL     1      33.290 -20.811 -20.022  0.00  0.00    +0.012 C 
ATOM     13  C   UNL     1      35.681 -21.530 -19.733  0.00  0.00    +0.012 C 
ENDBRANCH  10  11
ENDBRANCH   8  10
ENDBRANCH   6   8
ENDBRANCH   5   6
ENDBRANCH   3   5
BRANCH   2  14
ATOM     14  C   UNL     1      37.824 -24.012 -14.757  0.00  0.00    +0.093 C 
BRANCH  14  15
ATOM     15  C   UNL     1      38.065 -24.942 -13.552  0.00  0.00    +0.029 C 
ATOM     16  C   UNL     1      36.752 -25.644 -13.136  0.00  0.00    +0.002 C 
ATOM     17  C   UNL     1      38.636 -24.145 -12.356  0.00  0.00    +0.002 C 
ATOM     18  C   UNL     1      35.737 -24.700 -12.490  0.00  0.00    +0.000 C 
ATOM     19  C   UNL     1      37.618 -23.205 -11.712  0.00  0.00    +0.000 C 
ATOM     20  C   UNL     1      36.343 -23.941 -11.316  0.00  0.00    +0.000 C 
BRANCH  15  21
ATOM     21  C   UNL     1      39.090 -26.011 -13.977  0.00  0.00    +0.111 C 
BRANCH  21  23
ATOM     22  O   UNL     1      41.004 -24.540 -14.320  0.00  0.00    -0.250 OA
ATOM     23  C   UNL     1      40.234 -25.397 -14.727  0.00  0.00    +0.314 C 
BRANCH  23  24
ATOM     24  O   UNL     1      40.301 -25.945 -15.968  0.00  0.00    -0.480 OA
ATOM     25  H   UNL     1      40.457 -26.864 -16.066  0.00  0.00    +0.295 HD
ENDBRANCH  23  24
ENDBRANCH  21  23
ENDBRANCH  15  21
ENDBRANCH  14  15
ENDBRANCH   2  14
TORSDOF 10
ENDMDL
MODEL 3
REMARK VINA RESULT:      -8.4      9.966     14.103
REMARK  Name = 9883933
REMARK  10 active torsions:
REMARK  status: ('A' for Active; 'I' for Inactive)
REMARK    1  A    between atoms: N_2  and  C_14
REMARK    2  A    between atoms: C_3  and  O_5
REMARK    3  A    between atoms: O_5  and  C_6
REMARK    4  A    between atoms: C_6  and  O_8
REMARK    5  A    between atoms: O_8  and  C_10
REMARK    6  A    between atoms: C_10  and  C_11
REMARK    7  A    between atoms: C_14  and  C_15
REMARK    8  A    between atoms: C_15  and  C_21
REMARK    9  A    between atoms: C_21  and  C_23
REMARK   10  A    between atoms: C_23  and  O_24
REMARK                            x       y       z     vdW  Elec       q    Type
REMARK                         _______ _______ _______ _____ _____    ______ ____
ROOT
ATOM      1  O   UNL     1      30.632 -11.131 -21.858  0.00  0.00    -0.226 OA
ATOM      2  N   UNL     1      32.405 -10.031 -22.869  0.00  0.00    -0.271 N 
ATOM      3  C   UNL     1      31.801 -11.090 -22.224  0.00  0.00    +0.404 C 
ATOM      4  H   UNL     1      33.356 -10.113 -23.113  0.00  0.00    +0.153 HD
ENDROOT
BRANCH   3   5
ATOM      5  O   UNL     1      32.708 -12.098 -22.046  0.00  0.00    -0.399 OA
BRANCH   5   6
ATOM      6  C   UNL     1      32.445 -13.336 -22.742  0.00  0.00    +0.346 C 
ATOM      7  C   UNL     1      32.370 -14.432 -21.689  0.00  0.00    +0.100 C 
BRANCH   6   8
ATOM      8  O   UNL     1      33.509 -13.643 -23.664  0.00  0.00    -0.414 OA
BRANCH   8  10
ATOM      9  O   UNL     1      33.924 -11.829 -25.028  0.00  0.00    -0.250 OA
ATOM     10  C   UNL     1      33.523 -12.972 -24.853  0.00  0.00    +0.319 C 
BRANCH  10  11
ATOM     11  C   UNL     1      32.973 -13.873 -25.943  0.00  0.00    +0.099 C 
ATOM     12  C   UNL     1      33.447 -15.304 -25.715  0.00  0.00    +0.012 C 
ATOM     13  C   UNL     1      33.392 -13.373 -27.323  0.00  0.00    +0.012 C 
ENDBRANCH  10  11
ENDBRANCH   8  10
ENDBRANCH   6   8
ENDBRANCH   5   6
ENDBRANCH   3   5
BRANCH   2  14
ATOM     14  C   UNL     1      31.714  -8.809 -23.205  0.00  0.00    +0.093 C 
BRANCH  14  15
ATOM     15  C   UNL     1      32.408  -7.580 -22.587  0.00  0.00    +0.029 C 
ATOM     16  C   UNL     1      32.250  -6.347 -23.507  0.00  0.00    +0.002 C 
ATOM     17  C   UNL     1      33.909  -7.867 -22.347  0.00  0.00    +0.002 C 
ATOM     18  C   UNL     1      33.068  -6.441 -24.795  0.00  0.00    +0.000 C 
ATOM     19  C   UNL     1      34.724  -7.958 -23.637  0.00  0.00    +0.000 C 
ATOM     20  C   UNL     1      34.539  -6.721 -24.509  0.00  0.00    +0.000 C 
BRANCH  15  21
ATOM     21  C   UNL     1      31.732  -7.285 -21.235  0.00  0.00    +0.111 C 
BRANCH  21  23
ATOM     22  O   UNL     1      32.536  -9.077 -19.791  0.00  0.00    -0.250 OA
ATOM     23  C   UNL     1      32.499  -7.896 -20.101  0.00  0.00    +0.314 C 
BRANCH  23  24
ATOM     24  O   UNL     1      33.174  -6.920 -19.440  0.00  0.00    -0.480 OA
ATOM     25  H   UNL     1      33.967  -6.573 -19.799  0.00  0.00    +0.295 HD
ENDBRANCH  23  24
ENDBRANCH  21  23
ENDBRANCH  15  21
ENDBRANCH  14  15
ENDBRANCH   2  14
TORSDOF 10
ENDMDL
MODEL 4
REMARK VINA RESULT:      -8.3      3.295      5.565
REMARK  Name = 9883933
REMARK  10 active torsions:
REMARK  status: ('A' for Active; 'I' for Inactive)
REMARK    1  A    between atoms: N_2  and  C_14
REMARK    2  A    between atoms: C_3  and  O_5
REMARK    3  A    between atoms: O_5  and  C_6
REMARK    4  A    between atoms: C_6  and  O_8
REMARK    5  A    between atoms: O_8  and  C_10
REMARK    6  A    between atoms: C_10  and  C_11
REMARK    7  A    between atoms: C_14  and  C_15
REMARK    8  A    between atoms: C_15  and  C_21
REMARK    9  A    between atoms: C_21  and  C_23
REMARK   10  A    between atoms: C_23  and  O_24
REMARK                            x       y       z     vdW  Elec       q    Type
REMARK                         _______ _______ _______ _____ _____    ______ ____
ROOT
ATOM      1  O   UNL     1      33.092 -22.340 -19.177  0.00  0.00    -0.226 OA
ATOM      2  N   UNL     1      32.789 -23.077 -16.999  0.00  0.00    -0.271 N 
ATOM      3  C   UNL     1      33.534 -22.779 -18.121  0.00  0.00    +0.404 C 
ATOM      4  H   UNL     1      33.257 -23.428 -16.207  0.00  0.00    +0.153 HD
ENDROOT
BRANCH   3   5
ATOM      5  O   UNL     1      34.852 -23.051 -17.882  0.00  0.00    -0.399 OA
BRANCH   5   6
ATOM      6  C   UNL     1      35.303 -22.929 -16.515  0.00  0.00    +0.346 C 
ATOM      7  C   UNL     1      36.624 -22.176 -16.546  0.00  0.00    +0.100 C 
BRANCH   6   8
ATOM      8  O   UNL     1      35.517 -24.228 -15.928  0.00  0.00    -0.414 OA
BRANCH   8  10
ATOM      9  O   UNL     1      35.219 -23.583 -13.733  0.00  0.00    -0.250 OA
ATOM     10  C   UNL     1      35.757 -24.278 -14.585  0.00  0.00    +0.319 C 
BRANCH  10  11
ATOM     11  C   UNL     1      36.796 -25.348 -14.301  0.00  0.00    +0.099 C 
ATOM     12  C   UNL     1      38.193 -24.753 -14.424  0.00  0.00    +0.012 C 
ATOM     13  C   UNL     1      36.623 -26.535 -15.245  0.00  0.00    +0.012 C 
ENDBRANCH  10  11
ENDBRANCH   8  10
ENDBRANCH   6   8
ENDBRANCH   5   6
ENDBRANCH   3   5
BRANCH   2  14
ATOM     14  C   UNL     1      31.358 -22.900 -16.928  0.00  0.00    +0.093 C 
BRANCH  14  15
ATOM     15  C   UNL     1      30.769 -23.565 -15.668  0.00  0.00    +0.029 C 
ATOM     16  C   UNL     1      29.857 -24.752 -16.056  0.00  0.00    +0.002 C 
ATOM     17  C   UNL     1      29.969 -22.537 -14.836  0.00  0.00    +0.002 C 
ATOM     18  C   UNL     1      28.547 -24.321 -16.714  0.00  0.00    +0.000 C 
ATOM     19  C   UNL     1      28.658 -22.110 -15.496  0.00  0.00    +0.000 C 
ATOM     20  C   UNL     1      27.791 -23.312 -15.857  0.00  0.00    +0.000 C 
BRANCH  15  21
ATOM     21  C   UNL     1      31.942 -24.092 -14.819  0.00  0.00    +0.111 C 
BRANCH  21  23
ATOM     22  O   UNL     1      30.811 -24.581 -12.716  0.00  0.00    -0.250 OA
ATOM     23  C   UNL     1      31.651 -23.965 -13.354  0.00  0.00    +0.314 C 
BRANCH  23  24
ATOM     24  O   UNL     1      32.481 -23.036 -12.812  0.00  0.00    -0.480 OA
ATOM     25  H   UNL     1      32.128 -22.250 -12.446  0.00  0.00    +0.295 HD
ENDBRANCH  23  24
ENDBRANCH  21  23
ENDBRANCH  15  21
ENDBRANCH  14  15
ENDBRANCH   2  14
TORSDOF 10
ENDMDL
MODEL 5
REMARK VINA RESULT:      -8.3      4.166      5.706
REMARK  Name = 9883933
REMARK  10 active torsions:
REMARK  status: ('A' for Active; 'I' for Inactive)
REMARK    1  A    between atoms: N_2  and  C_14
REMARK    2  A    between atoms: C_3  and  O_5
REMARK    3  A    between atoms: O_5  and  C_6
REMARK    4  A    between atoms: C_6  and  O_8
REMARK    5  A    between atoms: O_8  and  C_10
REMARK    6  A    between atoms: C_10  and  C_11
REMARK    7  A    between atoms: C_14  and  C_15
REMARK    8  A    between atoms: C_15  and  C_21
REMARK    9  A    between atoms: C_21  and  C_23
REMARK   10  A    between atoms: C_23  and  O_24
REMARK                            x       y       z     vdW  Elec       q    Type
REMARK                         _______ _______ _______ _____ _____    ______ ____
ROOT
ATOM      1  O   UNL     1      37.239 -20.869 -16.882  0.00  0.00    -0.226 OA
ATOM      2  N   UNL     1      36.634 -22.991 -16.168  0.00  0.00    -0.271 N 
ATOM      3  C   UNL     1      36.768 -21.981 -17.098  0.00  0.00    +0.404 C 
ATOM      4  H   UNL     1      36.238 -23.844 -16.459  0.00  0.00    +0.153 HD
ENDROOT
BRANCH   3   5
ATOM      5  O   UNL     1      36.293 -22.403 -18.308  0.00  0.00    -0.399 OA
BRANCH   5   6
ATOM      6  C   UNL     1      35.158 -21.689 -18.843  0.00  0.00    +0.346 C 
ATOM      7  C   UNL     1      33.948 -22.599 -18.692  0.00  0.00    +0.100 C 
BRANCH   6   8
ATOM      8  O   UNL     1      35.350 -21.393 -20.240  0.00  0.00    -0.414 OA
BRANCH   8  10
ATOM      9  O   UNL     1      36.344 -19.311 -20.223  0.00  0.00    -0.250 OA
ATOM     10  C   UNL     1      35.466 -20.079 -20.593  0.00  0.00    +0.319 C 
BRANCH  10  11
ATOM     11  C   UNL     1      34.335 -19.712 -21.537  0.00  0.00    +0.099 C 
ATOM     12  C   UNL     1      34.649 -18.387 -22.223  0.00  0.00    +0.012 C 
ATOM     13  C   UNL     1      33.006 -19.638 -20.789  0.00  0.00    +0.012 C 
ENDBRANCH  10  11
ENDBRANCH   8  10
ENDBRANCH   6   8
ENDBRANCH   5   6
ENDBRANCH   3   5
BRANCH   2  14
ATOM     14  C   UNL     1      37.044 -22.861 -14.791  0.00  0.00    +0.093 C 
BRANCH  14  15
ATOM     15  C   UNL     1      37.094 -24.230 -14.084  0.00  0.00    +0.029 C 
ATOM     16  C   UNL     1      35.665 -24.772 -13.849  0.00  0.00    +0.002 C 
ATOM     17  C   UNL     1      37.842 -24.118 -12.735  0.00  0.00    +0.002 C 
ATOM     18  C   UNL     1      34.890 -23.999 -12.783  0.00  0.00    +0.000 C 
ATOM     19  C   UNL     1      37.062 -23.345 -11.671  0.00  0.00    +0.000 C 
ATOM     20  C   UNL     1      35.663 -23.917 -11.472  0.00  0.00    +0.000 C 
BRANCH  15  21
ATOM     21  C   UNL     1      37.856 -25.207 -14.999  0.00  0.00    +0.111 C 
BRANCH  21  23
ATOM     22  O   UNL     1      37.315 -27.288 -13.851  0.00  0.00    -0.250 OA
ATOM     23  C   UNL     1      37.326 -26.603 -14.862  0.00  0.00    +0.314 C 
BRANCH  23  24
ATOM     24  O   UNL     1      36.841 -27.017 -16.061  0.00  0.00    -0.480 OA
ATOM     25  H   UNL     1      37.393 -27.490 -16.652  0.00  0.00    +0.295 HD
ENDBRANCH  23  24
ENDBRANCH  21  23
ENDBRANCH  15  21
ENDBRANCH  14  15
ENDBRANCH   2  14
TORSDOF 10
ENDMDL
MODEL 6
REMARK VINA RESULT:      -8.2      6.101      8.533
REMARK  Name = 9883933
REMARK  10 active torsions:
REMARK  status: ('A' for Active; 'I' for Inactive)
REMARK    1  A    between atoms: N_2  and  C_14
REMARK    2  A    between atoms: C_3  and  O_5
REMARK    3  A    between atoms: O_5  and  C_6
REMARK    4  A    between atoms: C_6  and  O_8
REMARK    5  A    between atoms: O_8  and  C_10
REMARK    6  A    between atoms: C_10  and  C_11
REMARK    7  A    between atoms: C_14  and  C_15
REMARK    8  A    between atoms: C_15  and  C_21
REMARK    9  A    between atoms: C_21  and  C_23
REMARK   10  A    between atoms: C_23  and  O_24
REMARK                            x       y       z     vdW  Elec       q    Type
REMARK                         _______ _______ _______ _____ _____    ______ ____
ROOT
ATOM      1  O   UNL     1      33.536 -18.602 -25.591  0.00  0.00    -0.226 OA
ATOM      2  N   UNL     1      34.972 -17.724 -23.996  0.00  0.00    -0.271 N 
ATOM      3  C   UNL     1      34.229 -17.688 -25.157  0.00  0.00    +0.404 C 
ATOM      4  H   UNL     1      35.493 -16.925 -23.749  0.00  0.00    +0.153 HD
ENDROOT
BRANCH   3   5
ATOM      5  O   UNL     1      34.380 -16.471 -25.762  0.00  0.00    -0.399 OA
BRANCH   5   6
ATOM      6  C   UNL     1      33.449 -15.436 -25.377  0.00  0.00    +0.346 C 
ATOM      7  C   UNL     1      32.846 -14.880 -26.658  0.00  0.00    +0.100 C 
BRANCH   6   8
ATOM      8  O   UNL     1      34.124 -14.373 -24.677  0.00  0.00    -0.414 OA
BRANCH   8  10
ATOM      9  O   UNL     1      32.323 -13.623 -23.444  0.00  0.00    -0.250 OA
ATOM     10  C   UNL     1      33.347 -13.419 -24.083  0.00  0.00    +0.319 C 
BRANCH  10  11
ATOM     11  C   UNL     1      33.960 -12.052 -24.325  0.00  0.00    +0.099 C 
ATOM     12  C   UNL     1      33.190 -10.998 -23.538  0.00  0.00    +0.012 C 
ATOM     13  C   UNL     1      33.971 -11.719 -25.815  0.00  0.00    +0.012 C 
ENDBRANCH  10  11
ENDBRANCH   8  10
ENDBRANCH   6   8
ENDBRANCH   5   6
ENDBRANCH   3   5
BRANCH   2  14
ATOM     14  C   UNL     1      35.026 -18.873 -23.124  0.00  0.00    +0.093 C 
BRANCH  14  15
ATOM     15  C   UNL     1      35.085 -18.455 -21.641  0.00  0.00    +0.029 C 
ATOM     16  C   UNL     1      36.039 -19.382 -20.853  0.00  0.00    +0.002 C 
ATOM     17  C   UNL     1      33.674 -18.493 -21.010  0.00  0.00    +0.002 C 
ATOM     18  C   UNL     1      35.492 -20.797 -20.664  0.00  0.00    +0.000 C 
ATOM     19  C   UNL     1      33.132 -19.910 -20.820  0.00  0.00    +0.000 C 
ATOM     20  C   UNL     1      34.104 -20.785 -20.036  0.00  0.00    +0.000 C 
BRANCH  15  21
ATOM     21  C   UNL     1      35.624 -17.013 -21.578  0.00  0.00    +0.111 C 
BRANCH  21  23
ATOM     22  O   UNL     1      34.618 -15.562 -19.896  0.00  0.00    -0.250 OA
ATOM     23  C   UNL     1      34.602 -16.078 -21.004  0.00  0.00    +0.314 C 
BRANCH  23  24
ATOM     24  O   UNL     1      33.619 -15.872 -21.918  0.00  0.00    -0.480 OA
ATOM     25  H   UNL     1      33.700 -15.181 -22.545  0.00  0.00    +0.295 HD
ENDBRANCH  23  24
ENDBRANCH  21  23
ENDBRANCH  15  21
ENDBRANCH  14  15
ENDBRANCH   2  14
TORSDOF 10
ENDMDL
MODEL 7
REMARK VINA RESULT:      -8.1      8.998     13.409
REMARK  Name = 9883933
REMARK  10 active torsions:
REMARK  status: ('A' for Active; 'I' for Inactive)
REMARK    1  A    between atoms: N_2  and  C_14
REMARK    2  A    between atoms: C_3  and  O_5
REMARK    3  A    between atoms: O_5  and  C_6
REMARK    4  A    between atoms: C_6  and  O_8
REMARK    5  A    between atoms: O_8  and  C_10
REMARK    6  A    between atoms: C_10  and  C_11
REMARK    7  A    between atoms: C_14  and  C_15
REMARK    8  A    between atoms: C_15  and  C_21
REMARK    9  A    between atoms: C_21  and  C_23
REMARK   10  A    between atoms: C_23  and  O_24
REMARK                            x       y       z     vdW  Elec       q    Type
REMARK                         _______ _______ _______ _____ _____    ______ ____
ROOT
ATOM      1  O   UNL     1      33.877 -12.065 -25.296  0.00  0.00    -0.226 OA
ATOM      2  N   UNL     1      33.086 -11.089 -23.348  0.00  0.00    -0.271 N 
ATOM      3  C   UNL     1      33.698 -12.082 -24.083  0.00  0.00    +0.404 C 
ATOM      4  H   UNL     1      32.996 -11.215 -22.375  0.00  0.00    +0.153 HD
ENDROOT
BRANCH   3   5
ATOM      5  O   UNL     1      34.078 -13.100 -23.255  0.00  0.00    -0.399 OA
BRANCH   5   6
ATOM      6  C   UNL     1      33.542 -14.409 -23.548  0.00  0.00    +0.346 C 
ATOM      7  C   UNL     1      32.761 -14.856 -22.322  0.00  0.00    +0.100 C 
BRANCH   6   8
ATOM      8  O   UNL     1      34.601 -15.353 -23.799  0.00  0.00    -0.414 OA
BRANCH   8  10
ATOM      9  O   UNL     1      33.883 -15.985 -25.898  0.00  0.00    -0.250 OA
ATOM     10  C   UNL     1      34.429 -16.230 -24.831  0.00  0.00    +0.319 C 
BRANCH  10  11
ATOM     11  C   UNL     1      35.038 -17.570 -24.457  0.00  0.00    +0.099 C 
ATOM     12  C   UNL     1      34.185 -18.698 -25.024  0.00  0.00    +0.012 C 
ATOM     13  C   UNL     1      35.175 -17.698 -22.942  0.00  0.00    +0.012 C 
ENDBRANCH  10  11
ENDBRANCH   8  10
ENDBRANCH   6   8
ENDBRANCH   5   6
ENDBRANCH   3   5
BRANCH   2  14
ATOM     14  C   UNL     1      32.569  -9.873 -23.931  0.00  0.00    +0.093 C 
BRANCH  14  15
ATOM     15  C   UNL     1      32.408  -8.763 -22.874  0.00  0.00    +0.029 C 
ATOM     16  C   UNL     1      31.248  -7.815 -23.254  0.00  0.00    +0.002 C 
ATOM     17  C   UNL     1      33.720  -7.957 -22.729  0.00  0.00    +0.002 C 
ATOM     18  C   UNL     1      31.558  -6.930 -24.461  0.00  0.00    +0.000 C 
ATOM     19  C   UNL     1      34.025  -7.072 -23.937  0.00  0.00    +0.000 C 
ATOM     20  C   UNL     1      32.855  -6.153 -24.272  0.00  0.00    +0.000 C 
BRANCH  15  21
ATOM     21  C   UNL     1      32.083  -9.437 -21.527  0.00  0.00    +0.111 C 
BRANCH  21  23
ATOM     22  O   UNL     1      32.001  -7.284 -20.387  0.00  0.00    -0.250 OA
ATOM     23  C   UNL     1      32.254  -8.479 -20.386  0.00  0.00    +0.314 C 
BRANCH  23  24
ATOM     24  O   UNL     1      32.746  -9.147 -19.311  0.00  0.00    -0.480 OA
ATOM     25  H   UNL     1      32.346  -9.947 -19.033  0.00  0.00    +0.295 HD
ENDBRANCH  23  24
ENDBRANCH  21  23
ENDBRANCH  15  21
ENDBRANCH  14  15
ENDBRANCH   2  14
TORSDOF 10
ENDMDL
MODEL 8
REMARK VINA RESULT:      -8.0      4.829      6.225
REMARK  Name = 9883933
REMARK  10 active torsions:
REMARK  status: ('A' for Active; 'I' for Inactive)
REMARK    1  A    between atoms: N_2  and  C_14
REMARK    2  A    between atoms: C_3  and  O_5
REMARK    3  A    between atoms: O_5  and  C_6
REMARK    4  A    between atoms: C_6  and  O_8
REMARK    5  A    between atoms: O_8  and  C_10
REMARK    6  A    between atoms: C_10  and  C_11
REMARK    7  A    between atoms: C_14  and  C_15
REMARK    8  A    between atoms: C_15  and  C_21
REMARK    9  A    between atoms: C_21  and  C_23
REMARK   10  A    between atoms: C_23  and  O_24
REMARK                            x       y       z     vdW  Elec       q    Type
REMARK                         _______ _______ _______ _____ _____    ______ ____
ROOT
ATOM      1  O   UNL     1      36.609 -22.643 -16.741  0.00  0.00    -0.226 OA
ATOM      2  N   UNL     1      35.937 -23.614 -14.745  0.00  0.00    -0.271 N 
ATOM      3  C   UNL     1      35.796 -23.275 -16.074  0.00  0.00    +0.404 C 
ATOM      4  H   UNL     1      35.214 -24.124 -14.313  0.00  0.00    +0.153 HD
ENDROOT
BRANCH   3   5
ATOM      5  O   UNL     1      34.605 -23.750 -16.546  0.00  0.00    -0.399 OA
BRANCH   5   6
ATOM      6  C   UNL     1      33.812 -22.840 -17.338  0.00  0.00    +0.346 C 
ATOM      7  C   UNL     1      32.352 -23.200 -17.106  0.00  0.00    +0.100 C 
BRANCH   6   8
ATOM      8  O   UNL     1      34.112 -22.983 -18.740  0.00  0.00    -0.414 OA
BRANCH   8  10
ATOM      9  O   UNL     1      32.695 -21.801 -20.125  0.00  0.00    -0.250 OA
ATOM     10  C   UNL     1      33.773 -21.949 -19.565  0.00  0.00    +0.319 C 
BRANCH  10  11
ATOM     11  C   UNL     1      34.944 -20.989 -19.673  0.00  0.00    +0.099 C 
ATOM     12  C   UNL     1      34.627 -19.905 -20.696  0.00  0.00    +0.012 C 
ATOM     13  C   UNL     1      36.223 -21.734 -20.046  0.00  0.00    +0.012 C 
ENDBRANCH  10  11
ENDBRANCH   8  10
ENDBRANCH   6   8
ENDBRANCH   5   6
ENDBRANCH   3   5
BRANCH   2  14
ATOM     14  C   UNL     1      37.091 -23.258 -13.953  0.00  0.00    +0.093 C 
BRANCH  14  15
ATOM     15  C   UNL     1      37.417 -24.345 -12.910  0.00  0.00    +0.029 C 
ATOM     16  C   UNL     1      38.939 -24.611 -12.860  0.00  0.00    +0.002 C 
ATOM     17  C   UNL     1      36.664 -25.655 -13.237  0.00  0.00    +0.002 C 
ATOM     18  C   UNL     1      39.471 -25.328 -14.102  0.00  0.00    +0.000 C 
ATOM     19  C   UNL     1      37.200 -26.370 -14.478  0.00  0.00    +0.000 C 
ATOM     20  C   UNL     1      38.702 -26.614 -14.382  0.00  0.00    +0.000 C 
BRANCH  15  21
ATOM     21  C   UNL     1      36.954 -23.832 -11.533  0.00  0.00    +0.111 C 
BRANCH  21  23
ATOM     22  O   UNL     1      35.277 -25.221 -10.437  0.00  0.00    -0.250 OA
ATOM     23  C   UNL     1      35.575 -24.321 -11.208  0.00  0.00    +0.314 C 
BRANCH  23  24
ATOM     24  O   UNL     1      34.666 -23.600 -11.913  0.00  0.00    -0.480 OA
ATOM     25  H   UNL     1      34.934 -22.828 -12.371  0.00  0.00    +0.295 HD
ENDBRANCH  23  24
ENDBRANCH  21  23
ENDBRANCH  15  21
ENDBRANCH  14  15
ENDBRANCH   2  14
TORSDOF 10
ENDMDL
MODEL 9
REMARK VINA RESULT:      -8.0      4.041      6.204
REMARK  Name = 9883933
REMARK  10 active torsions:
REMARK  status: ('A' for Active; 'I' for Inactive)
REMARK    1  A    between atoms: N_2  and  C_14
REMARK    2  A    between atoms: C_3  and  O_5
REMARK    3  A    between atoms: O_5  and  C_6
REMARK    4  A    between atoms: C_6  and  O_8
REMARK    5  A    between atoms: O_8  and  C_10
REMARK    6  A    between atoms: C_10  and  C_11
REMARK    7  A    between atoms: C_14  and  C_15
REMARK    8  A    between atoms: C_15  and  C_21
REMARK    9  A    between atoms: C_21  and  C_23
REMARK   10  A    between atoms: C_23  and  O_24
REMARK                            x       y       z     vdW  Elec       q    Type
REMARK                         _______ _______ _______ _____ _____    ______ ____
ROOT
ATOM      1  O   UNL     1      33.858 -23.823 -17.912  0.00  0.00    -0.226 OA
ATOM      2  N   UNL     1      32.644 -23.145 -16.056  0.00  0.00    -0.271 N 
ATOM      3  C   UNL     1      33.800 -23.406 -16.760  0.00  0.00    +0.404 C 
ATOM      4  H   UNL     1      32.723 -22.814 -15.132  0.00  0.00    +0.153 HD
ENDROOT
BRANCH   3   5
ATOM      5  O   UNL     1      34.887 -23.132 -15.977  0.00  0.00    -0.399 OA
BRANCH   5   6
ATOM      6  C   UNL     1      35.307 -24.169 -15.064  0.00  0.00    +0.346 C 
ATOM      7  C   UNL     1      35.421 -23.532 -13.687  0.00  0.00    +0.100 C 
BRANCH   6   8
ATOM      8  O   UNL     1      36.592 -24.698 -15.444  0.00  0.00    -0.414 OA
BRANCH   8  10
ATOM      9  O   UNL     1      36.151 -26.939 -15.766  0.00  0.00    -0.250 OA
ATOM     10  C   UNL     1      36.801 -26.034 -15.259  0.00  0.00    +0.319 C 
BRANCH  10  11
ATOM     11  C   UNL     1      37.984 -26.233 -14.329  0.00  0.00    +0.099 C 
ATOM     12  C   UNL     1      37.507 -26.216 -12.881  0.00  0.00    +0.012 C 
ATOM     13  C   UNL     1      39.046 -25.162 -14.566  0.00  0.00    +0.012 C 
ENDBRANCH  10  11
ENDBRANCH   8  10
ENDBRANCH   6   8
ENDBRANCH   5   6
ENDBRANCH   3   5
BRANCH   2  14
ATOM     14  C   UNL     1      31.322 -23.333 -16.605  0.00  0.00    +0.093 C 
BRANCH  14  15
ATOM     15  C   UNL     1      30.358 -23.934 -15.563  0.00  0.00    +0.029 C 
ATOM     16  C   UNL     1      29.235 -24.736 -16.260  0.00  0.00    +0.002 C 
ATOM     17  C   UNL     1      29.741 -22.818 -14.688  0.00  0.00    +0.002 C 
ATOM     18  C   UNL     1      28.234 -23.856 -17.008  0.00  0.00    +0.000 C 
ATOM     19  C   UNL     1      28.739 -21.941 -15.439  0.00  0.00    +0.000 C 
ATOM     20  C   UNL     1      27.650 -22.775 -16.106  0.00  0.00    +0.000 C 
BRANCH  15  21
ATOM     21  C   UNL     1      31.168 -24.886 -14.663  0.00  0.00    +0.111 C 
BRANCH  21  23
ATOM     22  O   UNL     1      32.107 -23.483 -12.904  0.00  0.00    -0.250 OA
ATOM     23  C   UNL     1      31.311 -24.331 -13.277  0.00  0.00    +0.314 C 
BRANCH  23  24
ATOM     24  O   UNL     1      30.399 -24.922 -12.462  0.00  0.00    -0.480 OA
ATOM     25  H   UNL     1      29.845 -24.396 -11.919  0.00  0.00    +0.295 HD
ENDBRANCH  23  24
ENDBRANCH  21  23
ENDBRANCH  15  21
ENDBRANCH  14  15
ENDBRANCH   2  14
TORSDOF 10
ENDMDL
