MODEL 1
REMARK VINA RESULT:      -9.2      0.000      0.000
REMARK  Name = 447278
REMARK  18 active torsions:
REMARK  status: ('A' for Active; 'I' for Inactive)
REMARK    1  A    between atoms: N_1  and  C_4
REMARK    2  A    between atoms: N_1  and  C_20
REMARK    3  A    between atoms: C_4  and  C_5
REMARK    4  A    between atoms: C_5  and  C_7
REMARK    5  A    between atoms: C_6  and  C_9
REMARK    6  A    between atoms: C_9  and  C_10
REMARK    7  A    between atoms: C_10  and  C_12
REMARK    8  A    between atoms: C_11  and  C_14
REMARK    9  A    between atoms: C_14  and  C_15
REMARK   10  A    between atoms: C_15  and  C_16
REMARK   11  A    between atoms: C_20  and  C_21
REMARK   12  A    between atoms: C_21  and  O_22
REMARK   13  A    between atoms: O_22  and  P_23
REMARK   14  A    between atoms: P_23  and  O_25
REMARK   15  A    between atoms: P_23  and  O_27
REMARK   16  A    between atoms: O_27  and  P_28
REMARK   17  A    between atoms: P_28  and  O_30
REMARK   18  A    between atoms: P_28  and  O_32
REMARK                            x       y       z     vdW  Elec       q    Type
REMARK                         _______ _______ _______ _____ _____    ______ ____
ROOT
ATOM      1  N   UNL     1      33.427 -23.890 -15.176  0.00  0.00    +0.387 N 
ATOM      2  C   UNL     1      32.127 -23.373 -14.748  0.00  0.00    -0.101 C 
ATOM      3  H   UNL     1      33.296 -24.833 -15.542  0.00  0.00    -0.080 HD
ENDROOT
BRANCH   1   4
ATOM      4  C   UNL     1      33.982 -23.061 -16.241  0.00  0.00    -0.073 C 
BRANCH   4   5
ATOM      5  C   UNL     1      33.490 -23.548 -17.602  0.00  0.00    +0.003 C 
BRANCH   5   7
ATOM      6  C   UNL     1      33.988 -21.737 -19.341  0.00  0.00    -0.048 C 
ATOM      7  C   UNL     1      33.161 -22.392 -18.504  0.00  0.00    -0.037 C 
ATOM      8  C   UNL     1      35.446 -22.059 -19.526  0.00  0.00    +0.026 C 
BRANCH   6   9
ATOM      9  C   UNL     1      33.457 -20.615 -20.213  0.00  0.00    +0.026 C 
BRANCH   9  10
ATOM     10  C   UNL     1      34.508 -19.554 -20.559  0.00  0.00    +0.030 C 
BRANCH  10  12
ATOM     11  C   UNL     1      35.070 -18.329 -22.750  0.00  0.00    -0.048 C 
ATOM     12  C   UNL     1      34.208 -18.854 -21.857  0.00  0.00    -0.034 C 
ATOM     13  C   UNL     1      36.553 -18.411 -22.490  0.00  0.00    +0.026 C 
BRANCH  11  14
ATOM     14  C   UNL     1      34.677 -17.607 -24.020  0.00  0.00    +0.026 C 
BRANCH  14  15
ATOM     15  C   UNL     1      34.957 -16.097 -23.958  0.00  0.00    +0.030 C 
BRANCH  15  16
ATOM     16  C   UNL     1      33.772 -15.355 -23.405  0.00  0.00    -0.034 C 
ATOM     17  C   UNL     1      33.565 -14.937 -22.141  0.00  0.00    -0.048 C 
ATOM     18  C   UNL     1      32.352 -14.196 -21.654  0.00  0.00    +0.026 C 
ATOM     19  C   UNL     1      34.601 -15.193 -21.078  0.00  0.00    +0.026 C 
ENDBRANCH  15  16
ENDBRANCH  14  15
ENDBRANCH  11  14
ENDBRANCH  10  12
ENDBRANCH   9  10
ENDBRANCH   6   9
ENDBRANCH   5   7
ENDBRANCH   4   5
ENDBRANCH   1   4
BRANCH   1  20
ATOM     20  C   UNL     1      34.348 -23.954 -14.041  0.00  0.00    -0.044 C 
BRANCH  20  21
ATOM     21  C   UNL     1      35.499 -24.902 -14.337  0.00  0.00    +0.131 C 
BRANCH  21  22
ATOM     22  O   UNL     1      36.692 -24.359 -13.786  0.00  0.00    -0.275 OA
BRANCH  22  23
ATOM     23  P   UNL     1      37.480 -25.160 -12.624  0.00  0.00    +0.484 P 
ATOM     24  O   UNL     1      37.397 -24.531 -11.263  0.00  0.00    -0.227 OA
BRANCH  23  25
ATOM     25  O   UNL     1      36.893 -26.665 -12.701  0.00  0.00    -0.302 OA
ATOM     26  H   UNL     1      36.801 -26.930 -13.629  0.00  0.00    +0.222 HD
ENDBRANCH  23  25
BRANCH  23  27
ATOM     27  O   UNL     1      38.986 -25.321 -13.188  0.00  0.00    -0.186 OA
BRANCH  27  28
ATOM     28  P   UNL     1      39.540 -25.490 -14.698  0.00  0.00    +0.481 P 
ATOM     29  O   UNL     1      40.972 -25.926 -14.795  0.00  0.00    -0.227 OA
BRANCH  28  30
ATOM     30  O   UNL     1      38.466 -26.486 -15.381  0.00  0.00    -0.302 OA
ATOM     31  H   UNL     1      37.748 -25.967 -15.773  0.00  0.00    +0.222 HD
ENDBRANCH  28  30
BRANCH  28  32
ATOM     32  O   UNL     1      39.208 -24.058 -15.371  0.00  0.00    -0.302 OA
ATOM     33  H   UNL     1      39.865 -23.406 -15.084  0.00  0.00    +0.222 HD
ENDBRANCH  28  32
ENDBRANCH  27  28
ENDBRANCH  23  27
ENDBRANCH  22  23
ENDBRANCH  21  22
ENDBRANCH  20  21
ENDBRANCH   1  20
TORSDOF 18
ENDMDL
MODEL 2
REMARK VINA RESULT:      -9.1      1.780      3.004
REMARK  Name = 447278
REMARK  18 active torsions:
REMARK  status: ('A' for Active; 'I' for Inactive)
REMARK    1  A    between atoms: N_1  and  C_4
REMARK    2  A    between atoms: N_1  and  C_20
REMARK    3  A    between atoms: C_4  and  C_5
REMARK    4  A    between atoms: C_5  and  C_7
REMARK    5  A    between atoms: C_6  and  C_9
REMARK    6  A    between atoms: C_9  and  C_10
REMARK    7  A    between atoms: C_10  and  C_12
REMARK    8  A    between atoms: C_11  and  C_14
REMARK    9  A    between atoms: C_14  and  C_15
REMARK   10  A    between atoms: C_15  and  C_16
REMARK   11  A    between atoms: C_20  and  C_21
REMARK   12  A    between atoms: C_21  and  O_22
REMARK   13  A    between atoms: O_22  and  P_23
REMARK   14  A    between atoms: P_23  and  O_25
REMARK   15  A    between atoms: P_23  and  O_27
REMARK   16  A    between atoms: O_27  and  P_28
REMARK   17  A    between atoms: P_28  and  O_30
REMARK   18  A    between atoms: P_28  and  O_32
REMARK                            x       y       z     vdW  Elec       q    Type
REMARK                         _______ _______ _______ _____ _____    ______ ____
ROOT
ATOM      1  N   UNL     1      36.027 -22.760 -16.941  0.00  0.00    +0.387 N 
ATOM      2  C   UNL     1      34.581 -22.873 -16.753  0.00  0.00    -0.101 C 
ATOM      3  H   UNL     1      36.390 -23.669 -17.227  0.00  0.00    -0.080 HD
ENDROOT
BRANCH   1   4
ATOM      4  C   UNL     1      36.333 -21.796 -17.993  0.00  0.00    -0.073 C 
BRANCH   4   5
ATOM      5  C   UNL     1      35.260 -21.839 -19.078  0.00  0.00    +0.003 C 
BRANCH   5   7
ATOM      6  C   UNL     1      34.620 -20.107 -20.851  0.00  0.00    -0.048 C 
ATOM      7  C   UNL     1      35.523 -20.809 -20.141  0.00  0.00    -0.037 C 
ATOM      8  C   UNL     1      33.129 -20.236 -20.702  0.00  0.00    +0.026 C 
BRANCH   6   9
ATOM      9  C   UNL     1      35.082 -19.070 -21.857  0.00  0.00    +0.026 C 
BRANCH   9  10
ATOM     10  C   UNL     1      35.376 -17.699 -21.236  0.00  0.00    +0.030 C 
BRANCH  10  12
ATOM     11  C   UNL     1      33.730 -15.723 -21.284  0.00  0.00    -0.048 C 
ATOM     12  C   UNL     1      34.120 -16.950 -20.884  0.00  0.00    -0.034 C 
ATOM     13  C   UNL     1      34.614 -14.927 -22.210  0.00  0.00    +0.026 C 
BRANCH  11  14
ATOM     14  C   UNL     1      32.458 -15.028 -20.849  0.00  0.00    +0.026 C 
BRANCH  14  15
ATOM     15  C   UNL     1      32.329 -13.610 -21.425  0.00  0.00    +0.030 C 
BRANCH  15  16
ATOM     16  C   UNL     1      32.100 -12.605 -20.329  0.00  0.00    -0.034 C 
ATOM     17  C   UNL     1      31.395 -11.459 -20.383  0.00  0.00    -0.048 C 
ATOM     18  C   UNL     1      31.207 -10.496 -19.245  0.00  0.00    +0.026 C 
ATOM     19  C   UNL     1      30.705 -11.051 -21.658  0.00  0.00    +0.026 C 
ENDBRANCH  15  16
ENDBRANCH  14  15
ENDBRANCH  11  14
ENDBRANCH  10  12
ENDBRANCH   9  10
ENDBRANCH   6   9
ENDBRANCH   5   7
ENDBRANCH   4   5
ENDBRANCH   1   4
BRANCH   1  20
ATOM     20  C   UNL     1      36.675 -22.374 -15.686  0.00  0.00    -0.044 C 
BRANCH  20  21
ATOM     21  C   UNL     1      36.422 -23.417 -14.609  0.00  0.00    +0.131 C 
BRANCH  21  22
ATOM     22  O   UNL     1      37.541 -23.448 -13.732  0.00  0.00    -0.275 OA
BRANCH  22  23
ATOM     23  P   UNL     1      37.731 -24.689 -12.714  0.00  0.00    +0.484 P 
ATOM     24  O   UNL     1      37.732 -24.312 -11.261  0.00  0.00    -0.227 OA
BRANCH  23  25
ATOM     25  O   UNL     1      36.571 -25.736 -13.131  0.00  0.00    -0.302 OA
ATOM     26  H   UNL     1      36.426 -25.694 -14.089  0.00  0.00    +0.222 HD
ENDBRANCH  23  25
BRANCH  23  27
ATOM     27  O   UNL     1      39.084 -25.421 -13.210  0.00  0.00    -0.186 OA
BRANCH  27  28
ATOM     28  P   UNL     1      39.630 -25.745 -14.697  0.00  0.00    +0.481 P 
ATOM     29  O   UNL     1      40.906 -26.534 -14.738  0.00  0.00    -0.227 OA
BRANCH  28  30
ATOM     30  O   UNL     1      38.362 -26.443 -15.416  0.00  0.00    -0.302 OA
ATOM     31  H   UNL     1      37.543 -26.125 -15.005  0.00  0.00    +0.222 HD
ENDBRANCH  28  30
BRANCH  28  32
ATOM     32  O   UNL     1      39.700 -24.285 -15.387  0.00  0.00    -0.302 OA
ATOM     33  H   UNL     1      38.815 -24.028 -15.689  0.00  0.00    +0.222 HD
ENDBRANCH  28  32
ENDBRANCH  27  28
ENDBRANCH  23  27
ENDBRANCH  22  23
ENDBRANCH  21  22
ENDBRANCH  20  21
ENDBRANCH   1  20
TORSDOF 18
ENDMDL
MODEL 3
REMARK VINA RESULT:      -9.1      1.201      1.813
REMARK  Name = 447278
REMARK  18 active torsions:
REMARK  status: ('A' for Active; 'I' for Inactive)
REMARK    1  A    between atoms: N_1  and  C_4
REMARK    2  A    between atoms: N_1  and  C_20
REMARK    3  A    between atoms: C_4  and  C_5
REMARK    4  A    between atoms: C_5  and  C_7
REMARK    5  A    between atoms: C_6  and  C_9
REMARK    6  A    between atoms: C_9  and  C_10
REMARK    7  A    between atoms: C_10  and  C_12
REMARK    8  A    between atoms: C_11  and  C_14
REMARK    9  A    between atoms: C_14  and  C_15
REMARK   10  A    between atoms: C_15  and  C_16
REMARK   11  A    between atoms: C_20  and  C_21
REMARK   12  A    between atoms: C_21  and  O_22
REMARK   13  A    between atoms: O_22  and  P_23
REMARK   14  A    between atoms: P_23  and  O_25
REMARK   15  A    between atoms: P_23  and  O_27
REMARK   16  A    between atoms: O_27  and  P_28
REMARK   17  A    between atoms: P_28  and  O_30
REMARK   18  A    between atoms: P_28  and  O_32
REMARK                            x       y       z     vdW  Elec       q    Type
REMARK                         _______ _______ _______ _____ _____    ______ ____
ROOT
ATOM      1  N   UNL     1      34.469 -23.018 -15.679  0.00  0.00    +0.387 N 
ATOM      2  C   UNL     1      35.695 -22.657 -16.392  0.00  0.00    -0.101 C 
ATOM      3  H   UNL     1      34.229 -22.258 -15.042  0.00  0.00    -0.080 HD
ENDROOT
BRANCH   1   4
ATOM      4  C   UNL     1      33.364 -23.192 -16.616  0.00  0.00    -0.073 C 
BRANCH   4   5
ATOM      5  C   UNL     1      33.890 -23.261 -18.047  0.00  0.00    +0.003 C 
BRANCH   5   7
ATOM      6  C   UNL     1      34.079 -21.283 -19.661  0.00  0.00    -0.048 C 
ATOM      7  C   UNL     1      33.374 -22.115 -18.871  0.00  0.00    -0.037 C 
ATOM      8  C   UNL     1      35.567 -21.357 -19.867  0.00  0.00    +0.026 C 
BRANCH   6   9
ATOM      9  C   UNL     1      33.368 -20.204 -20.457  0.00  0.00    +0.026 C 
BRANCH   9  10
ATOM     10  C   UNL     1      34.238 -19.572 -21.550  0.00  0.00    +0.030 C 
BRANCH  10  12
ATOM     11  C   UNL     1      34.590 -17.149 -22.340  0.00  0.00    -0.048 C 
ATOM     12  C   UNL     1      34.358 -18.080 -21.393  0.00  0.00    -0.034 C 
ATOM     13  C   UNL     1      34.766 -17.576 -23.775  0.00  0.00    +0.026 C 
BRANCH  11  14
ATOM     14  C   UNL     1      34.732 -15.664 -22.086  0.00  0.00    +0.026 C 
BRANCH  14  15
ATOM     15  C   UNL     1      33.414 -14.899 -22.282  0.00  0.00    +0.030 C 
BRANCH  15  16
ATOM     16  C   UNL     1      33.660 -13.567 -22.936  0.00  0.00    -0.034 C 
ATOM     17  C   UNL     1      33.573 -13.250 -24.241  0.00  0.00    -0.048 C 
ATOM     18  C   UNL     1      33.833 -11.892 -24.829  0.00  0.00    +0.026 C 
ATOM     19  C   UNL     1      33.177 -14.295 -25.252  0.00  0.00    +0.026 C 
ENDBRANCH  15  16
ENDBRANCH  14  15
ENDBRANCH  11  14
ENDBRANCH  10  12
ENDBRANCH   9  10
ENDBRANCH   6   9
ENDBRANCH   5   7
ENDBRANCH   4   5
ENDBRANCH   1   4
BRANCH   1  20
ATOM     20  C   UNL     1      34.676 -24.236 -14.895  0.00  0.00    -0.044 C 
BRANCH  20  21
ATOM     21  C   UNL     1      35.454 -23.932 -13.625  0.00  0.00    +0.131 C 
BRANCH  21  22
ATOM     22  O   UNL     1      36.797 -24.363 -13.798  0.00  0.00    -0.275 OA
BRANCH  22  23
ATOM     23  P   UNL     1      37.550 -25.149 -12.603  0.00  0.00    +0.484 P 
ATOM     24  O   UNL     1      37.500 -24.458 -11.271  0.00  0.00    -0.227 OA
BRANCH  23  25
ATOM     25  O   UNL     1      36.892 -26.627 -12.612  0.00  0.00    -0.302 OA
ATOM     26  H   UNL     1      36.746 -26.910 -13.528  0.00  0.00    +0.222 HD
ENDBRANCH  23  25
BRANCH  23  27
ATOM     27  O   UNL     1      39.045 -25.407 -13.160  0.00  0.00    -0.186 OA
BRANCH  27  28
ATOM     28  P   UNL     1      39.577 -25.751 -14.648  0.00  0.00    +0.481 P 
ATOM     29  O   UNL     1      40.892 -26.472 -14.692  0.00  0.00    -0.227 OA
BRANCH  28  30
ATOM     30  O   UNL     1      38.333 -26.539 -15.316  0.00  0.00    -0.302 OA
ATOM     31  H   UNL     1      38.484 -26.630 -16.269  0.00  0.00    +0.222 HD
ENDBRANCH  28  30
BRANCH  28  32
ATOM     32  O   UNL     1      39.554 -24.313 -15.386  0.00  0.00    -0.302 OA
ATOM     33  H   UNL     1      40.384 -24.185 -15.871  0.00  0.00    +0.222 HD
ENDBRANCH  28  32
ENDBRANCH  27  28
ENDBRANCH  23  27
ENDBRANCH  22  23
ENDBRANCH  21  22
ENDBRANCH  20  21
ENDBRANCH   1  20
TORSDOF 18
ENDMDL
MODEL 4
REMARK VINA RESULT:      -9.0      1.259      2.037
REMARK  Name = 447278
REMARK  18 active torsions:
REMARK  status: ('A' for Active; 'I' for Inactive)
REMARK    1  A    between atoms: N_1  and  C_4
REMARK    2  A    between atoms: N_1  and  C_20
REMARK    3  A    between atoms: C_4  and  C_5
REMARK    4  A    between atoms: C_5  and  C_7
REMARK    5  A    between atoms: C_6  and  C_9
REMARK    6  A    between atoms: C_9  and  C_10
REMARK    7  A    between atoms: C_10  and  C_12
REMARK    8  A    between atoms: C_11  and  C_14
REMARK    9  A    between atoms: C_14  and  C_15
REMARK   10  A    between atoms: C_15  and  C_16
REMARK   11  A    between atoms: C_20  and  C_21
REMARK   12  A    between atoms: C_21  and  O_22
REMARK   13  A    between atoms: O_22  and  P_23
REMARK   14  A    between atoms: P_23  and  O_25
REMARK   15  A    between atoms: P_23  and  O_27
REMARK   16  A    between atoms: O_27  and  P_28
REMARK   17  A    between atoms: P_28  and  O_30
REMARK   18  A    between atoms: P_28  and  O_32
REMARK                            x       y       z     vdW  Elec       q    Type
REMARK                         _______ _______ _______ _____ _____    ______ ____
ROOT
ATOM      1  N   UNL     1      33.250 -24.394 -14.594  0.00  0.00    +0.387 N 
ATOM      2  C   UNL     1      32.134 -24.859 -13.769  0.00  0.00    -0.101 C 
ATOM      3  H   UNL     1      33.475 -25.120 -15.275  0.00  0.00    -0.080 HD
ENDROOT
BRANCH   1   4
ATOM      4  C   UNL     1      32.881 -23.185 -15.321  0.00  0.00    -0.073 C 
BRANCH   4   5
ATOM      5  C   UNL     1      33.083 -23.387 -16.821  0.00  0.00    +0.003 C 
BRANCH   5   7
ATOM      6  C   UNL     1      34.693 -22.475 -18.590  0.00  0.00    -0.048 C 
ATOM      7  C   UNL     1      34.255 -22.589 -17.322  0.00  0.00    -0.037 C 
ATOM      8  C   UNL     1      34.063 -23.153 -19.776  0.00  0.00    +0.026 C 
BRANCH   6   9
ATOM      9  C   UNL     1      35.875 -21.578 -18.909  0.00  0.00    +0.026 C 
BRANCH   9  10
ATOM     10  C   UNL     1      36.026 -21.267 -20.403  0.00  0.00    +0.030 C 
BRANCH  10  12
ATOM     11  C   UNL     1      34.704 -19.130 -20.952  0.00  0.00    -0.048 C 
ATOM     12  C   UNL     1      35.845 -19.804 -20.703  0.00  0.00    -0.034 C 
ATOM     13  C   UNL     1      33.389 -19.866 -20.947  0.00  0.00    +0.026 C 
BRANCH  11  14
ATOM     14  C   UNL     1      34.618 -17.655 -21.281  0.00  0.00    +0.026 C 
BRANCH  14  15
ATOM     15  C   UNL     1      35.590 -17.237 -22.394  0.00  0.00    +0.030 C 
BRANCH  15  16
ATOM     16  C   UNL     1      34.904 -16.355 -23.401  0.00  0.00    -0.034 C 
ATOM     17  C   UNL     1      34.373 -16.702 -24.588  0.00  0.00    -0.048 C 
ATOM     18  C   UNL     1      33.699 -15.765 -25.551  0.00  0.00    +0.026 C 
ATOM     19  C   UNL     1      34.416 -18.135 -25.050  0.00  0.00    +0.026 C 
ENDBRANCH  15  16
ENDBRANCH  14  15
ENDBRANCH  11  14
ENDBRANCH  10  12
ENDBRANCH   9  10
ENDBRANCH   6   9
ENDBRANCH   5   7
ENDBRANCH   4   5
ENDBRANCH   1   4
BRANCH   1  20
ATOM     20  C   UNL     1      34.432 -24.155 -13.763  0.00  0.00    -0.044 C 
BRANCH  20  21
ATOM     21  C   UNL     1      35.627 -24.930 -14.293  0.00  0.00    +0.131 C 
BRANCH  21  22
ATOM     22  O   UNL     1      36.813 -24.376 -13.739  0.00  0.00    -0.275 OA
BRANCH  22  23
ATOM     23  P   UNL     1      37.533 -25.104 -12.489  0.00  0.00    +0.484 P 
ATOM     24  O   UNL     1      37.405 -24.375 -11.182  0.00  0.00    -0.227 OA
BRANCH  23  25
ATOM     25  O   UNL     1      36.918 -26.600 -12.482  0.00  0.00    -0.302 OA
ATOM     26  H   UNL     1      36.493 -26.779 -13.334  0.00  0.00    +0.222 HD
ENDBRANCH  23  25
BRANCH  23  27
ATOM     27  O   UNL     1      39.058 -25.333 -12.972  0.00  0.00    -0.186 OA
BRANCH  27  28
ATOM     28  P   UNL     1      39.660 -25.794 -14.400  0.00  0.00    +0.481 P 
ATOM     29  O   UNL     1      41.057 -26.338 -14.346  0.00  0.00    -0.227 OA
BRANCH  28  30
ATOM     30  O   UNL     1      38.541 -26.816 -14.964  0.00  0.00    -0.302 OA
ATOM     31  H   UNL     1      37.839 -26.922 -14.304  0.00  0.00    +0.222 HD
ENDBRANCH  28  30
BRANCH  28  32
ATOM     32  O   UNL     1      39.466 -24.478 -15.319  0.00  0.00    -0.302 OA
ATOM     33  H   UNL     1      39.236 -24.746 -16.222  0.00  0.00    +0.222 HD
ENDBRANCH  28  32
ENDBRANCH  27  28
ENDBRANCH  23  27
ENDBRANCH  22  23
ENDBRANCH  21  22
ENDBRANCH  20  21
ENDBRANCH   1  20
TORSDOF 18
ENDMDL
MODEL 5
REMARK VINA RESULT:      -8.9      1.600      2.724
REMARK  Name = 447278
REMARK  18 active torsions:
REMARK  status: ('A' for Active; 'I' for Inactive)
REMARK    1  A    between atoms: N_1  and  C_4
REMARK    2  A    between atoms: N_1  and  C_20
REMARK    3  A    between atoms: C_4  and  C_5
REMARK    4  A    between atoms: C_5  and  C_7
REMARK    5  A    between atoms: C_6  and  C_9
REMARK    6  A    between atoms: C_9  and  C_10
REMARK    7  A    between atoms: C_10  and  C_12
REMARK    8  A    between atoms: C_11  and  C_14
REMARK    9  A    between atoms: C_14  and  C_15
REMARK   10  A    between atoms: C_15  and  C_16
REMARK   11  A    between atoms: C_20  and  C_21
REMARK   12  A    between atoms: C_21  and  O_22
REMARK   13  A    between atoms: O_22  and  P_23
REMARK   14  A    between atoms: P_23  and  O_25
REMARK   15  A    between atoms: P_23  and  O_27
REMARK   16  A    between atoms: O_27  and  P_28
REMARK   17  A    between atoms: P_28  and  O_30
REMARK   18  A    between atoms: P_28  and  O_32
REMARK                            x       y       z     vdW  Elec       q    Type
REMARK                         _______ _______ _______ _____ _____    ______ ____
ROOT
ATOM      1  N   UNL     1      36.159 -22.730 -16.840  0.00  0.00    +0.387 N 
ATOM      2  C   UNL     1      34.731 -22.943 -16.598  0.00  0.00    -0.101 C 
ATOM      3  H   UNL     1      36.576 -23.618 -17.119  0.00  0.00    -0.080 HD
ENDROOT
BRANCH   1   4
ATOM      4  C   UNL     1      36.358 -21.774 -17.923  0.00  0.00    -0.073 C 
BRANCH   4   5
ATOM      5  C   UNL     1      35.155 -21.780 -18.863  0.00  0.00    +0.003 C 
BRANCH   5   7
ATOM      6  C   UNL     1      34.452 -20.165 -20.720  0.00  0.00    -0.048 C 
ATOM      7  C   UNL     1      35.376 -20.862 -20.033  0.00  0.00    -0.037 C 
ATOM      8  C   UNL     1      32.977 -20.182 -20.428  0.00  0.00    +0.026 C 
BRANCH   6   9
ATOM      9  C   UNL     1      34.877 -19.248 -21.851  0.00  0.00    +0.026 C 
BRANCH   9  10
ATOM     10  C   UNL     1      35.120 -17.799 -21.411  0.00  0.00    +0.030 C 
BRANCH  10  12
ATOM     11  C   UNL     1      33.669 -15.714 -21.005  0.00  0.00    -0.048 C 
ATOM     12  C   UNL     1      33.863 -16.973 -21.446  0.00  0.00    -0.034 C 
ATOM     13  C   UNL     1      34.815 -14.960 -20.379  0.00  0.00    +0.026 C 
BRANCH  11  14
ATOM     14  C   UNL     1      32.353 -14.968 -21.049  0.00  0.00    +0.026 C 
BRANCH  14  15
ATOM     15  C   UNL     1      32.394 -13.744 -21.975  0.00  0.00    +0.030 C 
BRANCH  15  16
ATOM     16  C   UNL     1      32.468 -14.165 -23.417  0.00  0.00    -0.034 C 
ATOM     17  C   UNL     1      33.094 -13.546 -24.436  0.00  0.00    -0.048 C 
ATOM     18  C   UNL     1      33.128 -14.024 -25.860  0.00  0.00    +0.026 C 
ATOM     19  C   UNL     1      33.850 -12.265 -24.197  0.00  0.00    +0.026 C 
ENDBRANCH  15  16
ENDBRANCH  14  15
ENDBRANCH  11  14
ENDBRANCH  10  12
ENDBRANCH   9  10
ENDBRANCH   6   9
ENDBRANCH   5   7
ENDBRANCH   4   5
ENDBRANCH   1   4
BRANCH   1  20
ATOM     20  C   UNL     1      36.818 -22.269 -15.618  0.00  0.00    -0.044 C 
BRANCH  20  21
ATOM     21  C   UNL     1      36.472 -23.173 -14.446  0.00  0.00    +0.131 C 
BRANCH  21  22
ATOM     22  O   UNL     1      37.632 -23.341 -13.641  0.00  0.00    -0.275 OA
BRANCH  22  23
ATOM     23  P   UNL     1      37.754 -24.623 -12.664  0.00  0.00    +0.484 P 
ATOM     24  O   UNL     1      37.749 -24.296 -11.198  0.00  0.00    -0.227 OA
BRANCH  23  25
ATOM     25  O   UNL     1      36.557 -25.605 -13.132  0.00  0.00    -0.302 OA
ATOM     26  H   UNL     1      36.428 -25.525 -14.090  0.00  0.00    +0.222 HD
ENDBRANCH  23  25
BRANCH  23  27
ATOM     27  O   UNL     1      39.082 -25.395 -13.166  0.00  0.00    -0.186 OA
BRANCH  27  28
ATOM     28  P   UNL     1      39.592 -25.769 -14.654  0.00  0.00    +0.481 P 
ATOM     29  O   UNL     1      40.852 -26.583 -14.699  0.00  0.00    -0.227 OA
BRANCH  28  30
ATOM     30  O   UNL     1      38.297 -26.461 -15.330  0.00  0.00    -0.302 OA
ATOM     31  H   UNL     1      37.802 -25.797 -15.834  0.00  0.00    +0.222 HD
ENDBRANCH  28  30
BRANCH  28  32
ATOM     32  O   UNL     1      39.675 -24.329 -15.384  0.00  0.00    -0.302 OA
ATOM     33  H   UNL     1      39.378 -24.415 -16.303  0.00  0.00    +0.222 HD
ENDBRANCH  28  32
ENDBRANCH  27  28
ENDBRANCH  23  27
ENDBRANCH  22  23
ENDBRANCH  21  22
ENDBRANCH  20  21
ENDBRANCH   1  20
TORSDOF 18
ENDMDL
MODEL 6
REMARK VINA RESULT:      -8.9      1.319      2.044
REMARK  Name = 447278
REMARK  18 active torsions:
REMARK  status: ('A' for Active; 'I' for Inactive)
REMARK    1  A    between atoms: N_1  and  C_4
REMARK    2  A    between atoms: N_1  and  C_20
REMARK    3  A    between atoms: C_4  and  C_5
REMARK    4  A    between atoms: C_5  and  C_7
REMARK    5  A    between atoms: C_6  and  C_9
REMARK    6  A    between atoms: C_9  and  C_10
REMARK    7  A    between atoms: C_10  and  C_12
REMARK    8  A    between atoms: C_11  and  C_14
REMARK    9  A    between atoms: C_14  and  C_15
REMARK   10  A    between atoms: C_15  and  C_16
REMARK   11  A    between atoms: C_20  and  C_21
REMARK   12  A    between atoms: C_21  and  O_22
REMARK   13  A    between atoms: O_22  and  P_23
REMARK   14  A    between atoms: P_23  and  O_25
REMARK   15  A    between atoms: P_23  and  O_27
REMARK   16  A    between atoms: O_27  and  P_28
REMARK   17  A    between atoms: P_28  and  O_30
REMARK   18  A    between atoms: P_28  and  O_32
REMARK                            x       y       z     vdW  Elec       q    Type
REMARK                         _______ _______ _______ _____ _____    ______ ____
ROOT
ATOM      1  N   UNL     1      32.759 -23.847 -15.767  0.00  0.00    +0.387 N 
ATOM      2  C   UNL     1      31.626 -23.983 -14.851  0.00  0.00    -0.101 C 
ATOM      3  H   UNL     1      33.071 -24.780 -16.038  0.00  0.00    -0.080 HD
ENDROOT
BRANCH   1   4
ATOM      4  C   UNL     1      32.359 -23.131 -16.974  0.00  0.00    -0.073 C 
BRANCH   4   5
ATOM      5  C   UNL     1      33.492 -23.146 -17.997  0.00  0.00    +0.003 C 
BRANCH   5   7
ATOM      6  C   UNL     1      34.338 -21.290 -19.544  0.00  0.00    -0.048 C 
ATOM      7  C   UNL     1      33.355 -22.011 -18.973  0.00  0.00    -0.037 C 
ATOM      8  C   UNL     1      35.806 -21.499 -19.294  0.00  0.00    +0.026 C 
BRANCH   6   9
ATOM      9  C   UNL     1      34.001 -20.204 -20.549  0.00  0.00    +0.026 C 
BRANCH   9  10
ATOM     10  C   UNL     1      35.181 -19.806 -21.443  0.00  0.00    +0.030 C 
BRANCH  10  12
ATOM     11  C   UNL     1      34.784 -18.101 -23.328  0.00  0.00    -0.048 C 
ATOM     12  C   UNL     1      35.008 -18.436 -22.042  0.00  0.00    -0.034 C 
ATOM     13  C   UNL     1      34.680 -19.184 -24.372  0.00  0.00    +0.026 C 
BRANCH  11  14
ATOM     14  C   UNL     1      34.657 -16.686 -23.851  0.00  0.00    +0.026 C 
BRANCH  14  15
ATOM     15  C   UNL     1      35.011 -15.628 -22.794  0.00  0.00    +0.030 C 
BRANCH  15  16
ATOM     16  C   UNL     1      34.016 -14.501 -22.811  0.00  0.00    -0.034 C 
ATOM     17  C   UNL     1      33.008 -14.265 -21.949  0.00  0.00    -0.048 C 
ATOM     18  C   UNL     1      32.046 -13.114 -22.024  0.00  0.00    +0.026 C 
ATOM     19  C   UNL     1      32.774 -15.190 -20.783  0.00  0.00    +0.026 C 
ENDBRANCH  15  16
ENDBRANCH  14  15
ENDBRANCH  11  14
ENDBRANCH  10  12
ENDBRANCH   9  10
ENDBRANCH   6   9
ENDBRANCH   5   7
ENDBRANCH   4   5
ENDBRANCH   1   4
BRANCH   1  20
ATOM     20  C   UNL     1      33.869 -23.160 -15.105  0.00  0.00    -0.044 C 
BRANCH  20  21
ATOM     21  C   UNL     1      34.561 -24.085 -14.117  0.00  0.00    +0.131 C 
BRANCH  21  22
ATOM     22  O   UNL     1      35.748 -23.454 -13.654  0.00  0.00    -0.275 OA
BRANCH  22  23
ATOM     23  P   UNL     1      37.136 -23.665 -14.454  0.00  0.00    +0.484 P 
ATOM     24  O   UNL     1      37.597 -22.467 -15.234  0.00  0.00    -0.227 OA
BRANCH  23  25
ATOM     25  O   UNL     1      38.181 -24.169 -13.326  0.00  0.00    -0.302 OA
ATOM     26  H   UNL     1      38.159 -23.562 -12.571  0.00  0.00    +0.222 HD
ENDBRANCH  23  25
BRANCH  23  27
ATOM     27  O   UNL     1      36.894 -24.987 -15.351  0.00  0.00    -0.186 OA
BRANCH  27  28
ATOM     28  P   UNL     1      37.229 -26.542 -15.060  0.00  0.00    +0.481 P 
ATOM     29  O   UNL     1      36.706 -27.500 -16.089  0.00  0.00    -0.227 OA
BRANCH  28  30
ATOM     30  O   UNL     1      38.834 -26.547 -14.863  0.00  0.00    -0.302 OA
ATOM     31  H   UNL     1      39.058 -26.105 -14.029  0.00  0.00    +0.222 HD
ENDBRANCH  28  30
BRANCH  28  32
ATOM     32  O   UNL     1      36.664 -26.763 -13.561  0.00  0.00    -0.302 OA
ATOM     33  H   UNL     1      36.821 -27.679 -13.288  0.00  0.00    +0.222 HD
ENDBRANCH  28  32
ENDBRANCH  27  28
ENDBRANCH  23  27
ENDBRANCH  22  23
ENDBRANCH  21  22
ENDBRANCH  20  21
ENDBRANCH   1  20
TORSDOF 18
ENDMDL
MODEL 7
REMARK VINA RESULT:      -8.8      1.620      3.314
REMARK  Name = 447278
REMARK  18 active torsions:
REMARK  status: ('A' for Active; 'I' for Inactive)
REMARK    1  A    between atoms: N_1  and  C_4
REMARK    2  A    between atoms: N_1  and  C_20
REMARK    3  A    between atoms: C_4  and  C_5
REMARK    4  A    between atoms: C_5  and  C_7
REMARK    5  A    between atoms: C_6  and  C_9
REMARK    6  A    between atoms: C_9  and  C_10
REMARK    7  A    between atoms: C_10  and  C_12
REMARK    8  A    between atoms: C_11  and  C_14
REMARK    9  A    between atoms: C_14  and  C_15
REMARK   10  A    between atoms: C_15  and  C_16
REMARK   11  A    between atoms: C_20  and  C_21
REMARK   12  A    between atoms: C_21  and  O_22
REMARK   13  A    between atoms: O_22  and  P_23
REMARK   14  A    between atoms: P_23  and  O_25
REMARK   15  A    between atoms: P_23  and  O_27
REMARK   16  A    between atoms: O_27  and  P_28
REMARK   17  A    between atoms: P_28  and  O_30
REMARK   18  A    between atoms: P_28  and  O_32
REMARK                            x       y       z     vdW  Elec       q    Type
REMARK                         _______ _______ _______ _____ _____    ______ ____
ROOT
ATOM      1  N   UNL     1      33.355 -23.655 -16.848  0.00  0.00    +0.387 N 
ATOM      2  C   UNL     1      32.136 -22.868 -16.654  0.00  0.00    -0.101 C 
ATOM      3  H   UNL     1      33.106 -24.531 -17.307  0.00  0.00    -0.080 HD
ENDROOT
BRANCH   1   4
ATOM      4  C   UNL     1      34.293 -22.941 -17.708  0.00  0.00    -0.073 C 
BRANCH   4   5
ATOM      5  C   UNL     1      33.545 -22.229 -18.832  0.00  0.00    +0.003 C 
BRANCH   5   7
ATOM      6  C   UNL     1      34.113 -20.309 -20.427  0.00  0.00    -0.048 C 
ATOM      7  C   UNL     1      34.458 -21.307 -19.591  0.00  0.00    -0.037 C 
ATOM      8  C   UNL     1      32.698 -19.927 -20.763  0.00  0.00    +0.026 C 
BRANCH   6   9
ATOM      9  C   UNL     1      35.186 -19.450 -21.070  0.00  0.00    +0.026 C 
BRANCH   9  10
ATOM     10  C   UNL     1      34.640 -18.454 -22.100  0.00  0.00    +0.030 C 
BRANCH  10  12
ATOM     11  C   UNL     1      34.294 -15.906 -22.191  0.00  0.00    -0.048 C 
ATOM     12  C   UNL     1      34.507 -17.065 -21.536  0.00  0.00    -0.034 C 
ATOM     13  C   UNL     1      34.159 -15.915 -23.693  0.00  0.00    +0.026 C 
BRANCH  11  14
ATOM     14  C   UNL     1      34.208 -14.542 -21.543  0.00  0.00    +0.026 C 
BRANCH  14  15
ATOM     15  C   UNL     1      32.823 -14.256 -20.942  0.00  0.00    +0.030 C 
BRANCH  15  16
ATOM     16  C   UNL     1      32.134 -13.147 -21.688  0.00  0.00    -0.034 C 
ATOM     17  C   UNL     1      31.648 -11.990 -21.199  0.00  0.00    -0.048 C 
ATOM     18  C   UNL     1      30.967 -10.920 -22.004  0.00  0.00    +0.026 C 
ATOM     19  C   UNL     1      31.771 -11.673 -19.731  0.00  0.00    +0.026 C 
ENDBRANCH  15  16
ENDBRANCH  14  15
ENDBRANCH  11  14
ENDBRANCH  10  12
ENDBRANCH   9  10
ENDBRANCH   6   9
ENDBRANCH   5   7
ENDBRANCH   4   5
ENDBRANCH   1   4
BRANCH   1  20
ATOM     20  C   UNL     1      33.972 -23.964 -15.558  0.00  0.00    -0.044 C 
BRANCH  20  21
ATOM     21  C   UNL     1      35.435 -23.553 -15.550  0.00  0.00    +0.131 C 
BRANCH  21  22
ATOM     22  O   UNL     1      36.239 -24.725 -15.588  0.00  0.00    -0.275 OA
BRANCH  22  23
ATOM     23  P   UNL     1      37.265 -25.036 -14.378  0.00  0.00    +0.484 P 
ATOM     24  O   UNL     1      38.204 -26.180 -14.633  0.00  0.00    -0.227 OA
BRANCH  23  25
ATOM     25  O   UNL     1      37.997 -23.622 -14.093  0.00  0.00    -0.302 OA
ATOM     26  H   UNL     1      38.695 -23.481 -14.751  0.00  0.00    +0.222 HD
ENDBRANCH  23  25
BRANCH  23  27
ATOM     27  O   UNL     1      36.320 -25.231 -13.081  0.00  0.00    -0.186 OA
BRANCH  27  28
ATOM     28  P   UNL     1      36.294 -24.455 -11.663  0.00  0.00    +0.481 P 
ATOM     29  O   UNL     1      35.398 -25.069 -10.628  0.00  0.00    -0.227 OA
BRANCH  28  30
ATOM     30  O   UNL     1      37.856 -24.363 -11.258  0.00  0.00    -0.302 OA
ATOM     31  H   UNL     1      38.113 -23.431 -11.174  0.00  0.00    +0.222 HD
ENDBRANCH  28  30
BRANCH  28  32
ATOM     32  O   UNL     1      35.923 -22.938 -12.084  0.00  0.00    -0.302 OA
ATOM     33  H   UNL     1      35.981 -22.364 -11.305  0.00  0.00    +0.222 HD
ENDBRANCH  28  32
ENDBRANCH  27  28
ENDBRANCH  23  27
ENDBRANCH  22  23
ENDBRANCH  21  22
ENDBRANCH  20  21
ENDBRANCH   1  20
TORSDOF 18
ENDMDL
MODEL 8
REMARK VINA RESULT:      -8.8      1.992      3.858
REMARK  Name = 447278
REMARK  18 active torsions:
REMARK  status: ('A' for Active; 'I' for Inactive)
REMARK    1  A    between atoms: N_1  and  C_4
REMARK    2  A    between atoms: N_1  and  C_20
REMARK    3  A    between atoms: C_4  and  C_5
REMARK    4  A    between atoms: C_5  and  C_7
REMARK    5  A    between atoms: C_6  and  C_9
REMARK    6  A    between atoms: C_9  and  C_10
REMARK    7  A    between atoms: C_10  and  C_12
REMARK    8  A    between atoms: C_11  and  C_14
REMARK    9  A    between atoms: C_14  and  C_15
REMARK   10  A    between atoms: C_15  and  C_16
REMARK   11  A    between atoms: C_20  and  C_21
REMARK   12  A    between atoms: C_21  and  O_22
REMARK   13  A    between atoms: O_22  and  P_23
REMARK   14  A    between atoms: P_23  and  O_25
REMARK   15  A    between atoms: P_23  and  O_27
REMARK   16  A    between atoms: O_27  and  P_28
REMARK   17  A    between atoms: P_28  and  O_30
REMARK   18  A    between atoms: P_28  and  O_32
REMARK                            x       y       z     vdW  Elec       q    Type
REMARK                         _______ _______ _______ _____ _____    ______ ____
ROOT
ATOM      1  N   UNL     1      36.275 -21.519 -17.353  0.00  0.00    +0.387 N 
ATOM      2  C   UNL     1      37.564 -21.585 -16.663  0.00  0.00    -0.101 C 
ATOM      3  H   UNL     1      35.769 -20.699 -17.018  0.00  0.00    -0.080 HD
ENDROOT
BRANCH   1   4
ATOM      4  C   UNL     1      36.471 -21.377 -18.792  0.00  0.00    -0.073 C 
BRANCH   4   5
ATOM      5  C   UNL     1      35.124 -21.308 -19.505  0.00  0.00    +0.003 C 
BRANCH   5   7
ATOM      6  C   UNL     1      34.289 -19.770 -21.374  0.00  0.00    -0.048 C 
ATOM      7  C   UNL     1      35.231 -20.537 -20.791  0.00  0.00    -0.037 C 
ATOM      8  C   UNL     1      32.910 -19.543 -20.821  0.00  0.00    +0.026 C 
BRANCH   6   9
ATOM      9  C   UNL     1      34.602 -19.027 -22.659  0.00  0.00    +0.026 C 
BRANCH   9  10
ATOM     10  C   UNL     1      35.706 -17.974 -22.508  0.00  0.00    +0.030 C 
BRANCH  10  12
ATOM     11  C   UNL     1      34.722 -15.644 -22.040  0.00  0.00    -0.048 C 
ATOM     12  C   UNL     1      35.228 -16.590 -22.856  0.00  0.00    -0.034 C 
ATOM     13  C   UNL     1      34.585 -15.928 -20.566  0.00  0.00    +0.026 C 
BRANCH  11  14
ATOM     14  C   UNL     1      34.230 -14.283 -22.484  0.00  0.00    +0.026 C 
BRANCH  14  15
ATOM     15  C   UNL     1      32.942 -14.360 -23.319  0.00  0.00    +0.030 C 
BRANCH  15  16
ATOM     16  C   UNL     1      33.097 -13.609 -24.613  0.00  0.00    -0.034 C 
ATOM     17  C   UNL     1      33.190 -14.108 -25.860  0.00  0.00    -0.048 C 
ATOM     18  C   UNL     1      33.343 -13.296 -27.115  0.00  0.00    +0.026 C 
ATOM     19  C   UNL     1      33.134 -15.595 -26.089  0.00  0.00    +0.026 C 
ENDBRANCH  15  16
ENDBRANCH  14  15
ENDBRANCH  11  14
ENDBRANCH  10  12
ENDBRANCH   9  10
ENDBRANCH   6   9
ENDBRANCH   5   7
ENDBRANCH   4   5
ENDBRANCH   1   4
BRANCH   1  20
ATOM     20  C   UNL     1      35.478 -22.711 -17.058  0.00  0.00    -0.044 C 
BRANCH  20  21
ATOM     21  C   UNL     1      35.734 -23.190 -15.638  0.00  0.00    +0.131 C 
BRANCH  21  22
ATOM     22  O   UNL     1      35.980 -24.590 -15.666  0.00  0.00    -0.275 OA
BRANCH  22  23
ATOM     23  P   UNL     1      37.078 -25.234 -14.671  0.00  0.00    +0.484 P 
ATOM     24  O   UNL     1      37.698 -26.510 -15.164  0.00  0.00    -0.227 OA
BRANCH  23  25
ATOM     25  O   UNL     1      38.134 -24.038 -14.405  0.00  0.00    -0.302 OA
ATOM     26  H   UNL     1      38.068 -23.384 -15.116  0.00  0.00    +0.222 HD
ENDBRANCH  23  25
BRANCH  23  27
ATOM     27  O   UNL     1      36.314 -25.374 -13.253  0.00  0.00    -0.186 OA
BRANCH  27  28
ATOM     28  P   UNL     1      36.501 -24.569 -11.864  0.00  0.00    +0.481 P 
ATOM     29  O   UNL     1      37.881 -24.638 -11.281  0.00  0.00    -0.227 OA
BRANCH  28  30
ATOM     30  O   UNL     1      35.974 -23.082 -12.220  0.00  0.00    -0.302 OA
ATOM     31  H   UNL     1      36.183 -22.482 -11.488  0.00  0.00    +0.222 HD
ENDBRANCH  28  30
BRANCH  28  32
ATOM     32  O   UNL     1      35.327 -25.172 -10.931  0.00  0.00    -0.302 OA
ATOM     33  H   UNL     1      34.504 -25.226 -11.441  0.00  0.00    +0.222 HD
ENDBRANCH  28  32
ENDBRANCH  27  28
ENDBRANCH  23  27
ENDBRANCH  22  23
ENDBRANCH  21  22
ENDBRANCH  20  21
ENDBRANCH   1  20
TORSDOF 18
ENDMDL
MODEL 9
REMARK VINA RESULT:      -8.7      5.236      6.825
REMARK  Name = 447278
REMARK  18 active torsions:
REMARK  status: ('A' for Active; 'I' for Inactive)
REMARK    1  A    between atoms: N_1  and  C_4
REMARK    2  A    between atoms: N_1  and  C_20
REMARK    3  A    between atoms: C_4  and  C_5
REMARK    4  A    between atoms: C_5  and  C_7
REMARK    5  A    between atoms: C_6  and  C_9
REMARK    6  A    between atoms: C_9  and  C_10
REMARK    7  A    between atoms: C_10  and  C_12
REMARK    8  A    between atoms: C_11  and  C_14
REMARK    9  A    between atoms: C_14  and  C_15
REMARK   10  A    between atoms: C_15  and  C_16
REMARK   11  A    between atoms: C_20  and  C_21
REMARK   12  A    between atoms: C_21  and  O_22
REMARK   13  A    between atoms: O_22  and  P_23
REMARK   14  A    between atoms: P_23  and  O_25
REMARK   15  A    between atoms: P_23  and  O_27
REMARK   16  A    between atoms: O_27  and  P_28
REMARK   17  A    between atoms: P_28  and  O_30
REMARK   18  A    between atoms: P_28  and  O_32
REMARK                            x       y       z     vdW  Elec       q    Type
REMARK                         _______ _______ _______ _____ _____    ______ ____
ROOT
ATOM      1  N   UNL     1      33.982 -22.141 -18.480  0.00  0.00    +0.387 N 
ATOM      2  C   UNL     1      35.442 -22.081 -18.405  0.00  0.00    -0.101 C 
ATOM      3  H   UNL     1      33.595 -21.436 -17.852  0.00  0.00    -0.080 HD
ENDROOT
BRANCH   1   4
ATOM      4  C   UNL     1      33.525 -21.846 -19.833  0.00  0.00    -0.073 C 
BRANCH   4   5
ATOM      5  C   UNL     1      32.958 -20.430 -19.903  0.00  0.00    +0.003 C 
BRANCH   5   7
ATOM      6  C   UNL     1      34.480 -19.358 -21.660  0.00  0.00    -0.048 C 
ATOM      7  C   UNL     1      33.280 -19.782 -21.221  0.00  0.00    -0.037 C 
ATOM      8  C   UNL     1      35.761 -19.460 -20.879  0.00  0.00    +0.026 C 
BRANCH   6   9
ATOM      9  C   UNL     1      34.615 -18.765 -23.050  0.00  0.00    +0.026 C 
BRANCH   9  10
ATOM     10  C   UNL     1      35.685 -17.671 -23.151  0.00  0.00    +0.030 C 
BRANCH  10  12
ATOM     11  C   UNL     1      34.649 -15.473 -22.307  0.00  0.00    -0.048 C 
ATOM     12  C   UNL     1      35.087 -16.297 -23.280  0.00  0.00    -0.034 C 
ATOM     13  C   UNL     1      34.734 -15.912 -20.867  0.00  0.00    +0.026 C 
BRANCH  11  14
ATOM     14  C   UNL     1      34.025 -14.113 -22.531  0.00  0.00    +0.026 C 
BRANCH  14  15
ATOM     15  C   UNL     1      32.798 -14.167 -23.455  0.00  0.00    +0.030 C 
BRANCH  15  16
ATOM     16  C   UNL     1      33.066 -13.441 -24.745  0.00  0.00    -0.034 C 
ATOM     17  C   UNL     1      33.155 -13.953 -25.987  0.00  0.00    -0.048 C 
ATOM     18  C   UNL     1      33.426 -13.168 -27.238  0.00  0.00    +0.026 C 
ATOM     19  C   UNL     1      32.968 -15.431 -26.214  0.00  0.00    +0.026 C 
ENDBRANCH  15  16
ENDBRANCH  14  15
ENDBRANCH  11  14
ENDBRANCH  10  12
ENDBRANCH   9  10
ENDBRANCH   6   9
ENDBRANCH   5   7
ENDBRANCH   4   5
ENDBRANCH   1   4
BRANCH   1  20
ATOM     20  C   UNL     1      33.504 -23.458 -18.051  0.00  0.00    -0.044 C 
BRANCH  20  21
ATOM     21  C   UNL     1      32.715 -23.347 -16.757  0.00  0.00    +0.131 C 
BRANCH  21  22
ATOM     22  O   UNL     1      31.398 -22.908 -17.061  0.00  0.00    -0.275 OA
BRANCH  22  23
ATOM     23  P   UNL     1      30.222 -23.069 -15.964  0.00  0.00    +0.484 P 
ATOM     24  O   UNL     1      29.824 -24.489 -15.678  0.00  0.00    -0.227 OA
BRANCH  23  25
ATOM     25  O   UNL     1      30.757 -22.253 -14.674  0.00  0.00    -0.302 OA
ATOM     26  H   UNL     1      30.002 -21.912 -14.171  0.00  0.00    +0.222 HD
ENDBRANCH  23  25
BRANCH  23  27
ATOM     27  O   UNL     1      29.018 -22.142 -16.515  0.00  0.00    -0.186 OA
BRANCH  27  28
ATOM     28  P   UNL     1      27.454 -22.469 -16.758  0.00  0.00    +0.481 P 
ATOM     29  O   UNL     1      26.621 -22.507 -15.510  0.00  0.00    -0.227 OA
BRANCH  28  30
ATOM     30  O   UNL     1      27.007 -21.369 -17.855  0.00  0.00    -0.302 OA
ATOM     31  H   UNL     1      27.076 -20.482 -17.469  0.00  0.00    +0.222 HD
ENDBRANCH  28  30
BRANCH  28  32
ATOM     32  O   UNL     1      27.495 -23.848 -17.601  0.00  0.00    -0.302 OA
ATOM     33  H   UNL     1      28.034 -24.501 -17.127  0.00  0.00    +0.222 HD
ENDBRANCH  28  32
ENDBRANCH  27  28
ENDBRANCH  23  27
ENDBRANCH  22  23
ENDBRANCH  21  22
ENDBRANCH  20  21
ENDBRANCH   1  20
TORSDOF 18
ENDMDL
