MODEL 1
REMARK VINA RESULT:      -4.5      0.000      0.000
REMARK  Name = 444800
REMARK  0 active torsions:
REMARK  status: ('A' for Active; 'I' for Inactive)
REMARK                            x       y       z     vdW  Elec       q    Type
REMARK                         _______ _______ _______ _____ _____    ______ ____
ROOT
ATOM      1  N   UNL     1      34.724 -21.170 -19.712  0.00  0.00    -0.290 N 
ATOM      2  N   UNL     1      32.769 -21.833 -19.082  0.00  0.00    -0.317 N 
ATOM      3  C   UNL     1      33.412 -20.947 -19.849  0.00  0.00    +0.147 C 
ATOM      4  C   UNL     1      34.921 -22.218 -18.844  0.00  0.00    +0.078 C 
ATOM      5  C   UNL     1      33.684 -22.637 -18.445  0.00  0.00    +0.075 C 
ATOM      6  C   UNL     1      35.777 -20.427 -20.375  0.00  0.00    +0.114 C 
ATOM      7  C   UNL     1      32.769 -19.909 -20.693  0.00  0.00    +0.044 C 
ATOM      8  H   UNL     1      31.791 -21.900 -18.990  0.00  0.00    +0.148 HD
ENDROOT
TORSDOF 0
ENDMDL
MODEL 2
REMARK VINA RESULT:      -4.4      0.935      2.386
REMARK  Name = 444800
REMARK  0 active torsions:
REMARK  status: ('A' for Active; 'I' for Inactive)
REMARK                            x       y       z     vdW  Elec       q    Type
REMARK                         _______ _______ _______ _____ _____    ______ ____
ROOT
ATOM      1  N   UNL     1      34.809 -20.916 -19.970  0.00  0.00    -0.290 N 
ATOM      2  N   UNL     1      32.652 -20.866 -19.907  0.00  0.00    -0.317 N 
ATOM      3  C   UNL     1      33.730 -21.502 -19.439  0.00  0.00    +0.147 C 
ATOM      4  C   UNL     1      34.413 -19.887 -20.791  0.00  0.00    +0.078 C 
ATOM      5  C   UNL     1      33.048 -19.856 -20.751  0.00  0.00    +0.075 C 
ATOM      6  C   UNL     1      36.184 -21.302 -19.721  0.00  0.00    +0.114 C 
ATOM      7  C   UNL     1      33.714 -22.651 -18.499  0.00  0.00    +0.044 C 
ATOM      8  H   UNL     1      31.720 -21.087 -19.681  0.00  0.00    +0.148 HD
ENDROOT
TORSDOF 0
ENDMDL
MODEL 3
REMARK VINA RESULT:      -4.3      1.049      2.482
REMARK  Name = 444800
REMARK  0 active torsions:
REMARK  status: ('A' for Active; 'I' for Inactive)
REMARK                            x       y       z     vdW  Elec       q    Type
REMARK                         _______ _______ _______ _____ _____    ______ ____
ROOT
ATOM      1  N   UNL     1      34.731 -21.506 -19.507  0.00  0.00    -0.290 N 
ATOM      2  N   UNL     1      35.392 -19.740 -20.557  0.00  0.00    -0.317 N 
ATOM      3  C   UNL     1      34.312 -20.442 -20.201  0.00  0.00    +0.147 C 
ATOM      4  C   UNL     1      36.103 -21.483 -19.419  0.00  0.00    +0.078 C 
ATOM      5  C   UNL     1      36.521 -20.365 -20.084  0.00  0.00    +0.075 C 
ATOM      6  C   UNL     1      33.876 -22.527 -18.935  0.00  0.00    +0.114 C 
ATOM      7  C   UNL     1      32.908 -20.088 -20.525  0.00  0.00    +0.044 C 
ATOM      8  H   UNL     1      35.381 -18.904 -21.077  0.00  0.00    +0.148 HD
ENDROOT
TORSDOF 0
ENDMDL
MODEL 4
REMARK VINA RESULT:      -4.3     11.345     12.465
REMARK  Name = 444800
REMARK  0 active torsions:
REMARK  status: ('A' for Active; 'I' for Inactive)
REMARK                            x       y       z     vdW  Elec       q    Type
REMARK                         _______ _______ _______ _____ _____    ______ ____
ROOT
ATOM      1  N   UNL     1      31.818  -9.633 -21.224  0.00  0.00    -0.290 N 
ATOM      2  N   UNL     1      32.507  -8.540 -19.496  0.00  0.00    -0.317 N 
ATOM      3  C   UNL     1      31.903  -9.665 -19.890  0.00  0.00    +0.147 C 
ATOM      4  C   UNL     1      32.377  -8.467 -21.691  0.00  0.00    +0.078 C 
ATOM      5  C   UNL     1      32.813  -7.775 -20.596  0.00  0.00    +0.075 C 
ATOM      6  C   UNL     1      31.229 -10.665 -22.055  0.00  0.00    +0.114 C 
ATOM      7  C   UNL     1      31.421 -10.745 -18.993  0.00  0.00    +0.044 C 
ATOM      8  H   UNL     1      32.703  -8.297 -18.562  0.00  0.00    +0.148 HD
ENDROOT
TORSDOF 0
ENDMDL
MODEL 5
REMARK VINA RESULT:      -4.3      4.231      5.310
REMARK  Name = 444800
REMARK  0 active torsions:
REMARK  status: ('A' for Active; 'I' for Inactive)
REMARK                            x       y       z     vdW  Elec       q    Type
REMARK                         _______ _______ _______ _____ _____    ______ ____
ROOT
ATOM      1  N   UNL     1      35.138 -16.806 -22.623  0.00  0.00    -0.290 N 
ATOM      2  N   UNL     1      35.408 -17.770 -20.711  0.00  0.00    -0.317 N 
ATOM      3  C   UNL     1      34.984 -16.649 -21.303  0.00  0.00    +0.147 C 
ATOM      4  C   UNL     1      35.670 -18.047 -22.877  0.00  0.00    +0.078 C 
ATOM      5  C   UNL     1      35.841 -18.657 -21.667  0.00  0.00    +0.075 C 
ATOM      6  C   UNL     1      34.798 -15.822 -23.632  0.00  0.00    +0.114 C 
ATOM      7  C   UNL     1      34.441 -15.457 -20.606  0.00  0.00    +0.044 C 
ATOM      8  H   UNL     1      35.409 -17.933 -19.740  0.00  0.00    +0.148 HD
ENDROOT
TORSDOF 0
ENDMDL
MODEL 6
REMARK VINA RESULT:      -4.2      1.445      2.663
REMARK  Name = 444800
REMARK  0 active torsions:
REMARK  status: ('A' for Active; 'I' for Inactive)
REMARK                            x       y       z     vdW  Elec       q    Type
REMARK                         _______ _______ _______ _____ _____    ______ ____
ROOT
ATOM      1  N   UNL     1      34.833 -20.732 -20.009  0.00  0.00    -0.290 N 
ATOM      2  N   UNL     1      33.785 -19.220 -21.138  0.00  0.00    -0.317 N 
ATOM      3  C   UNL     1      34.998 -19.640 -20.764  0.00  0.00    +0.147 C 
ATOM      4  C   UNL     1      33.492 -21.013 -19.899  0.00  0.00    +0.078 C 
ATOM      5  C   UNL     1      32.830 -20.057 -20.614  0.00  0.00    +0.075 C 
ATOM      6  C   UNL     1      35.900 -21.501 -19.399  0.00  0.00    +0.114 C 
ATOM      7  C   UNL     1      36.285 -18.997 -21.131  0.00  0.00    +0.044 C 
ATOM      8  H   UNL     1      33.606 -18.434 -21.703  0.00  0.00    +0.148 HD
ENDROOT
TORSDOF 0
ENDMDL
MODEL 7
REMARK VINA RESULT:      -4.1      1.440      2.718
REMARK  Name = 444800
REMARK  0 active torsions:
REMARK  status: ('A' for Active; 'I' for Inactive)
REMARK                            x       y       z     vdW  Elec       q    Type
REMARK                         _______ _______ _______ _____ _____    ______ ____
ROOT
ATOM      1  N   UNL     1      34.331 -20.452 -20.302  0.00  0.00    -0.290 N 
ATOM      2  N   UNL     1      36.466 -20.178 -20.141  0.00  0.00    -0.317 N 
ATOM      3  C   UNL     1      35.350 -19.669 -20.673  0.00  0.00    +0.147 C 
ATOM      4  C   UNL     1      34.804 -21.478 -19.519  0.00  0.00    +0.078 C 
ATOM      5  C   UNL     1      36.155 -21.305 -19.417  0.00  0.00    +0.075 C 
ATOM      6  C   UNL     1      32.942 -20.253 -20.666  0.00  0.00    +0.114 C 
ATOM      7  C   UNL     1      35.276 -18.453 -21.521  0.00  0.00    +0.044 C 
ATOM      8  H   UNL     1      37.370 -19.803 -20.250  0.00  0.00    +0.148 HD
ENDROOT
TORSDOF 0
ENDMDL
MODEL 8
REMARK VINA RESULT:      -4.1     10.192     11.150
REMARK  Name = 444800
REMARK  0 active torsions:
REMARK  status: ('A' for Active; 'I' for Inactive)
REMARK                            x       y       z     vdW  Elec       q    Type
REMARK                         _______ _______ _______ _____ _____    ______ ____
ROOT
ATOM      1  N   UNL     1      41.549 -14.545 -16.921  0.00  0.00    -0.290 N 
ATOM      2  N   UNL     1      41.566 -13.152 -15.273  0.00  0.00    -0.317 N 
ATOM      3  C   UNL     1      41.888 -13.302 -16.562  0.00  0.00    +0.147 C 
ATOM      4  C   UNL     1      41.001 -15.200 -15.843  0.00  0.00    +0.078 C 
ATOM      5  C   UNL     1      41.013 -14.317 -14.801  0.00  0.00    +0.075 C 
ATOM      6  C   UNL     1      41.729 -15.118 -18.241  0.00  0.00    +0.114 C 
ATOM      7  C   UNL     1      42.509 -12.265 -17.423  0.00  0.00    +0.044 C 
ATOM      8  H   UNL     1      41.704 -12.332 -14.746  0.00  0.00    +0.148 HD
ENDROOT
TORSDOF 0
ENDMDL
MODEL 9
REMARK VINA RESULT:      -4.1      4.752      6.167
REMARK  Name = 444800
REMARK  0 active torsions:
REMARK  status: ('A' for Active; 'I' for Inactive)
REMARK                            x       y       z     vdW  Elec       q    Type
REMARK                         _______ _______ _______ _____ _____    ______ ____
ROOT
ATOM      1  N   UNL     1      34.912 -16.430 -22.156  0.00  0.00    -0.290 N 
ATOM      2  N   UNL     1      35.524 -17.723 -23.772  0.00  0.00    -0.317 N 
ATOM      3  C   UNL     1      35.512 -17.591 -22.442  0.00  0.00    +0.147 C 
ATOM      4  C   UNL     1      34.534 -15.810 -23.323  0.00  0.00    +0.078 C 
ATOM      5  C   UNL     1      34.922 -16.629 -24.346  0.00  0.00    +0.075 C 
ATOM      6  C   UNL     1      34.691 -15.904 -20.823  0.00  0.00    +0.114 C 
ATOM      7  C   UNL     1      36.069 -18.568 -21.473  0.00  0.00    +0.044 C 
ATOM      8  H   UNL     1      35.904 -18.486 -24.264  0.00  0.00    +0.148 HD
ENDROOT
TORSDOF 0
ENDMDL
