MODEL 1
REMARK VINA RESULT:      -8.8      0.000      0.000
REMARK  Name = 24851689
REMARK  1 active torsions:
REMARK  status: ('A' for Active; 'I' for Inactive)
REMARK    1  A    between atoms: C_7  and  C_26
REMARK                            x       y       z     vdW  Elec       q    Type
REMARK                         _______ _______ _______ _____ _____    ______ ____
ROOT
ATOM      1 CL   UNL     1      32.708 -14.722 -23.115  0.00  0.00    -0.082 Cl
ATOM      2  O   UNL     1      35.261  -7.063 -24.385  0.00  0.00    -0.269 OA
ATOM      3  N   UNL     1      33.345  -6.228 -23.421  0.00  0.00    -0.302 N 
ATOM      4  N   UNL     1      30.418  -4.167 -24.207  0.00  0.00    +0.384 N 
ATOM      5  N   UNL     1      34.179  -9.783 -23.915  0.00  0.00    -0.322 N 
ATOM      6  C   UNL     1      31.934  -6.408 -22.966  0.00  0.00    +0.070 C 
ATOM      7  C   UNL     1      31.810  -7.704 -22.077  0.00  0.00    +0.131 C 
ATOM      8  C   UNL     1      31.021  -6.559 -24.217  0.00  0.00    -0.004 C 
ATOM      9  C   UNL     1      31.472  -5.146 -22.191  0.00  0.00    -0.004 C 
ATOM     10  C   UNL     1      32.576  -8.822 -22.713  0.00  0.00    +0.015 A 
ATOM     11  C   UNL     1      30.908  -5.269 -25.030  0.00  0.00    -0.080 C 
ATOM     12  C   UNL     1      31.310  -3.910 -23.080  0.00  0.00    -0.080 C 
ATOM     13  C   UNL     1      33.677  -8.577 -23.510  0.00  0.00    +0.111 A 
ATOM     14  C   UNL     1      34.185  -7.265 -23.827  0.00  0.00    +0.261 C 
ATOM     15  C   UNL     1      32.386 -10.232 -22.653  0.00  0.00    +0.014 A 
ATOM     16  C   UNL     1      33.405 -10.809 -23.416  0.00  0.00    +0.061 A 
ATOM     17  C   UNL     1      31.451 -11.077 -22.021  0.00  0.00    +0.002 C 
ATOM     18  C   UNL     1      35.337  -9.970 -24.763  0.00  0.00    +0.131 C 
ATOM     19  C   UNL     1      33.532 -12.193 -23.581  0.00  0.00    +0.029 C 
ATOM     20  C   UNL     1      31.567 -12.463 -22.177  0.00  0.00    +0.011 C 
ATOM     21  C   UNL     1      32.593 -13.010 -22.945  0.00  0.00    +0.059 C 
ATOM     22  H   UNL     1      33.709  -5.313 -23.434  0.00  0.00    +0.150 HD
ATOM     23  H   UNL     1      29.493  -4.404 -23.851  0.00  0.00    -0.085 HD
ATOM     24  H   UNL     1      30.377  -3.326 -24.783  0.00  0.00    -0.085 HD
ENDROOT
BRANCH   7  26
ATOM     25  N   UNL     1      32.781  -7.359 -19.650  0.00  0.00    -0.196 NA
ATOM     26  C   UNL     1      32.354  -7.510 -20.718  0.00  0.00    +0.078 C 
ENDBRANCH   7  26
TORSDOF 1
ENDMDL
MODEL 2
REMARK VINA RESULT:      -7.6     15.963     18.439
REMARK  Name = 24851689
REMARK  1 active torsions:
REMARK  status: ('A' for Active; 'I' for Inactive)
REMARK    1  A    between atoms: C_7  and  C_26
REMARK                            x       y       z     vdW  Elec       q    Type
REMARK                         _______ _______ _______ _____ _____    ______ ____
ROOT
ATOM      1 CL   UNL     1      29.182 -22.530 -16.871  0.00  0.00    -0.082 Cl
ATOM      2  O   UNL     1      35.403 -23.618 -11.684  0.00  0.00    -0.269 OA
ATOM      3  N   UNL     1      36.797 -24.193 -13.423  0.00  0.00    -0.302 N 
ATOM      4  N   UNL     1      38.828 -26.987 -14.649  0.00  0.00    +0.384 N 
ATOM      5  N   UNL     1      33.226 -23.322 -13.674  0.00  0.00    -0.322 N 
ATOM      6  C   UNL     1      37.000 -24.646 -14.832  0.00  0.00    +0.070 C 
ATOM      7  C   UNL     1      36.148 -23.756 -15.816  0.00  0.00    +0.131 C 
ATOM      8  C   UNL     1      36.536 -26.126 -14.953  0.00  0.00    -0.004 C 
ATOM      9  C   UNL     1      38.509 -24.590 -15.184  0.00  0.00    -0.004 C 
ATOM     10  C   UNL     1      34.777 -23.553 -15.248  0.00  0.00    +0.015 A 
ATOM     11  C   UNL     1      37.444 -27.097 -14.197  0.00  0.00    -0.080 C 
ATOM     12  C   UNL     1      39.347 -25.637 -14.445  0.00  0.00    -0.080 C 
ATOM     13  C   UNL     1      34.555 -23.565 -13.885  0.00  0.00    +0.111 A 
ATOM     14  C   UNL     1      35.575 -23.786 -12.889  0.00  0.00    +0.261 C 
ATOM     15  C   UNL     1      33.529 -23.320 -15.892  0.00  0.00    +0.014 A 
ATOM     16  C   UNL     1      32.574 -23.180 -14.880  0.00  0.00    +0.061 A 
ATOM     17  C   UNL     1      33.115 -23.209 -17.234  0.00  0.00    +0.002 C 
ATOM     18  C   UNL     1      32.578 -23.247 -12.381  0.00  0.00    +0.131 C 
ATOM     19  C   UNL     1      31.222 -22.937 -15.149  0.00  0.00    +0.029 C 
ATOM     20  C   UNL     1      31.766 -22.966 -17.516  0.00  0.00    +0.011 C 
ATOM     21  C   UNL     1      30.836 -22.832 -16.488  0.00  0.00    +0.059 C 
ATOM     22  H   UNL     1      37.583 -24.181 -12.828  0.00  0.00    +0.150 HD
ATOM     23  H   UNL     1      38.872 -27.213 -15.643  0.00  0.00    -0.085 HD
ATOM     24  H   UNL     1      39.398 -27.636 -14.107  0.00  0.00    -0.085 HD
ENDROOT
BRANCH   7  26
ATOM     25  N   UNL     1      37.209 -21.372 -16.195  0.00  0.00    -0.196 NA
ATOM     26  C   UNL     1      36.742 -22.421 -16.028  0.00  0.00    +0.078 C 
ENDBRANCH   7  26
TORSDOF 1
ENDMDL
MODEL 3
REMARK VINA RESULT:      -7.0      8.968     11.278
REMARK  Name = 24851689
REMARK  1 active torsions:
REMARK  status: ('A' for Active; 'I' for Inactive)
REMARK    1  A    between atoms: C_7  and  C_26
REMARK                            x       y       z     vdW  Elec       q    Type
REMARK                         _______ _______ _______ _____ _____    ______ ____
ROOT
ATOM      1 CL   UNL     1      33.368 -23.732 -17.501  0.00  0.00    -0.082 Cl
ATOM      2  O   UNL     1      37.990 -18.642 -21.918  0.00  0.00    -0.269 OA
ATOM      3  N   UNL     1      36.112 -17.618 -22.768  0.00  0.00    -0.302 N 
ATOM      4  N   UNL     1      34.394 -16.984 -25.942  0.00  0.00    +0.384 N 
ATOM      5  N   UNL     1      36.188 -20.458 -20.421  0.00  0.00    -0.322 N 
ATOM      6  C   UNL     1      34.644 -17.618 -23.045  0.00  0.00    +0.070 C 
ATOM      7  C   UNL     1      33.844 -17.992 -21.740  0.00  0.00    +0.131 C 
ATOM      8  C   UNL     1      34.344 -18.675 -24.147  0.00  0.00    -0.004 C 
ATOM      9  C   UNL     1      34.218 -16.230 -23.590  0.00  0.00    -0.004 C 
ATOM     10  C   UNL     1      34.511 -19.145 -21.056  0.00  0.00    +0.015 A 
ATOM     11  C   UNL     1      34.904 -18.283 -25.515  0.00  0.00    -0.080 C 
ATOM     12  C   UNL     1      34.755 -15.935 -24.994  0.00  0.00    -0.080 C 
ATOM     13  C   UNL     1      35.870 -19.363 -21.176  0.00  0.00    +0.111 A 
ATOM     14  C   UNL     1      36.766 -18.549 -21.961  0.00  0.00    +0.261 C 
ATOM     15  C   UNL     1      33.978 -20.164 -20.216  0.00  0.00    +0.014 A 
ATOM     16  C   UNL     1      35.052 -20.973 -19.834  0.00  0.00    +0.061 A 
ATOM     17  C   UNL     1      32.690 -20.476 -19.738  0.00  0.00    +0.002 C 
ATOM     18  C   UNL     1      37.513 -21.021 -20.272  0.00  0.00    +0.131 C 
ATOM     19  C   UNL     1      34.897 -22.084 -18.997  0.00  0.00    +0.029 C 
ATOM     20  C   UNL     1      32.522 -21.585 -18.900  0.00  0.00    +0.011 C 
ATOM     21  C   UNL     1      33.610 -22.375 -18.536  0.00  0.00    +0.059 C 
ATOM     22  H   UNL     1      36.656 -16.910 -23.183  0.00  0.00    +0.150 HD
ATOM     23  H   UNL     1      33.378 -17.033 -26.014  0.00  0.00    -0.085 HD
ATOM     24  H   UNL     1      34.808 -16.756 -26.847  0.00  0.00    -0.085 HD
ENDROOT
BRANCH   7  26
ATOM     25  N   UNL     1      33.743 -16.000 -20.015  0.00  0.00    -0.196 NA
ATOM     26  C   UNL     1      33.787 -16.876 -20.773  0.00  0.00    +0.078 C 
ENDBRANCH   7  26
TORSDOF 1
ENDMDL
MODEL 4
REMARK VINA RESULT:      -6.8      7.208     11.210
REMARK  Name = 24851689
REMARK  1 active torsions:
REMARK  status: ('A' for Active; 'I' for Inactive)
REMARK    1  A    between atoms: C_7  and  C_26
REMARK                            x       y       z     vdW  Elec       q    Type
REMARK                         _______ _______ _______ _____ _____    ______ ____
ROOT
ATOM      1 CL   UNL     1      33.336 -11.799 -23.548  0.00  0.00    -0.082 Cl
ATOM      2  O   UNL     1      35.063 -19.712 -24.642  0.00  0.00    -0.269 OA
ATOM      3  N   UNL     1      35.010 -20.073 -22.369  0.00  0.00    -0.302 N 
ATOM      4  N   UNL     1      37.149 -21.166 -19.601  0.00  0.00    +0.384 N 
ATOM      5  N   UNL     1      34.494 -16.856 -24.089  0.00  0.00    -0.322 N 
ATOM      6  C   UNL     1      35.053 -19.555 -20.969  0.00  0.00    +0.070 C 
ATOM      7  C   UNL     1      34.035 -18.364 -20.798  0.00  0.00    +0.131 C 
ATOM      8  C   UNL     1      36.491 -19.041 -20.670  0.00  0.00    -0.004 C 
ATOM      9  C   UNL     1      34.744 -20.707 -19.978  0.00  0.00    -0.004 C 
ATOM     10  C   UNL     1      34.136 -17.445 -21.977  0.00  0.00    +0.015 A 
ATOM     11  C   UNL     1      37.522 -20.169 -20.601  0.00  0.00    -0.080 C 
ATOM     12  C   UNL     1      35.852 -21.762 -19.906  0.00  0.00    -0.080 C 
ATOM     13  C   UNL     1      34.528 -17.909 -23.218  0.00  0.00    +0.111 A 
ATOM     14  C   UNL     1      34.891 -19.275 -23.506  0.00  0.00    +0.261 C 
ATOM     15  C   UNL     1      33.880 -16.050 -22.093  0.00  0.00    +0.014 A 
ATOM     16  C   UNL     1      34.113 -15.707 -23.429  0.00  0.00    +0.061 A 
ATOM     17  C   UNL     1      33.467 -15.043 -21.198  0.00  0.00    +0.002 C 
ATOM     18  C   UNL     1      34.830 -16.916 -25.496  0.00  0.00    +0.131 C 
ATOM     19  C   UNL     1      33.955 -14.402 -23.910  0.00  0.00    +0.029 C 
ATOM     20  C   UNL     1      33.306 -13.734 -21.667  0.00  0.00    +0.011 C 
ATOM     21  C   UNL     1      33.546 -13.421 -23.003  0.00  0.00    +0.059 C 
ATOM     22  H   UNL     1      35.069 -21.048 -22.498  0.00  0.00    +0.150 HD
ATOM     23  H   UNL     1      37.101 -20.717 -18.686  0.00  0.00    -0.085 HD
ATOM     24  H   UNL     1      37.852 -21.905 -19.603  0.00  0.00    -0.085 HD
ENDROOT
BRANCH   7  26
ATOM     25  N   UNL     1      31.534 -19.189 -20.651  0.00  0.00    -0.196 NA
ATOM     26  C   UNL     1      32.634 -18.825 -20.716  0.00  0.00    +0.078 C 
ENDBRANCH   7  26
TORSDOF 1
ENDMDL
MODEL 5
REMARK VINA RESULT:      -6.7      6.908     10.692
REMARK  Name = 24851689
REMARK  1 active torsions:
REMARK  status: ('A' for Active; 'I' for Inactive)
REMARK    1  A    between atoms: C_7  and  C_26
REMARK                            x       y       z     vdW  Elec       q    Type
REMARK                         _______ _______ _______ _____ _____    ______ ____
ROOT
ATOM      1 CL   UNL     1      32.721 -13.310 -27.137  0.00  0.00    -0.082 Cl
ATOM      2  O   UNL     1      34.710 -15.793 -19.610  0.00  0.00    -0.269 OA
ATOM      3  N   UNL     1      34.876 -17.972 -20.335  0.00  0.00    -0.302 N 
ATOM      4  N   UNL     1      33.394 -21.281 -19.798  0.00  0.00    +0.384 N 
ATOM      5  N   UNL     1      33.940 -15.049 -22.374  0.00  0.00    -0.322 N 
ATOM      6  C   UNL     1      34.580 -19.032 -21.345  0.00  0.00    +0.070 C 
ATOM      7  C   UNL     1      34.960 -18.528 -22.789  0.00  0.00    +0.131 C 
ATOM      8  C   UNL     1      33.059 -19.354 -21.302  0.00  0.00    -0.004 C 
ATOM      9  C   UNL     1      35.350 -20.327 -20.980  0.00  0.00    -0.004 C 
ATOM     10  C   UNL     1      34.483 -17.120 -22.970  0.00  0.00    +0.015 A 
ATOM     11  C   UNL     1      32.635 -20.051 -20.008  0.00  0.00    -0.080 C 
ATOM     12  C   UNL     1      34.826 -21.012 -19.714  0.00  0.00    -0.080 C 
ATOM     13  C   UNL     1      34.361 -16.259 -21.896  0.00  0.00    +0.111 A 
ATOM     14  C   UNL     1      34.649 -16.609 -20.527  0.00  0.00    +0.261 C 
ATOM     15  C   UNL     1      34.095 -16.412 -24.143  0.00  0.00    +0.014 A 
ATOM     16  C   UNL     1      33.759 -15.116 -23.739  0.00  0.00    +0.061 A 
ATOM     17  C   UNL     1      34.001 -16.742 -25.510  0.00  0.00    +0.002 C 
ATOM     18  C   UNL     1      33.692 -13.868 -21.574  0.00  0.00    +0.131 C 
ATOM     19  C   UNL     1      33.329 -14.134 -24.639  0.00  0.00    +0.029 C 
ATOM     20  C   UNL     1      33.572 -15.768 -26.420  0.00  0.00    +0.011 C 
ATOM     21  C   UNL     1      33.243 -14.485 -25.989  0.00  0.00    +0.059 C 
ATOM     22  H   UNL     1      35.258 -18.255 -19.473  0.00  0.00    +0.150 HD
ATOM     23  H   UNL     1      33.220 -21.916 -20.577  0.00  0.00    -0.085 HD
ATOM     24  H   UNL     1      33.092 -21.700 -18.918  0.00  0.00    -0.085 HD
ENDROOT
BRANCH   7  26
ATOM     25  N   UNL     1      37.564 -18.540 -23.209  0.00  0.00    -0.196 NA
ATOM     26  C   UNL     1      36.418 -18.535 -23.025  0.00  0.00    +0.078 C 
ENDBRANCH   7  26
TORSDOF 1
ENDMDL
MODEL 6
REMARK VINA RESULT:      -6.3     14.464     17.921
REMARK  Name = 24851689
REMARK  1 active torsions:
REMARK  status: ('A' for Active; 'I' for Inactive)
REMARK    1  A    between atoms: C_7  and  C_26
REMARK                            x       y       z     vdW  Elec       q    Type
REMARK                         _______ _______ _______ _____ _____    ______ ____
ROOT
ATOM      1 CL   UNL     1      33.162 -20.467 -21.006  0.00  0.00    -0.082 Cl
ATOM      2  O   UNL     1      32.853 -24.583 -13.953  0.00  0.00    -0.269 OA
ATOM      3  N   UNL     1      35.130 -24.920 -14.010  0.00  0.00    -0.302 N 
ATOM      4  N   UNL     1      37.615 -27.610 -14.151  0.00  0.00    +0.384 N 
ATOM      5  N   UNL     1      33.109 -23.167 -16.544  0.00  0.00    -0.322 N 
ATOM      6  C   UNL     1      36.420 -24.953 -14.761  0.00  0.00    +0.070 C 
ATOM      7  C   UNL     1      36.601 -23.625 -15.590  0.00  0.00    +0.131 C 
ATOM      8  C   UNL     1      36.400 -26.163 -15.739  0.00  0.00    -0.004 C 
ATOM      9  C   UNL     1      37.593 -25.163 -13.769  0.00  0.00    -0.004 C 
ATOM     10  C   UNL     1      35.311 -23.276 -16.266  0.00  0.00    +0.015 A 
ATOM     11  C   UNL     1      36.442 -27.511 -15.016  0.00  0.00    -0.080 C 
ATOM     12  C   UNL     1      37.616 -26.559 -13.139  0.00  0.00    -0.080 C 
ATOM     13  C   UNL     1      34.095 -23.651 -15.729  0.00  0.00    +0.111 A 
ATOM     14  C   UNL     1      33.933 -24.410 -14.513  0.00  0.00    +0.261 C 
ATOM     15  C   UNL     1      35.055 -22.558 -17.468  0.00  0.00    +0.014 A 
ATOM     16  C   UNL     1      33.666 -22.506 -17.618  0.00  0.00    +0.061 A 
ATOM     17  C   UNL     1      35.866 -21.943 -18.443  0.00  0.00    +0.002 C 
ATOM     18  C   UNL     1      31.687 -23.336 -16.337  0.00  0.00    +0.131 C 
ATOM     19  C   UNL     1      33.050 -21.868 -18.701  0.00  0.00    +0.029 C 
ATOM     20  C   UNL     1      35.261 -21.302 -19.530  0.00  0.00    +0.011 C 
ATOM     21  C   UNL     1      33.874 -21.266 -19.655  0.00  0.00    +0.059 C 
ATOM     22  H   UNL     1      35.123 -25.284 -13.095  0.00  0.00    +0.150 HD
ATOM     23  H   UNL     1      38.456 -27.524 -14.721  0.00  0.00    -0.085 HD
ATOM     24  H   UNL     1      37.592 -28.514 -13.678  0.00  0.00    -0.085 HD
ENDROOT
BRANCH   7  26
ATOM     25  N   UNL     1      37.280 -21.576 -14.074  0.00  0.00    -0.196 NA
ATOM     26  C   UNL     1      36.981 -22.477 -14.741  0.00  0.00    +0.078 C 
ENDBRANCH   7  26
TORSDOF 1
ENDMDL
MODEL 7
REMARK VINA RESULT:      -5.9     15.129     18.209
REMARK  Name = 24851689
REMARK  1 active torsions:
REMARK  status: ('A' for Active; 'I' for Inactive)
REMARK    1  A    between atoms: C_7  and  C_26
REMARK                            x       y       z     vdW  Elec       q    Type
REMARK                         _______ _______ _______ _____ _____    ______ ____
ROOT
ATOM      1 CL   UNL     1      29.312 -23.102 -16.869  0.00  0.00    -0.082 Cl
ATOM      2  O   UNL     1      37.458 -22.465 -16.942  0.00  0.00    -0.269 OA
ATOM      3  N   UNL     1      37.607 -23.706 -15.009  0.00  0.00    -0.302 N 
ATOM      4  N   UNL     1      38.762 -23.458 -11.539  0.00  0.00    +0.384 N 
ATOM      5  N   UNL     1      34.512 -22.727 -16.752  0.00  0.00    -0.322 N 
ATOM      6  C   UNL     1      36.981 -24.276 -13.779  0.00  0.00    +0.070 C 
ATOM      7  C   UNL     1      35.640 -25.019 -14.146  0.00  0.00    +0.131 C 
ATOM      8  C   UNL     1      36.665 -23.115 -12.793  0.00  0.00    -0.004 C 
ATOM      9  C   UNL     1      37.982 -25.233 -13.081  0.00  0.00    -0.004 C 
ATOM     10  C   UNL     1      34.854 -24.186 -15.111  0.00  0.00    +0.015 A 
ATOM     11  C   UNL     1      37.924 -22.470 -12.212  0.00  0.00    -0.080 C 
ATOM     12  C   UNL     1      39.181 -24.512 -12.459  0.00  0.00    -0.080 C 
ATOM     13  C   UNL     1      35.478 -23.316 -15.984  0.00  0.00    +0.111 A 
ATOM     14  C   UNL     1      36.903 -23.101 -16.050  0.00  0.00    +0.261 C 
ATOM     15  C   UNL     1      33.451 -24.104 -15.341  0.00  0.00    +0.014 A 
ATOM     16  C   UNL     1      33.266 -23.181 -16.375  0.00  0.00    +0.061 A 
ATOM     17  C   UNL     1      32.319 -24.726 -14.777  0.00  0.00    +0.002 C 
ATOM     18  C   UNL     1      34.745 -21.751 -17.795  0.00  0.00    +0.131 C 
ATOM     19  C   UNL     1      32.000 -22.848 -16.869  0.00  0.00    +0.029 C 
ATOM     20  C   UNL     1      31.048 -24.402 -15.263  0.00  0.00    +0.011 C 
ATOM     21  C   UNL     1      30.892 -23.477 -16.293  0.00  0.00    +0.059 C 
ATOM     22  H   UNL     1      38.587 -23.760 -15.091  0.00  0.00    +0.150 HD
ATOM     23  H   UNL     1      38.233 -23.876 -10.774  0.00  0.00    -0.085 HD
ATOM     24  H   UNL     1      39.595 -22.988 -11.185  0.00  0.00    -0.085 HD
ENDROOT
BRANCH   7  26
ATOM     25  N   UNL     1      36.065 -27.360 -15.286  0.00  0.00    -0.196 NA
ATOM     26  C   UNL     1      35.877 -26.331 -14.785  0.00  0.00    +0.078 C 
ENDBRANCH   7  26
TORSDOF 1
ENDMDL
