MODEL 1
REMARK VINA RESULT:      -6.0      0.000      0.000
REMARK  Name = 1023
REMARK  6 active torsions:
REMARK  status: ('A' for Active; 'I' for Inactive)
REMARK    1  A    between atoms: O_1  and  P_2
REMARK    2  A    between atoms: O_1  and  P_8
REMARK    3  A    between atoms: P_2  and  O_4
REMARK    4  A    between atoms: P_2  and  O_6
REMARK    5  A    between atoms: P_8  and  O_10
REMARK    6  A    between atoms: P_8  and  O_12
REMARK                            x       y       z     vdW  Elec       q    Type
REMARK                         _______ _______ _______ _____ _____    ______ ____
ROOT
ATOM      1  O   UNL     1      38.727 -26.811 -14.517  0.00  0.00    -0.186 OA
ENDROOT
BRANCH   1   2
ATOM      2  P   UNL     1      40.134 -26.019 -14.588  0.00  0.00    +0.481 P 
ATOM      3  O   UNL     1      41.296 -26.758 -13.995  0.00  0.00    -0.227 OA
BRANCH   2   4
ATOM      4  O   UNL     1      39.792 -24.600 -13.894  0.00  0.00    -0.302 OA
ATOM      5  H   UNL     1      39.023 -24.203 -14.332  0.00  0.00    +0.222 HD
ENDBRANCH   2   4
BRANCH   2   6
ATOM      6  O   UNL     1      40.275 -25.650 -16.156  0.00  0.00    -0.302 OA
ATOM      7  H   UNL     1      39.413 -25.748 -16.589  0.00  0.00    +0.222 HD
ENDBRANCH   2   6
ENDBRANCH   1   2
BRANCH   1   8
ATOM      8  P   UNL     1      37.247 -26.395 -15.014  0.00  0.00    +0.481 P 
ATOM      9  O   UNL     1      36.655 -27.310 -16.046  0.00  0.00    -0.227 OA
BRANCH   8  10
ATOM     10  O   UNL     1      37.435 -24.860 -15.481  0.00  0.00    -0.302 OA
ATOM     11  H   UNL     1      38.011 -24.826 -16.261  0.00  0.00    +0.222 HD
ENDBRANCH   8  10
BRANCH   8  12
ATOM     12  O   UNL     1      36.410 -26.272 -13.637  0.00  0.00    -0.302 OA
ATOM     13  H   UNL     1      36.273 -25.336 -13.424  0.00  0.00    +0.222 HD
ENDBRANCH   8  12
ENDBRANCH   1   8
TORSDOF 6
ENDMDL
MODEL 2
REMARK VINA RESULT:      -6.0      0.067      3.789
REMARK  Name = 1023
REMARK  6 active torsions:
REMARK  status: ('A' for Active; 'I' for Inactive)
REMARK    1  A    between atoms: O_1  and  P_2
REMARK    2  A    between atoms: O_1  and  P_8
REMARK    3  A    between atoms: P_2  and  O_4
REMARK    4  A    between atoms: P_2  and  O_6
REMARK    5  A    between atoms: P_8  and  O_10
REMARK    6  A    between atoms: P_8  and  O_12
REMARK                            x       y       z     vdW  Elec       q    Type
REMARK                         _______ _______ _______ _____ _____    ______ ____
ROOT
ATOM      1  O   UNL     1      38.701 -26.817 -14.505  0.00  0.00    -0.186 OA
ENDROOT
BRANCH   1   2
ATOM      2  P   UNL     1      37.232 -26.379 -15.016  0.00  0.00    +0.481 P 
ATOM      3  O   UNL     1      36.627 -27.295 -16.038  0.00  0.00    -0.227 OA
BRANCH   2   4
ATOM      4  O   UNL     1      37.452 -24.853 -15.503  0.00  0.00    -0.302 OA
ATOM      5  H   UNL     1      37.393 -24.258 -14.740  0.00  0.00    +0.222 HD
ENDBRANCH   2   4
BRANCH   2   6
ATOM      6  O   UNL     1      36.391 -26.221 -13.644  0.00  0.00    -0.302 OA
ATOM      7  H   UNL     1      36.572 -26.978 -13.066  0.00  0.00    +0.222 HD
ENDBRANCH   2   6
ENDBRANCH   1   2
BRANCH   1   8
ATOM      8  P   UNL     1      40.113 -26.032 -14.532  0.00  0.00    +0.481 P 
ATOM      9  O   UNL     1      41.244 -26.759 -13.865  0.00  0.00    -0.227 OA
BRANCH   8  10
ATOM     10  O   UNL     1      39.745 -24.594 -13.892  0.00  0.00    -0.302 OA
ATOM     11  H   UNL     1      40.552 -24.168 -13.565  0.00  0.00    +0.222 HD
ENDBRANCH   8  10
BRANCH   8  12
ATOM     12  O   UNL     1      40.329 -25.704 -16.100  0.00  0.00    -0.302 OA
ATOM     13  H   UNL     1      39.609 -26.099 -16.615  0.00  0.00    +0.222 HD
ENDBRANCH   8  12
ENDBRANCH   1   8
TORSDOF 6
ENDMDL
MODEL 3
REMARK VINA RESULT:      -5.6      0.688      3.822
REMARK  Name = 1023
REMARK  6 active torsions:
REMARK  status: ('A' for Active; 'I' for Inactive)
REMARK    1  A    between atoms: O_1  and  P_2
REMARK    2  A    between atoms: O_1  and  P_8
REMARK    3  A    between atoms: P_2  and  O_4
REMARK    4  A    between atoms: P_2  and  O_6
REMARK    5  A    between atoms: P_8  and  O_10
REMARK    6  A    between atoms: P_8  and  O_12
REMARK                            x       y       z     vdW  Elec       q    Type
REMARK                         _______ _______ _______ _____ _____    ______ ____
ROOT
ATOM      1  O   UNL     1      38.997 -26.398 -14.017  0.00  0.00    -0.186 OA
ENDROOT
BRANCH   1   2
ATOM      2  P   UNL     1      37.504 -26.038 -14.517  0.00  0.00    +0.481 P 
ATOM      3  O   UNL     1      37.221 -24.569 -14.630  0.00  0.00    -0.227 OA
BRANCH   2   4
ATOM      4  O   UNL     1      36.564 -26.843 -13.477  0.00  0.00    -0.302 OA
ATOM      5  H   UNL     1      37.093 -27.123 -12.714  0.00  0.00    +0.222 HD
ENDBRANCH   2   4
BRANCH   2   6
ATOM      6  O   UNL     1      37.357 -26.878 -15.890  0.00  0.00    -0.302 OA
ATOM      7  H   UNL     1      38.042 -26.596 -16.515  0.00  0.00    +0.222 HD
ENDBRANCH   2   6
ENDBRANCH   1   2
BRANCH   1   8
ATOM      8  P   UNL     1      40.440 -25.848 -14.495  0.00  0.00    +0.481 P 
ATOM      9  O   UNL     1      40.813 -24.507 -13.935  0.00  0.00    -0.227 OA
BRANCH   8  10
ATOM     10  O   UNL     1      40.343 -25.920 -16.107  0.00  0.00    -0.302 OA
ATOM     11  H   UNL     1      39.480 -26.279 -16.364  0.00  0.00    +0.222 HD
ENDBRANCH   8  10
BRANCH   8  12
ATOM     12  O   UNL     1      41.444 -27.058 -14.122  0.00  0.00    -0.302 OA
ATOM     13  H   UNL     1      41.316 -27.789 -14.745  0.00  0.00    +0.222 HD
ENDBRANCH   8  12
ENDBRANCH   1   8
TORSDOF 6
ENDMDL
MODEL 4
REMARK VINA RESULT:      -5.5      1.865      2.781
REMARK  Name = 1023
REMARK  6 active torsions:
REMARK  status: ('A' for Active; 'I' for Inactive)
REMARK    1  A    between atoms: O_1  and  P_2
REMARK    2  A    between atoms: O_1  and  P_8
REMARK    3  A    between atoms: P_2  and  O_4
REMARK    4  A    between atoms: P_2  and  O_6
REMARK    5  A    between atoms: P_8  and  O_10
REMARK    6  A    between atoms: P_8  and  O_12
REMARK                            x       y       z     vdW  Elec       q    Type
REMARK                         _______ _______ _______ _____ _____    ______ ____
ROOT
ATOM      1  O   UNL     1      39.082 -25.407 -13.230  0.00  0.00    -0.186 OA
ENDROOT
BRANCH   1   2
ATOM      2  P   UNL     1      39.510 -25.612 -14.775  0.00  0.00    +0.481 P 
ATOM      3  O   UNL     1      40.864 -26.227 -14.971  0.00  0.00    -0.227 OA
BRANCH   2   4
ATOM      4  O   UNL     1      39.326 -24.136 -15.406  0.00  0.00    -0.302 OA
ATOM      5  H   UNL     1      38.954 -23.542 -14.735  0.00  0.00    +0.222 HD
ENDBRANCH   2   4
BRANCH   2   6
ATOM      6  O   UNL     1      38.274 -26.447 -15.397  0.00  0.00    -0.302 OA
ATOM      7  H   UNL     1      37.438 -26.066 -15.087  0.00  0.00    +0.222 HD
ENDBRANCH   2   6
ENDBRANCH   1   2
BRANCH   1   8
ATOM      8  P   UNL     1      37.640 -25.133 -12.554  0.00  0.00    +0.481 P 
ATOM      9  O   UNL     1      37.698 -24.516 -11.188  0.00  0.00    -0.227 OA
BRANCH   8  10
ATOM     10  O   UNL     1      36.919 -26.577 -12.629  0.00  0.00    -0.302 OA
ATOM     11  H   UNL     1      37.587 -27.277 -12.552  0.00  0.00    +0.222 HD
ENDBRANCH   8  10
BRANCH   8  12
ATOM     12  O   UNL     1      36.862 -24.264 -13.674  0.00  0.00    -0.302 OA
ATOM     13  H   UNL     1      35.909 -24.285 -13.496  0.00  0.00    +0.222 HD
ENDBRANCH   8  12
ENDBRANCH   1   8
TORSDOF 6
ENDMDL
MODEL 5
REMARK VINA RESULT:      -5.5      1.814      3.522
REMARK  Name = 1023
REMARK  6 active torsions:
REMARK  status: ('A' for Active; 'I' for Inactive)
REMARK    1  A    between atoms: O_1  and  P_2
REMARK    2  A    between atoms: O_1  and  P_8
REMARK    3  A    between atoms: P_2  and  O_4
REMARK    4  A    between atoms: P_2  and  O_6
REMARK    5  A    between atoms: P_8  and  O_10
REMARK    6  A    between atoms: P_8  and  O_12
REMARK                            x       y       z     vdW  Elec       q    Type
REMARK                         _______ _______ _______ _____ _____    ______ ____
ROOT
ATOM      1  O   UNL     1      39.091 -25.471 -13.154  0.00  0.00    -0.186 OA
ENDROOT
BRANCH   1   2
ATOM      2  P   UNL     1      37.629 -25.135 -12.553  0.00  0.00    +0.481 P 
ATOM      3  O   UNL     1      37.644 -24.507 -11.191  0.00  0.00    -0.227 OA
BRANCH   2   4
ATOM      4  O   UNL     1      36.858 -26.552 -12.650  0.00  0.00    -0.302 OA
ATOM      5  H   UNL     1      36.275 -26.550 -13.426  0.00  0.00    +0.222 HD
ENDBRANCH   2   4
BRANCH   2   6
ATOM      6  O   UNL     1      36.942 -24.249 -13.717  0.00  0.00    -0.302 OA
ATOM      7  H   UNL     1      37.530 -24.216 -14.487  0.00  0.00    +0.222 HD
ENDBRANCH   2   6
ENDBRANCH   1   2
BRANCH   1   8
ATOM      8  P   UNL     1      39.576 -25.764 -14.668  0.00  0.00    +0.481 P 
ATOM      9  O   UNL     1      40.886 -26.487 -14.775  0.00  0.00    -0.227 OA
BRANCH   8  10
ATOM     10  O   UNL     1      39.538 -24.301 -15.354  0.00  0.00    -0.302 OA
ATOM     11  H   UNL     1      40.362 -23.829 -15.158  0.00  0.00    +0.222 HD
ENDBRANCH   8  10
BRANCH   8  12
ATOM     12  O   UNL     1      38.310 -26.523 -15.326  0.00  0.00    -0.302 OA
ATOM     13  H   UNL     1      37.969 -27.184 -14.703  0.00  0.00    +0.222 HD
ENDBRANCH   8  12
ENDBRANCH   1   8
TORSDOF 6
ENDMDL
MODEL 6
REMARK VINA RESULT:      -5.3      2.637      3.827
REMARK  Name = 1023
REMARK  6 active torsions:
REMARK  status: ('A' for Active; 'I' for Inactive)
REMARK    1  A    between atoms: O_1  and  P_2
REMARK    2  A    between atoms: O_1  and  P_8
REMARK    3  A    between atoms: P_2  and  O_4
REMARK    4  A    between atoms: P_2  and  O_6
REMARK    5  A    between atoms: P_8  and  O_10
REMARK    6  A    between atoms: P_8  and  O_12
REMARK                            x       y       z     vdW  Elec       q    Type
REMARK                         _______ _______ _______ _____ _____    ______ ____
ROOT
ATOM      1  O   UNL     1      37.930 -24.612 -13.085  0.00  0.00    -0.186 OA
ENDROOT
BRANCH   1   2
ATOM      2  P   UNL     1      37.345 -23.472 -12.101  0.00  0.00    +0.481 P 
ATOM      3  O   UNL     1      38.255 -22.297 -11.897  0.00  0.00    -0.227 OA
BRANCH   2   4
ATOM      4  O   UNL     1      36.974 -24.297 -10.761  0.00  0.00    -0.302 OA
ATOM      5  H   UNL     1      36.023 -24.217 -10.585  0.00  0.00    +0.222 HD
ENDBRANCH   2   4
BRANCH   2   6
ATOM      6  O   UNL     1      35.903 -23.126 -12.745  0.00  0.00    -0.302 OA
ATOM      7  H   UNL     1      35.750 -22.170 -12.698  0.00  0.00    +0.222 HD
ENDBRANCH   2   6
ENDBRANCH   1   2
BRANCH   1   8
ATOM      8  P   UNL     1      37.334 -26.051 -13.516  0.00  0.00    +0.481 P 
ATOM      9  O   UNL     1      38.257 -26.883 -14.357  0.00  0.00    -0.227 OA
BRANCH   8  10
ATOM     10  O   UNL     1      35.924 -25.672 -14.208  0.00  0.00    -0.302 OA
ATOM     11  H   UNL     1      35.228 -26.255 -13.867  0.00  0.00    +0.222 HD
ENDBRANCH   8  10
BRANCH   8  12
ATOM     12  O   UNL     1      36.897 -26.712 -12.106  0.00  0.00    -0.302 OA
ATOM     13  H   UNL     1      36.739 -26.011 -11.455  0.00  0.00    +0.222 HD
ENDBRANCH   8  12
ENDBRANCH   1   8
TORSDOF 6
ENDMDL
MODEL 7
REMARK VINA RESULT:      -5.2      3.058      4.606
REMARK  Name = 1023
REMARK  6 active torsions:
REMARK  status: ('A' for Active; 'I' for Inactive)
REMARK    1  A    between atoms: O_1  and  P_2
REMARK    2  A    between atoms: O_1  and  P_8
REMARK    3  A    between atoms: P_2  and  O_4
REMARK    4  A    between atoms: P_2  and  O_6
REMARK    5  A    between atoms: P_8  and  O_10
REMARK    6  A    between atoms: P_8  and  O_12
REMARK                            x       y       z     vdW  Elec       q    Type
REMARK                         _______ _______ _______ _____ _____    ______ ____
ROOT
ATOM      1  O   UNL     1      36.672 -25.413 -11.873  0.00  0.00    -0.186 OA
ENDROOT
BRANCH   1   2
ATOM      2  P   UNL     1      36.007 -24.187 -11.056  0.00  0.00    +0.481 P 
ATOM      3  O   UNL     1      35.315 -24.586  -9.787  0.00  0.00    -0.227 OA
BRANCH   2   4
ATOM      4  O   UNL     1      35.065 -23.478 -12.162  0.00  0.00    -0.302 OA
ATOM      5  H   UNL     1      35.263 -22.529 -12.195  0.00  0.00    +0.222 HD
ENDBRANCH   2   4
BRANCH   2   6
ATOM      6  O   UNL     1      37.232 -23.147 -10.880  0.00  0.00    -0.302 OA
ATOM      7  H   UNL     1      36.884 -22.279 -10.625  0.00  0.00    +0.222 HD
ENDBRANCH   2   6
ENDBRANCH   1   2
BRANCH   1   8
ATOM      8  P   UNL     1      37.176 -25.520 -13.405  0.00  0.00    +0.481 P 
ATOM      9  O   UNL     1      38.102 -26.669 -13.678  0.00  0.00    -0.227 OA
BRANCH   8  10
ATOM     10  O   UNL     1      37.793 -24.054 -13.691  0.00  0.00    -0.302 OA
ATOM     11  H   UNL     1      38.256 -24.057 -14.543  0.00  0.00    +0.222 HD
ENDBRANCH   8  10
BRANCH   8  12
ATOM     12  O   UNL     1      35.799 -25.523 -14.252  0.00  0.00    -0.302 OA
ATOM     13  H   UNL     1      35.968 -25.867 -15.143  0.00  0.00    +0.222 HD
ENDBRANCH   8  12
ENDBRANCH   1   8
TORSDOF 6
ENDMDL
MODEL 8
REMARK VINA RESULT:      -5.1      2.242      3.341
REMARK  Name = 1023
REMARK  6 active torsions:
REMARK  status: ('A' for Active; 'I' for Inactive)
REMARK    1  A    between atoms: O_1  and  P_2
REMARK    2  A    between atoms: O_1  and  P_8
REMARK    3  A    between atoms: P_2  and  O_4
REMARK    4  A    between atoms: P_2  and  O_6
REMARK    5  A    between atoms: P_8  and  O_10
REMARK    6  A    between atoms: P_8  and  O_12
REMARK                            x       y       z     vdW  Elec       q    Type
REMARK                         _______ _______ _______ _____ _____    ______ ____
ROOT
ATOM      1  O   UNL     1      36.886 -25.840 -13.030  0.00  0.00    -0.186 OA
ENDROOT
BRANCH   1   2
ATOM      2  P   UNL     1      37.824 -25.756 -14.343  0.00  0.00    +0.481 P 
ATOM      3  O   UNL     1      38.509 -27.040 -14.704  0.00  0.00    -0.227 OA
BRANCH   2   4
ATOM      4  O   UNL     1      38.810 -24.518 -14.011  0.00  0.00    -0.302 OA
ATOM      5  H   UNL     1      38.561 -24.126 -13.160  0.00  0.00    +0.222 HD
ENDBRANCH   2   4
BRANCH   2   6
ATOM      6  O   UNL     1      36.834 -25.158 -15.472  0.00  0.00    -0.302 OA
ATOM      7  H   UNL     1      36.982 -25.623 -16.310  0.00  0.00    +0.222 HD
ENDBRANCH   2   6
ENDBRANCH   1   2
BRANCH   1   8
ATOM      8  P   UNL     1      36.456 -24.711 -11.957  0.00  0.00    +0.481 P 
ATOM      9  O   UNL     1      35.348 -25.120 -11.031  0.00  0.00    -0.227 OA
BRANCH   8  10
ATOM     10  O   UNL     1      36.141 -23.426 -12.884  0.00  0.00    -0.302 OA
ATOM     11  H   UNL     1      36.718 -23.438 -13.663  0.00  0.00    +0.222 HD
ENDBRANCH   8  10
BRANCH   8  12
ATOM     12  O   UNL     1      37.852 -24.326 -11.239  0.00  0.00    -0.302 OA
ATOM     13  H   UNL     1      37.687 -23.685 -10.531  0.00  0.00    +0.222 HD
ENDBRANCH   8  12
ENDBRANCH   1   8
TORSDOF 6
ENDMDL
MODEL 9
REMARK VINA RESULT:      -5.0      8.676     10.336
REMARK  Name = 1023
REMARK  6 active torsions:
REMARK  status: ('A' for Active; 'I' for Inactive)
REMARK    1  A    between atoms: O_1  and  P_2
REMARK    2  A    between atoms: O_1  and  P_8
REMARK    3  A    between atoms: P_2  and  O_4
REMARK    4  A    between atoms: P_2  and  O_6
REMARK    5  A    between atoms: P_8  and  O_10
REMARK    6  A    between atoms: P_8  and  O_12
REMARK                            x       y       z     vdW  Elec       q    Type
REMARK                         _______ _______ _______ _____ _____    ______ ____
ROOT
ATOM      1  O   UNL     1      29.442 -22.447 -16.980  0.00  0.00    -0.186 OA
ENDROOT
BRANCH   1   2
ATOM      2  P   UNL     1      30.627 -23.179 -16.159  0.00  0.00    +0.481 P 
ATOM      3  O   UNL     1      31.980 -23.081 -16.798  0.00  0.00    -0.227 OA
BRANCH   2   4
ATOM      4  O   UNL     1      30.064 -24.681 -15.963  0.00  0.00    -0.302 OA
ATOM      5  H   UNL     1      30.329 -25.014 -15.091  0.00  0.00    +0.222 HD
ENDBRANCH   2   4
BRANCH   2   6
ATOM      6  O   UNL     1      30.510 -22.534 -14.681  0.00  0.00    -0.302 OA
ATOM      7  H   UNL     1      29.593 -22.268 -14.517  0.00  0.00    +0.222 HD
ENDBRANCH   2   6
ENDBRANCH   1   2
BRANCH   1   8
ATOM      8  P   UNL     1      27.836 -22.618 -16.907  0.00  0.00    +0.481 P 
ATOM      9  O   UNL     1      27.059 -21.444 -17.424  0.00  0.00    -0.227 OA
BRANCH   8  10
ATOM     10  O   UNL     1      27.577 -22.986 -15.355  0.00  0.00    -0.302 OA
ATOM     11  H   UNL     1      28.420 -22.978 -14.874  0.00  0.00    +0.222 HD
ENDBRANCH   8  10
BRANCH   8  12
ATOM     12  O   UNL     1      27.574 -24.016 -17.676  0.00  0.00    -0.302 OA
ATOM     13  H   UNL     1      28.273 -24.160 -18.332  0.00  0.00    +0.222 HD
ENDBRANCH   8  12
ENDBRANCH   1   8
TORSDOF 6
ENDMDL
