MODEL 1
REMARK VINA RESULT:     -11.9      0.000      0.000
REMARK  Name = 2267
REMARK  3 active torsions:
REMARK  status: ('A' for Active; 'I' for Inactive)
REMARK    1  A    between atoms: N_2  and  C_13
REMARK    2  A    between atoms: C_6  and  C_21
REMARK    3  A    between atoms: C_21  and  C_23
REMARK                            x       y       z     vdW  Elec       q    Type
REMARK                         _______ _______ _______ _____ _____    ______ ____
ROOT
ATOM      1  O   UNL     1      33.897 -23.514 -13.120  0.00  0.00    -0.266 OA
ATOM      2  N   UNL     1      34.864 -23.777 -15.214  0.00  0.00    -0.219 N 
ATOM      3  N   UNL     1      34.743 -23.788 -16.574  0.00  0.00    -0.171 NA
ATOM      4  C   UNL     1      33.803 -23.527 -14.346  0.00  0.00    +0.276 A 
ATOM      5  C   UNL     1      32.489 -23.264 -14.961  0.00  0.00    +0.059 A 
ATOM      6  C   UNL     1      33.592 -23.557 -17.119  0.00  0.00    +0.083 A 
ATOM      7  C   UNL     1      32.370 -23.277 -16.346  0.00  0.00    +0.020 A 
ATOM      8  C   UNL     1      31.369 -23.005 -14.162  0.00  0.00    +0.005 C 
ATOM      9  C   UNL     1      31.131 -23.031 -16.945  0.00  0.00    +0.001 C 
ATOM     10  C   UNL     1      30.133 -22.759 -14.760  0.00  0.00    +0.000 C 
ATOM     11  C   UNL     1      30.016 -22.772 -16.148  0.00  0.00    +0.000 C 
ENDROOT
BRANCH   2  13
ATOM     12  N   UNL     1      38.907 -25.154 -14.107  0.00  0.00    +0.386 N 
ATOM     13  C   UNL     1      36.199 -24.050 -14.721  0.00  0.00    +0.106 C 
ATOM     14  C   UNL     1      36.324 -23.500 -13.297  0.00  0.00    +0.022 C 
ATOM     15  C   UNL     1      36.465 -25.557 -14.770  0.00  0.00    +0.002 C 
ATOM     16  C   UNL     1      37.735 -23.501 -12.714  0.00  0.00    -0.021 C 
ATOM     17  C   UNL     1      37.944 -25.946 -14.878  0.00  0.00    -0.075 C 
ATOM     18  C   UNL     1      38.473 -24.841 -12.745  0.00  0.00    -0.077 C 
ATOM     19  C   UNL     1      40.213 -25.816 -14.112  0.00  0.00    -0.101 C 
ATOM     20  H   UNL     1      38.979 -24.250 -14.573  0.00  0.00    -0.080 HD
ENDBRANCH   2  13
BRANCH   6  21
ATOM     21  C   UNL     1      33.519 -23.583 -18.628  0.00  0.00    +0.074 C 
BRANCH  21  23
ATOM     22 CL   UNL     1      35.790 -18.530 -20.937  0.00  0.00    -0.082 Cl
ATOM     23  C   UNL     1      34.085 -22.323 -19.202  0.00  0.00    -0.016 C 
ATOM     24  C   UNL     1      33.236 -21.381 -19.777  0.00  0.00    -0.003 C 
ATOM     25  C   UNL     1      35.460 -22.099 -19.162  0.00  0.00    -0.003 C 
ATOM     26  C   UNL     1      33.763 -20.206 -20.313  0.00  0.00    +0.011 C 
ATOM     27  C   UNL     1      35.987 -20.925 -19.700  0.00  0.00    +0.011 C 
ATOM     28  C   UNL     1      35.139 -19.978 -20.275  0.00  0.00    +0.058 C 
ENDBRANCH  21  23
ENDBRANCH   6  21
TORSDOF 3
ENDMDL
MODEL 2
REMARK VINA RESULT:     -11.2      3.024      6.707
REMARK  Name = 2267
REMARK  3 active torsions:
REMARK  status: ('A' for Active; 'I' for Inactive)
REMARK    1  A    between atoms: N_2  and  C_13
REMARK    2  A    between atoms: C_6  and  C_21
REMARK    3  A    between atoms: C_21  and  C_23
REMARK                            x       y       z     vdW  Elec       q    Type
REMARK                         _______ _______ _______ _____ _____    ______ ____
ROOT
ATOM      1  O   UNL     1      32.411 -22.417 -18.673  0.00  0.00    -0.266 OA
ATOM      2  N   UNL     1      33.879 -22.990 -16.969  0.00  0.00    -0.219 N 
ATOM      3  N   UNL     1      35.136 -22.954 -16.436  0.00  0.00    -0.171 NA
ATOM      4  C   UNL     1      33.537 -22.393 -18.182  0.00  0.00    +0.276 A 
ATOM      5  C   UNL     1      34.614 -21.694 -18.906  0.00  0.00    +0.059 A 
ATOM      6  C   UNL     1      36.086 -22.341 -17.067  0.00  0.00    +0.083 A 
ATOM      7  C   UNL     1      35.892 -21.661 -18.359  0.00  0.00    +0.020 A 
ATOM      8  C   UNL     1      34.358 -21.069 -20.131  0.00  0.00    +0.005 C 
ATOM      9  C   UNL     1      36.926 -21.003 -19.034  0.00  0.00    +0.001 C 
ATOM     10  C   UNL     1      35.389 -20.412 -20.803  0.00  0.00    +0.000 C 
ATOM     11  C   UNL     1      36.669 -20.380 -20.255  0.00  0.00    +0.000 C 
ENDROOT
BRANCH   2  13
ATOM     12  N   UNL     1      30.444 -24.857 -14.923  0.00  0.00    +0.386 N 
ATOM     13  C   UNL     1      32.902 -23.705 -16.173  0.00  0.00    +0.106 C 
ATOM     14  C   UNL     1      33.472 -23.922 -14.767  0.00  0.00    +0.022 C 
ATOM     15  C   UNL     1      31.593 -22.913 -16.136  0.00  0.00    +0.002 C 
ATOM     16  C   UNL     1      32.666 -24.857 -13.870  0.00  0.00    -0.021 C 
ATOM     17  C   UNL     1      30.338 -23.756 -15.887  0.00  0.00    -0.075 C 
ATOM     18  C   UNL     1      31.183 -24.518 -13.706  0.00  0.00    -0.077 C 
ATOM     19  C   UNL     1      29.111 -25.376 -14.612  0.00  0.00    -0.101 C 
ATOM     20  H   UNL     1      31.000 -25.583 -15.374  0.00  0.00    -0.080 HD
ENDBRANCH   2  13
BRANCH   6  21
ATOM     21  C   UNL     1      37.455 -22.336 -16.429  0.00  0.00    +0.074 C 
BRANCH  21  23
ATOM     22 CL   UNL     1      37.634 -26.144 -11.794  0.00  0.00    -0.082 Cl
ATOM     23  C   UNL     1      37.499 -23.286 -15.274  0.00  0.00    -0.016 C 
ATOM     24  C   UNL     1      36.894 -22.939 -14.068  0.00  0.00    -0.003 C 
ATOM     25  C   UNL     1      38.145 -24.512 -15.409  0.00  0.00    -0.003 C 
ATOM     26  C   UNL     1      36.935 -23.823 -12.991  0.00  0.00    +0.011 C 
ATOM     27  C   UNL     1      38.187 -25.396 -14.331  0.00  0.00    +0.011 C 
ATOM     28  C   UNL     1      37.582 -25.053 -13.122  0.00  0.00    +0.058 C 
ENDBRANCH  21  23
ENDBRANCH   6  21
TORSDOF 3
ENDMDL
MODEL 3
REMARK VINA RESULT:     -10.6      2.706      5.920
REMARK  Name = 2267
REMARK  3 active torsions:
REMARK  status: ('A' for Active; 'I' for Inactive)
REMARK    1  A    between atoms: N_2  and  C_13
REMARK    2  A    between atoms: C_6  and  C_21
REMARK    3  A    between atoms: C_21  and  C_23
REMARK                            x       y       z     vdW  Elec       q    Type
REMARK                         _______ _______ _______ _____ _____    ______ ____
ROOT
ATOM      1  O   UNL     1      31.582 -22.649 -17.688  0.00  0.00    -0.266 OA
ATOM      2  N   UNL     1      33.567 -22.858 -16.504  0.00  0.00    -0.219 N 
ATOM      3  N   UNL     1      34.245 -23.327 -15.415  0.00  0.00    -0.171 NA
ATOM      4  C   UNL     1      32.205 -23.065 -16.713  0.00  0.00    +0.276 A 
ATOM      5  C   UNL     1      31.483 -23.836 -15.684  0.00  0.00    +0.059 A 
ATOM      6  C   UNL     1      33.616 -24.005 -14.508  0.00  0.00    +0.083 A 
ATOM      7  C   UNL     1      32.177 -24.310 -14.577  0.00  0.00    +0.020 A 
ATOM      8  C   UNL     1      30.113 -24.089 -15.816  0.00  0.00    +0.005 C 
ATOM      9  C   UNL     1      31.507 -25.042 -13.592  0.00  0.00    +0.001 C 
ATOM     10  C   UNL     1      29.445 -24.818 -14.833  0.00  0.00    +0.000 C 
ATOM     11  C   UNL     1      30.141 -25.293 -13.724  0.00  0.00    +0.000 C 
ENDROOT
BRANCH   2  13
ATOM     12  N   UNL     1      35.507 -20.652 -19.795  0.00  0.00    +0.386 N 
ATOM     13  C   UNL     1      34.376 -22.114 -17.447  0.00  0.00    +0.106 C 
ATOM     14  C   UNL     1      35.853 -22.430 -17.191  0.00  0.00    +0.022 C 
ATOM     15  C   UNL     1      33.961 -22.477 -18.876  0.00  0.00    +0.002 C 
ATOM     16  C   UNL     1      36.852 -21.558 -17.947  0.00  0.00    -0.021 C 
ATOM     17  C   UNL     1      34.250 -21.396 -19.923  0.00  0.00    -0.075 C 
ATOM     18  C   UNL     1      36.665 -21.483 -19.464  0.00  0.00    -0.077 C 
ATOM     19  C   UNL     1      35.744 -19.864 -21.006  0.00  0.00    -0.101 C 
ATOM     20  H   UNL     1      35.394 -20.028 -18.996  0.00  0.00    -0.080 HD
ENDBRANCH   2  13
BRANCH   6  21
ATOM     21  C   UNL     1      34.418 -24.497 -13.326  0.00  0.00    +0.074 C 
BRANCH  21  23
ATOM     22 CL   UNL     1      40.072 -25.673 -14.959  0.00  0.00    -0.082 Cl
ATOM     23  C   UNL     1      35.827 -24.789 -13.734  0.00  0.00    -0.016 C 
ATOM     24  C   UNL     1      36.083 -25.771 -14.689  0.00  0.00    -0.003 C 
ATOM     25  C   UNL     1      36.878 -24.081 -13.156  0.00  0.00    -0.003 C 
ATOM     26  C   UNL     1      37.397 -26.044 -15.069  0.00  0.00    +0.011 C 
ATOM     27  C   UNL     1      38.192 -24.354 -13.535  0.00  0.00    +0.011 C 
ATOM     28  C   UNL     1      38.452 -25.336 -14.492  0.00  0.00    +0.058 C 
ENDBRANCH  21  23
ENDBRANCH   6  21
TORSDOF 3
ENDMDL
MODEL 4
REMARK VINA RESULT:     -10.4      2.645      6.692
REMARK  Name = 2267
REMARK  3 active torsions:
REMARK  status: ('A' for Active; 'I' for Inactive)
REMARK    1  A    between atoms: N_2  and  C_13
REMARK    2  A    between atoms: C_6  and  C_21
REMARK    3  A    between atoms: C_21  and  C_23
REMARK                            x       y       z     vdW  Elec       q    Type
REMARK                         _______ _______ _______ _____ _____    ______ ____
ROOT
ATOM      1  O   UNL     1      37.816 -23.125 -16.367  0.00  0.00    -0.266 OA
ATOM      2  N   UNL     1      35.546 -22.900 -15.940  0.00  0.00    -0.219 N 
ATOM      3  N   UNL     1      34.471 -23.134 -15.131  0.00  0.00    -0.171 NA
ATOM      4  C   UNL     1      36.840 -23.328 -15.649  0.00  0.00    +0.276 A 
ATOM      5  C   UNL     1      37.027 -24.073 -14.390  0.00  0.00    +0.059 A 
ATOM      6  C   UNL     1      34.630 -23.787 -14.024  0.00  0.00    +0.083 A 
ATOM      7  C   UNL     1      35.929 -24.309 -13.570  0.00  0.00    +0.020 A 
ATOM      8  C   UNL     1      38.293 -24.540 -14.021  0.00  0.00    +0.005 C 
ATOM      9  C   UNL     1      36.089 -25.015 -12.373  0.00  0.00    +0.001 C 
ATOM     10  C   UNL     1      38.452 -25.244 -12.828  0.00  0.00    +0.000 C 
ATOM     11  C   UNL     1      37.352 -25.481 -12.007  0.00  0.00    +0.000 C 
ENDROOT
BRANCH   2  13
ATOM     12  N   UNL     1      34.026 -20.946 -19.592  0.00  0.00    +0.386 N 
ATOM     13  C   UNL     1      35.245 -22.161 -17.150  0.00  0.00    +0.106 C 
ATOM     14  C   UNL     1      36.539 -21.970 -17.948  0.00  0.00    +0.022 C 
ATOM     15  C   UNL     1      34.187 -22.915 -17.960  0.00  0.00    +0.002 C 
ATOM     16  C   UNL     1      36.441 -21.017 -19.137  0.00  0.00    -0.021 C 
ATOM     17  C   UNL     1      33.343 -22.036 -18.889  0.00  0.00    -0.075 C 
ATOM     18  C   UNL     1      35.330 -21.314 -20.146  0.00  0.00    -0.077 C 
ATOM     19  C   UNL     1      33.147 -20.390 -20.622  0.00  0.00    -0.101 C 
ATOM     20  H   UNL     1      34.230 -20.233 -18.893  0.00  0.00    -0.080 HD
ENDBRANCH   2  13
BRANCH   6  21
ATOM     21  C   UNL     1      33.404 -24.016 -13.170  0.00  0.00    +0.074 C 
BRANCH  21  23
ATOM     22 CL   UNL     1      28.449 -24.027 -16.556  0.00  0.00    -0.082 Cl
ATOM     23  C   UNL     1      32.170 -24.019 -14.015  0.00  0.00    -0.016 C 
ATOM     24  C   UNL     1      31.719 -22.832 -14.588  0.00  0.00    -0.003 C 
ATOM     25  C   UNL     1      31.475 -25.208 -14.224  0.00  0.00    -0.003 C 
ATOM     26  C   UNL     1      30.568 -22.835 -15.375  0.00  0.00    +0.011 C 
ATOM     27  C   UNL     1      30.323 -25.211 -15.010  0.00  0.00    +0.011 C 
ATOM     28  C   UNL     1      29.869 -24.024 -15.586  0.00  0.00    +0.058 C 
ENDBRANCH  21  23
ENDBRANCH   6  21
TORSDOF 3
ENDMDL
MODEL 5
REMARK VINA RESULT:     -10.2     13.038     16.283
REMARK  Name = 2267
REMARK  3 active torsions:
REMARK  status: ('A' for Active; 'I' for Inactive)
REMARK    1  A    between atoms: N_2  and  C_13
REMARK    2  A    between atoms: C_6  and  C_21
REMARK    3  A    between atoms: C_21  and  C_23
REMARK                            x       y       z     vdW  Elec       q    Type
REMARK                         _______ _______ _______ _____ _____    ______ ____
ROOT
ATOM      1  O   UNL     1      31.473 -11.700 -22.112  0.00  0.00    -0.266 OA
ATOM      2  N   UNL     1      33.022 -10.819 -23.598  0.00  0.00    -0.219 N 
ATOM      3  N   UNL     1      33.858  -9.803 -23.963  0.00  0.00    -0.171 NA
ATOM      4  C   UNL     1      32.230 -10.793 -22.452  0.00  0.00    +0.276 A 
ATOM      5  C   UNL     1      32.321  -9.588 -21.607  0.00  0.00    +0.059 A 
ATOM      6  C   UNL     1      33.943  -8.742 -23.225  0.00  0.00    +0.083 A 
ATOM      7  C   UNL     1      33.172  -8.556 -21.984  0.00  0.00    +0.020 A 
ATOM      8  C   UNL     1      31.558  -9.479 -20.439  0.00  0.00    +0.005 C 
ATOM      9  C   UNL     1      33.270  -7.405 -21.195  0.00  0.00    +0.001 C 
ATOM     10  C   UNL     1      31.655  -8.332 -19.652  0.00  0.00    +0.000 C 
ATOM     11  C   UNL     1      32.509  -7.298 -20.030  0.00  0.00    +0.000 C 
ENDROOT
BRANCH   2  13
ATOM     12  N   UNL     1      33.057 -14.643 -25.799  0.00  0.00    +0.386 N 
ATOM     13  C   UNL     1      33.013 -11.951 -24.502  0.00  0.00    +0.106 C 
ATOM     14  C   UNL     1      33.629 -11.523 -25.838  0.00  0.00    +0.022 C 
ATOM     15  C   UNL     1      33.782 -13.116 -23.873  0.00  0.00    +0.002 C 
ATOM     16  C   UNL     1      33.490 -12.530 -26.977  0.00  0.00    -0.021 C 
ATOM     17  C   UNL     1      33.368 -14.504 -24.372  0.00  0.00    -0.075 C 
ATOM     18  C   UNL     1      33.988 -13.947 -26.686  0.00  0.00    -0.077 C 
ATOM     19  C   UNL     1      32.945 -16.061 -26.148  0.00  0.00    -0.101 C 
ATOM     20  H   UNL     1      32.159 -14.181 -25.946  0.00  0.00    -0.080 HD
ENDBRANCH   2  13
BRANCH   6  21
ATOM     21  C   UNL     1      34.884  -7.651 -23.680  0.00  0.00    +0.074 C 
BRANCH  21  23
ATOM     22 CL   UNL     1      32.051  -3.800 -27.308  0.00  0.00    -0.082 Cl
ATOM     23  C   UNL     1      34.177  -6.692 -24.584  0.00  0.00    -0.016 C 
ATOM     24  C   UNL     1      34.835  -6.179 -25.699  0.00  0.00    -0.003 C 
ATOM     25  C   UNL     1      32.865  -6.315 -24.307  0.00  0.00    -0.003 C 
ATOM     26  C   UNL     1      34.177  -5.284 -26.543  0.00  0.00    +0.011 C 
ATOM     27  C   UNL     1      32.208  -5.420 -25.150  0.00  0.00    +0.011 C 
ATOM     28  C   UNL     1      32.863  -4.904 -26.268  0.00  0.00    +0.058 C 
ENDBRANCH  21  23
ENDBRANCH   6  21
TORSDOF 3
ENDMDL
MODEL 6
REMARK VINA RESULT:     -10.0      2.809      5.145
REMARK  Name = 2267
REMARK  3 active torsions:
REMARK  status: ('A' for Active; 'I' for Inactive)
REMARK    1  A    between atoms: N_2  and  C_13
REMARK    2  A    between atoms: C_6  and  C_21
REMARK    3  A    between atoms: C_21  and  C_23
REMARK                            x       y       z     vdW  Elec       q    Type
REMARK                         _______ _______ _______ _____ _____    ______ ____
ROOT
ATOM      1  O   UNL     1      37.565 -22.056 -17.111  0.00  0.00    -0.266 OA
ATOM      2  N   UNL     1      35.623 -23.003 -16.265  0.00  0.00    -0.219 N 
ATOM      3  N   UNL     1      34.283 -23.243 -16.378  0.00  0.00    -0.171 NA
ATOM      4  C   UNL     1      36.360 -22.280 -17.201  0.00  0.00    +0.276 A 
ATOM      5  C   UNL     1      35.624 -21.759 -18.368  0.00  0.00    +0.059 A 
ATOM      6  C   UNL     1      33.632 -22.788 -17.402  0.00  0.00    +0.083 A 
ATOM      7  C   UNL     1      34.261 -22.005 -18.479  0.00  0.00    +0.020 A 
ATOM      8  C   UNL     1      36.288 -21.021 -19.355  0.00  0.00    +0.005 C 
ATOM      9  C   UNL     1      33.548 -21.517 -19.578  0.00  0.00    +0.001 C 
ATOM     10  C   UNL     1      35.577 -20.534 -20.451  0.00  0.00    +0.000 C 
ATOM     11  C   UNL     1      34.211 -20.782 -20.562  0.00  0.00    +0.000 C 
ENDROOT
BRANCH   2  13
ATOM     12  N   UNL     1      37.746 -25.174 -13.064  0.00  0.00    +0.386 N 
ATOM     13  C   UNL     1      36.240 -23.560 -15.079  0.00  0.00    +0.106 C 
ATOM     14  C   UNL     1      35.358 -23.246 -13.866  0.00  0.00    +0.022 C 
ATOM     15  C   UNL     1      36.432 -25.068 -15.262  0.00  0.00    +0.002 C 
ATOM     16  C   UNL     1      35.974 -23.564 -12.506  0.00  0.00    -0.021 C 
ATOM     17  C   UNL     1      37.565 -25.678 -14.430  0.00  0.00    -0.075 C 
ATOM     18  C   UNL     1      36.498 -24.990 -12.323  0.00  0.00    -0.077 C 
ATOM     19  C   UNL     1      38.678 -26.037 -12.335  0.00  0.00    -0.101 C 
ATOM     20  H   UNL     1      38.140 -24.238 -13.151  0.00  0.00    -0.080 HD
ENDBRANCH   2  13
BRANCH   6  21
ATOM     21  C   UNL     1      32.153 -23.086 -17.473  0.00  0.00    +0.074 C 
BRANCH  21  23
ATOM     22 CL   UNL     1      30.000 -24.392 -12.025  0.00  0.00    -0.082 Cl
ATOM     23  C   UNL     1      31.618 -23.411 -16.115  0.00  0.00    -0.016 C 
ATOM     24  C   UNL     1      30.761 -24.498 -15.950  0.00  0.00    -0.003 C 
ATOM     25  C   UNL     1      31.976 -22.627 -15.021  0.00  0.00    -0.003 C 
ATOM     26  C   UNL     1      30.261 -24.802 -14.684  0.00  0.00    +0.011 C 
ATOM     27  C   UNL     1      31.475 -22.930 -13.755  0.00  0.00    +0.011 C 
ATOM     28  C   UNL     1      30.617 -24.018 -13.587  0.00  0.00    +0.058 C 
ENDBRANCH  21  23
ENDBRANCH   6  21
TORSDOF 3
ENDMDL
MODEL 7
REMARK VINA RESULT:     -10.0      1.909      5.777
REMARK  Name = 2267
REMARK  3 active torsions:
REMARK  status: ('A' for Active; 'I' for Inactive)
REMARK    1  A    between atoms: N_2  and  C_13
REMARK    2  A    between atoms: C_6  and  C_21
REMARK    3  A    between atoms: C_21  and  C_23
REMARK                            x       y       z     vdW  Elec       q    Type
REMARK                         _______ _______ _______ _____ _____    ______ ____
ROOT
ATOM      1  O   UNL     1      32.709 -24.392 -12.779  0.00  0.00    -0.266 OA
ATOM      2  N   UNL     1      33.154 -23.846 -14.990  0.00  0.00    -0.219 N 
ATOM      3  N   UNL     1      34.048 -23.484 -15.957  0.00  0.00    -0.171 NA
ATOM      4  C   UNL     1      33.503 -24.065 -13.659  0.00  0.00    +0.276 A 
ATOM      5  C   UNL     1      34.923 -23.887 -13.305  0.00  0.00    +0.059 A 
ATOM      6  C   UNL     1      35.297 -23.326 -15.652  0.00  0.00    +0.083 A 
ATOM      7  C   UNL     1      35.829 -23.517 -14.292  0.00  0.00    +0.020 A 
ATOM      8  C   UNL     1      35.359 -24.086 -11.990  0.00  0.00    +0.005 C 
ATOM      9  C   UNL     1      37.179 -23.342 -13.973  0.00  0.00    +0.001 C 
ATOM     10  C   UNL     1      36.706 -23.912 -11.672  0.00  0.00    +0.000 C 
ATOM     11  C   UNL     1      37.613 -23.541 -12.662  0.00  0.00    +0.000 C 
ENDROOT
BRANCH   2  13
ATOM     12  N   UNL     1      29.034 -23.634 -16.554  0.00  0.00    +0.386 N 
ATOM     13  C   UNL     1      31.788 -23.991 -15.451  0.00  0.00    +0.106 C 
ATOM     14  C   UNL     1      31.091 -25.063 -14.607  0.00  0.00    +0.022 C 
ATOM     15  C   UNL     1      31.070 -22.642 -15.356  0.00  0.00    +0.002 C 
ATOM     16  C   UNL     1      29.717 -25.500 -15.107  0.00  0.00    -0.021 C 
ATOM     17  C   UNL     1      29.895 -22.469 -16.323  0.00  0.00    -0.075 C 
ATOM     18  C   UNL     1      28.700 -24.381 -15.341  0.00  0.00    -0.077 C 
ATOM     19  C   UNL     1      27.829 -23.226 -17.278  0.00  0.00    -0.101 C 
ATOM     20  H   UNL     1      29.574 -24.285 -17.123  0.00  0.00    -0.080 HD
ENDBRANCH   2  13
BRANCH   6  21
ATOM     21  C   UNL     1      36.239 -22.924 -16.763  0.00  0.00    +0.074 C 
BRANCH  21  23
ATOM     22 CL   UNL     1      33.234 -20.192 -21.182  0.00  0.00    -0.082 Cl
ATOM     23  C   UNL     1      35.490 -22.244 -17.865  0.00  0.00    -0.016 C 
ATOM     24  C   UNL     1      36.165 -21.401 -18.744  0.00  0.00    -0.003 C 
ATOM     25  C   UNL     1      34.120 -22.455 -18.006  0.00  0.00    -0.003 C 
ATOM     26  C   UNL     1      35.467 -20.766 -19.771  0.00  0.00    +0.011 C 
ATOM     27  C   UNL     1      33.422 -21.820 -19.033  0.00  0.00    +0.011 C 
ATOM     28  C   UNL     1      34.095 -20.976 -19.916  0.00  0.00    +0.058 C 
ENDBRANCH  21  23
ENDBRANCH   6  21
TORSDOF 3
ENDMDL
MODEL 8
REMARK VINA RESULT:      -9.9     15.793     19.533
REMARK  Name = 2267
REMARK  3 active torsions:
REMARK  status: ('A' for Active; 'I' for Inactive)
REMARK    1  A    between atoms: N_2  and  C_13
REMARK    2  A    between atoms: C_6  and  C_21
REMARK    3  A    between atoms: C_21  and  C_23
REMARK                            x       y       z     vdW  Elec       q    Type
REMARK                         _______ _______ _______ _____ _____    ______ ____
ROOT
ATOM      1  O   UNL     1      30.641  -4.603 -23.406  0.00  0.00    -0.266 OA
ATOM      2  N   UNL     1      32.446  -5.467 -24.582  0.00  0.00    -0.219 N 
ATOM      3  N   UNL     1      33.526  -6.301 -24.635  0.00  0.00    -0.171 NA
ATOM      4  C   UNL     1      31.615  -5.349 -23.469  0.00  0.00    +0.276 A 
ATOM      5  C   UNL     1      31.947  -6.184 -22.300  0.00  0.00    +0.059 A 
ATOM      6  C   UNL     1      33.821  -7.038 -23.611  0.00  0.00    +0.083 A 
ATOM      7  C   UNL     1      33.048  -7.031 -22.359  0.00  0.00    +0.020 A 
ATOM      8  C   UNL     1      31.166  -6.127 -21.140  0.00  0.00    +0.005 C 
ATOM      9  C   UNL     1      33.377  -7.829 -21.258  0.00  0.00    +0.001 C 
ATOM     10  C   UNL     1      31.494  -6.923 -20.043  0.00  0.00    +0.000 C 
ATOM     11  C   UNL     1      32.598  -7.771 -20.103  0.00  0.00    +0.000 C 
ENDROOT
BRANCH   2  13
ATOM     12  N   UNL     1      32.128  -3.575 -28.555  0.00  0.00    +0.386 N 
ATOM     13  C   UNL     1      32.216  -4.694 -25.785  0.00  0.00    +0.106 C 
ATOM     14  C   UNL     1      32.048  -3.220 -25.403  0.00  0.00    +0.022 C 
ATOM     15  C   UNL     1      33.385  -4.897 -26.754  0.00  0.00    +0.002 C 
ATOM     16  C   UNL     1      31.574  -2.301 -26.526  0.00  0.00    -0.021 C 
ATOM     17  C   UNL     1      33.041  -4.677 -28.231  0.00  0.00    -0.075 C 
ATOM     18  C   UNL     1      32.395  -2.340 -27.817  0.00  0.00    -0.077 C 
ATOM     19  C   UNL     1      32.122  -3.343 -30.000  0.00  0.00    -0.101 C 
ATOM     20  H   UNL     1      31.200  -3.868 -28.249  0.00  0.00    -0.080 HD
ENDBRANCH   2  13
BRANCH   6  21
ATOM     21  C   UNL     1      35.027  -7.940 -23.729  0.00  0.00    +0.074 C 
BRANCH  21  23
ATOM     22 CL   UNL     1      33.482 -13.207 -26.157  0.00  0.00    -0.082 Cl
ATOM     23  C   UNL     1      34.643  -9.253 -24.333  0.00  0.00    -0.016 C 
ATOM     24  C   UNL     1      35.346  -9.743 -25.432  0.00  0.00    -0.003 C 
ATOM     25  C   UNL     1      33.582  -9.980 -23.797  0.00  0.00    -0.003 C 
ATOM     26  C   UNL     1      34.987 -10.967 -25.996  0.00  0.00    +0.011 C 
ATOM     27  C   UNL     1      33.223 -11.203 -24.361  0.00  0.00    +0.011 C 
ATOM     28  C   UNL     1      33.926 -11.698 -25.461  0.00  0.00    +0.058 C 
ENDBRANCH  21  23
ENDBRANCH   6  21
TORSDOF 3
ENDMDL
MODEL 9
REMARK VINA RESULT:      -9.8      2.672      6.243
REMARK  Name = 2267
REMARK  3 active torsions:
REMARK  status: ('A' for Active; 'I' for Inactive)
REMARK    1  A    between atoms: N_2  and  C_13
REMARK    2  A    between atoms: C_6  and  C_21
REMARK    3  A    between atoms: C_21  and  C_23
REMARK                            x       y       z     vdW  Elec       q    Type
REMARK                         _______ _______ _______ _____ _____    ______ ____
ROOT
ATOM      1  O   UNL     1      37.445 -22.590 -15.072  0.00  0.00    -0.266 OA
ATOM      2  N   UNL     1      35.292 -23.312 -15.553  0.00  0.00    -0.219 N 
ATOM      3  N   UNL     1      34.123 -23.886 -15.142  0.00  0.00    -0.171 NA
ATOM      4  C   UNL     1      36.387 -23.104 -14.715  0.00  0.00    +0.276 A 
ATOM      5  C   UNL     1      36.244 -23.539 -13.314  0.00  0.00    +0.059 A 
ATOM      6  C   UNL     1      33.992 -24.269 -13.911  0.00  0.00    +0.083 A 
ATOM      7  C   UNL     1      35.052 -24.123 -12.900  0.00  0.00    +0.020 A 
ATOM      8  C   UNL     1      37.295 -23.369 -12.406  0.00  0.00    +0.005 C 
ATOM      9  C   UNL     1      34.901 -24.542 -11.575  0.00  0.00    +0.001 C 
ATOM     10  C   UNL     1      37.144 -23.787 -11.084  0.00  0.00    +0.000 C 
ATOM     11  C   UNL     1      35.950 -24.372 -10.670  0.00  0.00    +0.000 C 
ENDROOT
BRANCH   2  13
ATOM     12  N   UNL     1      35.932 -21.792 -19.645  0.00  0.00    +0.386 N 
ATOM     13  C   UNL     1      35.320 -22.926 -16.949  0.00  0.00    +0.106 C 
ATOM     14  C   UNL     1      33.882 -22.867 -17.476  0.00  0.00    +0.022 C 
ATOM     15  C   UNL     1      36.030 -21.578 -17.093  0.00  0.00    +0.002 C 
ATOM     16  C   UNL     1      33.743 -22.698 -18.986  0.00  0.00    -0.021 C 
ATOM     17  C   UNL     1      36.669 -21.331 -18.464  0.00  0.00    -0.075 C 
ATOM     18  C   UNL     1      34.496 -21.516 -19.601  0.00  0.00    -0.077 C 
ATOM     19  C   UNL     1      36.544 -21.246 -20.858  0.00  0.00    -0.101 C 
ATOM     20  H   UNL     1      36.004 -22.809 -19.652  0.00  0.00    -0.080 HD
ENDBRANCH   2  13
BRANCH   6  21
ATOM     21  C   UNL     1      32.676 -24.897 -13.515  0.00  0.00    +0.074 C 
BRANCH  21  23
ATOM     22 CL   UNL     1      28.175 -22.539 -16.708  0.00  0.00    -0.082 Cl
ATOM     23  C   UNL     1      31.554 -24.309 -14.310  0.00  0.00    -0.016 C 
ATOM     24  C   UNL     1      30.693 -25.145 -15.016  0.00  0.00    -0.003 C 
ATOM     25  C   UNL     1      31.375 -22.928 -14.342  0.00  0.00    -0.003 C 
ATOM     26  C   UNL     1      29.646 -24.598 -15.758  0.00  0.00    +0.011 C 
ATOM     27  C   UNL     1      30.330 -22.380 -15.084  0.00  0.00    +0.011 C 
ATOM     28  C   UNL     1      29.465 -23.215 -15.792  0.00  0.00    +0.058 C 
ENDBRANCH  21  23
ENDBRANCH   6  21
TORSDOF 3
ENDMDL
