MODEL 1
REMARK VINA RESULT:     -10.1      0.000      0.000
REMARK  Name = 5105
REMARK  10 active torsions:
REMARK  status: ('A' for Active; 'I' for Inactive)
REMARK    1  A    between atoms: C_1  and  C_20
REMARK    2  A    between atoms: C_4  and  O_7
REMARK    3  A    between atoms: O_7  and  C_8
REMARK    4  A    between atoms: C_8  and  C_9
REMARK    5  A    between atoms: C_9  and  C_10
REMARK    6  A    between atoms: C_10  and  N_12
REMARK    7  A    between atoms: C_13  and  C_15
REMARK    8  A    between atoms: C_15  and  O_16
REMARK    9  A    between atoms: O_16  and  C_18
REMARK   10  A    between atoms: C_20  and  N_21
REMARK                            x       y       z     vdW  Elec       q    Type
REMARK                         _______ _______ _______ _____ _____    ______ ____
ROOT
ATOM      1  C   UNL     1      35.048 -19.822 -20.802  0.00  0.00    -0.040 C 
ATOM      2  C   UNL     1      35.702 -20.689 -19.927  0.00  0.00    +0.031 C 
ATOM      3  C   UNL     1      33.657 -19.856 -20.907  0.00  0.00    -0.006 C 
ATOM      4  C   UNL     1      34.966 -21.589 -19.157  0.00  0.00    +0.138 C 
ATOM      5  C   UNL     1      32.922 -20.756 -20.137  0.00  0.00    +0.003 C 
ATOM      6  C   UNL     1      33.576 -21.623 -19.262  0.00  0.00    +0.037 C 
ENDROOT
BRANCH   4   7
ATOM      7  O   UNL     1      35.604 -22.434 -18.303  0.00  0.00    -0.475 OA
BRANCH   7   8
ATOM      8  C   UNL     1      36.802 -21.957 -17.690  0.00  0.00    +0.207 C 
BRANCH   8   9
ATOM      9  C   UNL     1      36.685 -22.129 -16.181  0.00  0.00    +0.069 C 
BRANCH   9  10
ATOM     10  C   UNL     1      35.951 -23.405 -15.788  0.00  0.00    +0.093 C 
BRANCH  10  12
ATOM     11  O   UNL     1      36.050 -26.299 -15.865  0.00  0.00    -0.271 OA
ATOM     12  N   UNL     1      36.754 -24.271 -14.968  0.00  0.00    -0.301 N 
ATOM     13  C   UNL     1      36.737 -25.657 -15.075  0.00  0.00    +0.267 C 
ATOM     14  H   UNL     1      37.347 -23.862 -14.297  0.00  0.00    +0.150 HD
BRANCH  13  15
ATOM     15  C   UNL     1      37.680 -26.313 -14.090  0.00  0.00    +0.292 C 
BRANCH  15  16
ATOM     16  O   UNL     1      38.785 -26.882 -14.759  0.00  0.00    -0.438 OA
BRANCH  16  18
ATOM     17  O   UNL     1      40.639 -26.057 -15.863  0.00  0.00    -0.250 OA
ATOM     18  C   UNL     1      39.888 -26.078 -14.898  0.00  0.00    +0.318 C 
ATOM     19  C   UNL     1      40.055 -25.211 -13.687  0.00  0.00    +0.121 C 
ENDBRANCH  16  18
ENDBRANCH  15  16
ENDBRANCH  13  15
ENDBRANCH  10  12
ENDBRANCH   9  10
ENDBRANCH   8   9
ENDBRANCH   7   8
ENDBRANCH   4   7
BRANCH   1  20
ATOM     20  C   UNL     1      35.842 -18.849 -21.633  0.00  0.00    -0.050 C 
BRANCH  20  21
ATOM     21  N   UNL     1      35.020 -18.217 -22.665  0.00  0.00    +0.390 N 
ATOM     22  C   UNL     1      35.294 -16.775 -22.731  0.00  0.00    -0.077 C 
ATOM     23  C   UNL     1      35.244 -18.860 -23.967  0.00  0.00    -0.077 C 
ATOM     24  C   UNL     1      34.407 -16.091 -23.772  0.00  0.00    -0.023 C 
ATOM     25  C   UNL     1      34.356 -18.245 -25.048  0.00  0.00    -0.023 C 
ATOM     26  C   UNL     1      34.562 -16.737 -25.144  0.00  0.00    -0.004 C 
ATOM     27  H   UNL     1      34.037 -18.339 -22.420  0.00  0.00    -0.079 HD
ENDBRANCH  20  21
ENDBRANCH   1  20
TORSDOF 10
ENDMDL
MODEL 2
REMARK VINA RESULT:      -9.9      1.958      2.419
REMARK  Name = 5105
REMARK  10 active torsions:
REMARK  status: ('A' for Active; 'I' for Inactive)
REMARK    1  A    between atoms: C_1  and  C_20
REMARK    2  A    between atoms: C_4  and  O_7
REMARK    3  A    between atoms: O_7  and  C_8
REMARK    4  A    between atoms: C_8  and  C_9
REMARK    5  A    between atoms: C_9  and  C_10
REMARK    6  A    between atoms: C_10  and  N_12
REMARK    7  A    between atoms: C_13  and  C_15
REMARK    8  A    between atoms: C_15  and  O_16
REMARK    9  A    between atoms: O_16  and  C_18
REMARK   10  A    between atoms: C_20  and  N_21
REMARK                            x       y       z     vdW  Elec       q    Type
REMARK                         _______ _______ _______ _____ _____    ______ ____
ROOT
ATOM      1  C   UNL     1      35.019 -19.619 -20.909  0.00  0.00    -0.040 C 
ATOM      2  C   UNL     1      35.700 -20.526 -20.096  0.00  0.00    +0.031 C 
ATOM      3  C   UNL     1      33.625 -19.643 -20.964  0.00  0.00    -0.006 C 
ATOM      4  C   UNL     1      34.988 -21.455 -19.340  0.00  0.00    +0.138 C 
ATOM      5  C   UNL     1      32.913 -20.573 -20.207  0.00  0.00    +0.003 C 
ATOM      6  C   UNL     1      33.594 -21.479 -19.395  0.00  0.00    +0.037 C 
ENDROOT
BRANCH   4   7
ATOM      7  O   UNL     1      35.652 -22.339 -18.546  0.00  0.00    -0.475 OA
BRANCH   7   8
ATOM      8  C   UNL     1      36.738 -21.829 -17.774  0.00  0.00    +0.207 C 
BRANCH   8   9
ATOM      9  C   UNL     1      36.561 -22.269 -16.326  0.00  0.00    +0.069 C 
BRANCH   9  10
ATOM     10  C   UNL     1      37.724 -23.109 -15.817  0.00  0.00    +0.093 C 
BRANCH  10  12
ATOM     11  O   UNL     1      39.495 -24.628 -14.099  0.00  0.00    -0.271 OA
ATOM     12  N   UNL     1      37.355 -23.947 -14.709  0.00  0.00    -0.301 N 
ATOM     13  C   UNL     1      38.278 -24.642 -13.936  0.00  0.00    +0.267 C 
ATOM     14  H   UNL     1      36.400 -24.033 -14.486  0.00  0.00    +0.150 HD
BRANCH  13  15
ATOM     15  C   UNL     1      37.609 -25.443 -12.839  0.00  0.00    +0.292 C 
BRANCH  15  16
ATOM     16  O   UNL     1      37.807 -24.832 -11.583  0.00  0.00    -0.438 OA
BRANCH  16  18
ATOM     17  O   UNL     1      37.227 -22.741 -10.788  0.00  0.00    -0.250 OA
ATOM     18  C   UNL     1      36.927 -23.833 -11.250  0.00  0.00    +0.318 C 
ATOM     19  C   UNL     1      35.520 -24.266 -11.533  0.00  0.00    +0.121 C 
ENDBRANCH  16  18
ENDBRANCH  15  16
ENDBRANCH  13  15
ENDBRANCH  10  12
ENDBRANCH   9  10
ENDBRANCH   8   9
ENDBRANCH   7   8
ENDBRANCH   4   7
BRANCH   1  20
ATOM     20  C   UNL     1      35.787 -18.614 -21.726  0.00  0.00    -0.050 C 
BRANCH  20  21
ATOM     21  N   UNL     1      34.956 -18.008 -22.766  0.00  0.00    +0.390 N 
ATOM     22  C   UNL     1      35.195 -16.560 -22.837  0.00  0.00    -0.077 C 
ATOM     23  C   UNL     1      35.204 -18.652 -24.063  0.00  0.00    -0.077 C 
ATOM     24  C   UNL     1      34.297 -15.903 -23.887  0.00  0.00    -0.023 C 
ATOM     25  C   UNL     1      34.307 -18.064 -25.153  0.00  0.00    -0.023 C 
ATOM     26  C   UNL     1      34.477 -16.552 -25.255  0.00  0.00    -0.004 C 
ATOM     27  H   UNL     1      33.975 -18.153 -22.526  0.00  0.00    -0.079 HD
ENDBRANCH  20  21
ENDBRANCH   1  20
TORSDOF 10
ENDMDL
MODEL 3
REMARK VINA RESULT:      -9.6      2.813      4.762
REMARK  Name = 5105
REMARK  10 active torsions:
REMARK  status: ('A' for Active; 'I' for Inactive)
REMARK    1  A    between atoms: C_1  and  C_20
REMARK    2  A    between atoms: C_4  and  O_7
REMARK    3  A    between atoms: O_7  and  C_8
REMARK    4  A    between atoms: C_8  and  C_9
REMARK    5  A    between atoms: C_9  and  C_10
REMARK    6  A    between atoms: C_10  and  N_12
REMARK    7  A    between atoms: C_13  and  C_15
REMARK    8  A    between atoms: C_15  and  O_16
REMARK    9  A    between atoms: O_16  and  C_18
REMARK   10  A    between atoms: C_20  and  N_21
REMARK                            x       y       z     vdW  Elec       q    Type
REMARK                         _______ _______ _______ _____ _____    ______ ____
ROOT
ATOM      1  C   UNL     1      35.016 -19.787 -20.798  0.00  0.00    -0.040 C 
ATOM      2  C   UNL     1      35.666 -20.700 -19.968  0.00  0.00    +0.031 C 
ATOM      3  C   UNL     1      33.622 -19.773 -20.863  0.00  0.00    -0.006 C 
ATOM      4  C   UNL     1      34.923 -21.598 -19.203  0.00  0.00    +0.138 C 
ATOM      5  C   UNL     1      32.880 -20.671 -20.097  0.00  0.00    +0.003 C 
ATOM      6  C   UNL     1      33.530 -21.584 -19.267  0.00  0.00    +0.037 C 
ENDROOT
BRANCH   4   7
ATOM      7  O   UNL     1      35.557 -22.488 -18.392  0.00  0.00    -0.475 OA
BRANCH   7   8
ATOM      8  C   UNL     1      36.512 -21.962 -17.471  0.00  0.00    +0.207 C 
BRANCH   8   9
ATOM      9  C   UNL     1      36.157 -22.440 -16.069  0.00  0.00    +0.069 C 
BRANCH   9  10
ATOM     10  C   UNL     1      35.181 -23.609 -16.073  0.00  0.00    +0.093 C 
BRANCH  10  12
ATOM     11  O   UNL     1      33.288 -24.206 -13.962  0.00  0.00    -0.271 OA
ATOM     12  N   UNL     1      33.811 -23.182 -15.985  0.00  0.00    -0.301 N 
ATOM     13  C   UNL     1      32.972 -23.519 -14.929  0.00  0.00    +0.267 C 
ATOM     14  H   UNL     1      33.448 -22.624 -16.710  0.00  0.00    +0.150 HD
BRANCH  13  15
ATOM     15  C   UNL     1      31.586 -22.933 -15.098  0.00  0.00    +0.292 C 
BRANCH  15  16
ATOM     16  O   UNL     1      30.938 -23.498 -16.216  0.00  0.00    -0.438 OA
BRANCH  16  18
ATOM     17  O   UNL     1      29.140 -22.301 -17.036  0.00  0.00    -0.250 OA
ATOM     18  C   UNL     1      29.605 -23.205 -16.355  0.00  0.00    +0.318 C 
ATOM     19  C   UNL     1      28.777 -24.157 -15.546  0.00  0.00    +0.121 C 
ENDBRANCH  16  18
ENDBRANCH  15  16
ENDBRANCH  13  15
ENDBRANCH  10  12
ENDBRANCH   9  10
ENDBRANCH   8   9
ENDBRANCH   7   8
ENDBRANCH   4   7
BRANCH   1  20
ATOM     20  C   UNL     1      35.817 -18.816 -21.624  0.00  0.00    -0.050 C 
BRANCH  20  21
ATOM     21  N   UNL     1      35.005 -18.187 -22.666  0.00  0.00    +0.390 N 
ATOM     22  C   UNL     1      35.306 -16.752 -22.758  0.00  0.00    -0.077 C 
ATOM     23  C   UNL     1      35.214 -18.858 -23.956  0.00  0.00    -0.077 C 
ATOM     24  C   UNL     1      34.430 -16.070 -23.810  0.00  0.00    -0.023 C 
ATOM     25  C   UNL     1      34.335 -18.245 -25.047  0.00  0.00    -0.023 C 
ATOM     26  C   UNL     1      34.569 -16.743 -25.170  0.00  0.00    -0.004 C 
ATOM     27  H   UNL     1      34.020 -18.286 -22.417  0.00  0.00    -0.079 HD
ENDBRANCH  20  21
ENDBRANCH   1  20
TORSDOF 10
ENDMDL
MODEL 4
REMARK VINA RESULT:      -9.5      1.262      1.429
REMARK  Name = 5105
REMARK  10 active torsions:
REMARK  status: ('A' for Active; 'I' for Inactive)
REMARK    1  A    between atoms: C_1  and  C_20
REMARK    2  A    between atoms: C_4  and  O_7
REMARK    3  A    between atoms: O_7  and  C_8
REMARK    4  A    between atoms: C_8  and  C_9
REMARK    5  A    between atoms: C_9  and  C_10
REMARK    6  A    between atoms: C_10  and  N_12
REMARK    7  A    between atoms: C_13  and  C_15
REMARK    8  A    between atoms: C_15  and  O_16
REMARK    9  A    between atoms: O_16  and  C_18
REMARK   10  A    between atoms: C_20  and  N_21
REMARK                            x       y       z     vdW  Elec       q    Type
REMARK                         _______ _______ _______ _____ _____    ______ ____
ROOT
ATOM      1  C   UNL     1      35.031 -19.605 -20.907  0.00  0.00    -0.040 C 
ATOM      2  C   UNL     1      35.713 -20.566 -20.162  0.00  0.00    +0.031 C 
ATOM      3  C   UNL     1      33.635 -19.584 -20.908  0.00  0.00    -0.006 C 
ATOM      4  C   UNL     1      35.001 -21.506 -19.418  0.00  0.00    +0.138 C 
ATOM      5  C   UNL     1      32.924 -20.525 -20.164  0.00  0.00    +0.003 C 
ATOM      6  C   UNL     1      33.607 -21.486 -19.419  0.00  0.00    +0.037 C 
ENDROOT
BRANCH   4   7
ATOM      7  O   UNL     1      35.667 -22.443 -18.690  0.00  0.00    -0.475 OA
BRANCH   7   8
ATOM      8  C   UNL     1      35.938 -22.133 -17.323  0.00  0.00    +0.207 C 
BRANCH   8   9
ATOM      9  C   UNL     1      35.218 -23.143 -16.438  0.00  0.00    +0.069 C 
BRANCH   9  10
ATOM     10  C   UNL     1      35.370 -22.842 -14.953  0.00  0.00    +0.093 C 
BRANCH  10  12
ATOM     11  O   UNL     1      37.766 -22.982 -13.331  0.00  0.00    -0.271 OA
ATOM     12  N   UNL     1      35.852 -23.973 -14.208  0.00  0.00    -0.301 N 
ATOM     13  C   UNL     1      37.019 -23.948 -13.454  0.00  0.00    +0.267 C 
ATOM     14  H   UNL     1      35.329 -24.806 -14.234  0.00  0.00    +0.150 HD
BRANCH  13  15
ATOM     15  C   UNL     1      37.283 -25.276 -12.776  0.00  0.00    +0.292 C 
BRANCH  15  16
ATOM     16  O   UNL     1      38.640 -25.641 -12.903  0.00  0.00    -0.438 OA
BRANCH  16  18
ATOM     17  O   UNL     1      38.450 -26.980 -14.777  0.00  0.00    -0.250 OA
ATOM     18  C   UNL     1      39.026 -26.115 -14.132  0.00  0.00    +0.318 C 
ATOM     19  C   UNL     1      40.273 -25.420 -14.588  0.00  0.00    +0.121 C 
ENDBRANCH  16  18
ENDBRANCH  15  16
ENDBRANCH  13  15
ENDBRANCH  10  12
ENDBRANCH   9  10
ENDBRANCH   8   9
ENDBRANCH   7   8
ENDBRANCH   4   7
BRANCH   1  20
ATOM     20  C   UNL     1      35.799 -18.588 -21.710  0.00  0.00    -0.050 C 
BRANCH  20  21
ATOM     21  N   UNL     1      34.971 -17.979 -22.751  0.00  0.00    +0.390 N 
ATOM     22  C   UNL     1      35.201 -16.529 -22.809  0.00  0.00    -0.077 C 
ATOM     23  C   UNL     1      35.234 -18.610 -24.052  0.00  0.00    -0.077 C 
ATOM     24  C   UNL     1      34.307 -15.869 -23.860  0.00  0.00    -0.023 C 
ATOM     25  C   UNL     1      34.341 -18.019 -25.143  0.00  0.00    -0.023 C 
ATOM     26  C   UNL     1      34.501 -16.505 -25.232  0.00  0.00    -0.004 C 
ATOM     27  H   UNL     1      33.990 -18.133 -22.520  0.00  0.00    -0.079 HD
ENDBRANCH  20  21
ENDBRANCH   1  20
TORSDOF 10
ENDMDL
MODEL 5
REMARK VINA RESULT:      -9.4      1.972      3.018
REMARK  Name = 5105
REMARK  10 active torsions:
REMARK  status: ('A' for Active; 'I' for Inactive)
REMARK    1  A    between atoms: C_1  and  C_20
REMARK    2  A    between atoms: C_4  and  O_7
REMARK    3  A    between atoms: O_7  and  C_8
REMARK    4  A    between atoms: C_8  and  C_9
REMARK    5  A    between atoms: C_9  and  C_10
REMARK    6  A    between atoms: C_10  and  N_12
REMARK    7  A    between atoms: C_13  and  C_15
REMARK    8  A    between atoms: C_15  and  O_16
REMARK    9  A    between atoms: O_16  and  C_18
REMARK   10  A    between atoms: C_20  and  N_21
REMARK                            x       y       z     vdW  Elec       q    Type
REMARK                         _______ _______ _______ _____ _____    ______ ____
ROOT
ATOM      1  C   UNL     1      34.654 -20.000 -21.227  0.00  0.00    -0.040 C 
ATOM      2  C   UNL     1      33.631 -20.691 -20.580  0.00  0.00    +0.031 C 
ATOM      3  C   UNL     1      35.967 -20.106 -20.767  0.00  0.00    -0.006 C 
ATOM      4  C   UNL     1      33.920 -21.490 -19.474  0.00  0.00    +0.138 C 
ATOM      5  C   UNL     1      36.255 -20.905 -19.661  0.00  0.00    +0.003 C 
ATOM      6  C   UNL     1      35.232 -21.597 -19.014  0.00  0.00    +0.037 C 
ENDROOT
BRANCH   4   7
ATOM      7  O   UNL     1      32.921 -22.166 -18.843  0.00  0.00    -0.475 OA
BRANCH   7   8
ATOM      8  C   UNL     1      33.283 -22.948 -17.706  0.00  0.00    +0.207 C 
BRANCH   8   9
ATOM      9  C   UNL     1      32.058 -23.118 -16.817  0.00  0.00    +0.069 C 
BRANCH   9  10
ATOM     10  C   UNL     1      32.408 -23.588 -15.411  0.00  0.00    +0.093 C 
BRANCH  10  12
ATOM     11  O   UNL     1      33.809 -24.305 -12.979  0.00  0.00    -0.271 OA
ATOM     12  N   UNL     1      33.797 -23.933 -15.276  0.00  0.00    -0.301 N 
ATOM     13  C   UNL     1      34.386 -24.266 -14.062  0.00  0.00    +0.267 C 
ATOM     14  H   UNL     1      34.358 -23.935 -16.084  0.00  0.00    +0.150 HD
BRANCH  13  15
ATOM     15  C   UNL     1      35.858 -24.586 -14.216  0.00  0.00    +0.292 C 
BRANCH  15  16
ATOM     16  O   UNL     1      36.098 -25.257 -15.434  0.00  0.00    -0.438 OA
BRANCH  16  18
ATOM     17  O   UNL     1      36.644 -27.367 -16.199  0.00  0.00    -0.250 OA
ATOM     18  C   UNL     1      36.670 -26.500 -15.337  0.00  0.00    +0.318 C 
ATOM     19  C   UNL     1      37.346 -26.658 -14.009  0.00  0.00    +0.121 C 
ENDBRANCH  16  18
ENDBRANCH  15  16
ENDBRANCH  13  15
ENDBRANCH  10  12
ENDBRANCH   9  10
ENDBRANCH   8   9
ENDBRANCH   7   8
ENDBRANCH   4   7
BRANCH   1  20
ATOM     20  C   UNL     1      34.343 -19.137 -22.422  0.00  0.00    -0.050 C 
BRANCH  20  21
ATOM     21  N   UNL     1      34.754 -17.749 -22.213  0.00  0.00    +0.390 N 
ATOM     22  C   UNL     1      34.524 -16.956 -23.428  0.00  0.00    -0.077 C 
ATOM     23  C   UNL     1      34.048 -17.171 -21.061  0.00  0.00    -0.077 C 
ATOM     24  C   UNL     1      34.994 -15.512 -23.243  0.00  0.00    -0.023 C 
ATOM     25  C   UNL     1      34.502 -15.735 -20.798  0.00  0.00    -0.023 C 
ATOM     26  C   UNL     1      34.327 -14.862 -22.036  0.00  0.00    -0.004 C 
ATOM     27  H   UNL     1      35.753 -17.731 -22.010  0.00  0.00    -0.079 HD
ENDBRANCH  20  21
ENDBRANCH   1  20
TORSDOF 10
ENDMDL
MODEL 6
REMARK VINA RESULT:      -9.2      6.513     12.328
REMARK  Name = 5105
REMARK  10 active torsions:
REMARK  status: ('A' for Active; 'I' for Inactive)
REMARK    1  A    between atoms: C_1  and  C_20
REMARK    2  A    between atoms: C_4  and  O_7
REMARK    3  A    between atoms: O_7  and  C_8
REMARK    4  A    between atoms: C_8  and  C_9
REMARK    5  A    between atoms: C_9  and  C_10
REMARK    6  A    between atoms: C_10  and  N_12
REMARK    7  A    between atoms: C_13  and  C_15
REMARK    8  A    between atoms: C_15  and  O_16
REMARK    9  A    between atoms: O_16  and  C_18
REMARK   10  A    between atoms: C_20  and  N_21
REMARK                            x       y       z     vdW  Elec       q    Type
REMARK                         _______ _______ _______ _____ _____    ______ ____
ROOT
ATOM      1  C   UNL     1      35.517 -18.270 -22.551  0.00  0.00    -0.040 C 
ATOM      2  C   UNL     1      35.399 -16.885 -22.439  0.00  0.00    +0.031 C 
ATOM      3  C   UNL     1      35.127 -18.911 -23.727  0.00  0.00    -0.006 C 
ATOM      4  C   UNL     1      34.890 -16.141 -23.503  0.00  0.00    +0.138 C 
ATOM      5  C   UNL     1      34.619 -18.166 -24.791  0.00  0.00    +0.003 C 
ATOM      6  C   UNL     1      34.500 -16.781 -24.679  0.00  0.00    +0.037 C 
ENDROOT
BRANCH   4   7
ATOM      7  O   UNL     1      34.776 -14.789 -23.395  0.00  0.00    -0.475 OA
BRANCH   7   8
ATOM      8  C   UNL     1      34.309 -14.274 -22.149  0.00  0.00    +0.207 C 
BRANCH   8   9
ATOM      9  C   UNL     1      32.808 -14.029 -22.250  0.00  0.00    +0.069 C 
BRANCH   9  10
ATOM     10  C   UNL     1      32.435 -13.124 -23.417  0.00  0.00    +0.093 C 
BRANCH  10  12
ATOM     11  O   UNL     1      33.944 -11.772 -25.488  0.00  0.00    -0.271 OA
ATOM     12  N   UNL     1      33.062 -11.833 -23.335  0.00  0.00    -0.301 N 
ATOM     13  C   UNL     1      33.770 -11.260 -24.385  0.00  0.00    +0.267 C 
ATOM     14  H   UNL     1      32.986 -11.330 -22.493  0.00  0.00    +0.150 HD
BRANCH  13  15
ATOM     15  C   UNL     1      34.320  -9.898 -24.020  0.00  0.00    +0.292 C 
BRANCH  15  16
ATOM     16  O   UNL     1      33.506  -9.274 -23.051  0.00  0.00    -0.438 OA
BRANCH  16  18
ATOM     17  O   UNL     1      33.015  -7.199 -22.162  0.00  0.00    -0.250 OA
ATOM     18  C   UNL     1      33.637  -7.913 -22.935  0.00  0.00    +0.318 C 
ATOM     19  C   UNL     1      34.665  -7.407 -23.901  0.00  0.00    +0.121 C 
ENDBRANCH  16  18
ENDBRANCH  15  16
ENDBRANCH  13  15
ENDBRANCH  10  12
ENDBRANCH   9  10
ENDBRANCH   8   9
ENDBRANCH   7   8
ENDBRANCH   4   7
BRANCH   1  20
ATOM     20  C   UNL     1      36.067 -19.074 -21.402  0.00  0.00    -0.050 C 
BRANCH  20  21
ATOM     21  N   UNL     1      35.166 -20.162 -21.020  0.00  0.00    +0.390 N 
ATOM     22  C   UNL     1      35.745 -20.946 -19.919  0.00  0.00    -0.077 C 
ATOM     23  C   UNL     1      33.845 -19.632 -20.657  0.00  0.00    -0.077 C 
ATOM     24  C   UNL     1      34.837 -22.118 -19.540  0.00  0.00    -0.023 C 
ATOM     25  C   UNL     1      32.876 -20.760 -20.302  0.00  0.00    -0.023 C 
ATOM     26  C   UNL     1      33.433 -21.640 -19.188  0.00  0.00    -0.004 C 
ATOM     27  H   UNL     1      35.047 -20.784 -21.820  0.00  0.00    -0.079 HD
ENDBRANCH  20  21
ENDBRANCH   1  20
TORSDOF 10
ENDMDL
MODEL 7
REMARK VINA RESULT:      -9.2      2.397      3.636
REMARK  Name = 5105
REMARK  10 active torsions:
REMARK  status: ('A' for Active; 'I' for Inactive)
REMARK    1  A    between atoms: C_1  and  C_20
REMARK    2  A    between atoms: C_4  and  O_7
REMARK    3  A    between atoms: O_7  and  C_8
REMARK    4  A    between atoms: C_8  and  C_9
REMARK    5  A    between atoms: C_9  and  C_10
REMARK    6  A    between atoms: C_10  and  N_12
REMARK    7  A    between atoms: C_13  and  C_15
REMARK    8  A    between atoms: C_15  and  O_16
REMARK    9  A    between atoms: O_16  and  C_18
REMARK   10  A    between atoms: C_20  and  N_21
REMARK                            x       y       z     vdW  Elec       q    Type
REMARK                         _______ _______ _______ _____ _____    ______ ____
ROOT
ATOM      1  C   UNL     1      34.858 -19.567 -20.956  0.00  0.00    -0.040 C 
ATOM      2  C   UNL     1      35.579 -20.521 -20.239  0.00  0.00    +0.031 C 
ATOM      3  C   UNL     1      33.463 -19.585 -20.935  0.00  0.00    -0.006 C 
ATOM      4  C   UNL     1      34.906 -21.494 -19.501  0.00  0.00    +0.138 C 
ATOM      5  C   UNL     1      32.791 -20.558 -20.196  0.00  0.00    +0.003 C 
ATOM      6  C   UNL     1      33.512 -21.512 -19.479  0.00  0.00    +0.037 C 
ENDROOT
BRANCH   4   7
ATOM      7  O   UNL     1      35.610 -22.424 -18.800  0.00  0.00    -0.475 OA
BRANCH   7   8
ATOM      8  C   UNL     1      35.542 -22.353 -17.376  0.00  0.00    +0.207 C 
BRANCH   8   9
ATOM      9  C   UNL     1      36.924 -22.006 -16.836  0.00  0.00    +0.069 C 
BRANCH   9  10
ATOM     10  C   UNL     1      37.340 -22.889 -15.666  0.00  0.00    +0.093 C 
BRANCH  10  12
ATOM     11  O   UNL     1      36.587 -22.958 -12.869  0.00  0.00    -0.271 OA
ATOM     12  N   UNL     1      36.228 -23.587 -15.081  0.00  0.00    -0.301 N 
ATOM     13  C   UNL     1      35.942 -23.563 -13.721  0.00  0.00    +0.267 C 
ATOM     14  H   UNL     1      35.639 -24.108 -15.673  0.00  0.00    +0.150 HD
BRANCH  13  15
ATOM     15  C   UNL     1      34.715 -24.385 -13.386  0.00  0.00    +0.292 C 
BRANCH  15  16
ATOM     16  O   UNL     1      33.853 -24.472 -14.500  0.00  0.00    -0.438 OA
BRANCH  16  18
ATOM     17  O   UNL     1      31.804 -25.391 -13.960  0.00  0.00    -0.250 OA
ATOM     18  C   UNL     1      32.509 -24.429 -14.230  0.00  0.00    +0.318 C 
ATOM     19  C   UNL     1      32.008 -23.019 -14.309  0.00  0.00    +0.121 C 
ENDBRANCH  16  18
ENDBRANCH  15  16
ENDBRANCH  13  15
ENDBRANCH  10  12
ENDBRANCH   9  10
ENDBRANCH   8   9
ENDBRANCH   7   8
ENDBRANCH   4   7
BRANCH   1  20
ATOM     20  C   UNL     1      35.585 -18.516 -21.754  0.00  0.00    -0.050 C 
BRANCH  20  21
ATOM     21  N   UNL     1      34.770 -17.316 -21.944  0.00  0.00    +0.390 N 
ATOM     22  C   UNL     1      34.915 -16.409 -20.797  0.00  0.00    -0.077 C 
ATOM     23  C   UNL     1      35.127 -16.645 -23.201  0.00  0.00    -0.077 C 
ATOM     24  C   UNL     1      34.031 -15.171 -20.957  0.00  0.00    -0.023 C 
ATOM     25  C   UNL     1      34.250 -15.416 -23.440  0.00  0.00    -0.023 C 
ATOM     26  C   UNL     1      34.323 -14.445 -22.266  0.00  0.00    -0.004 C 
ATOM     27  H   UNL     1      33.789 -17.593 -22.003  0.00  0.00    -0.079 HD
ENDBRANCH  20  21
ENDBRANCH   1  20
TORSDOF 10
ENDMDL
MODEL 8
REMARK VINA RESULT:      -9.2      3.798      5.758
REMARK  Name = 5105
REMARK  10 active torsions:
REMARK  status: ('A' for Active; 'I' for Inactive)
REMARK    1  A    between atoms: C_1  and  C_20
REMARK    2  A    between atoms: C_4  and  O_7
REMARK    3  A    between atoms: O_7  and  C_8
REMARK    4  A    between atoms: C_8  and  C_9
REMARK    5  A    between atoms: C_9  and  C_10
REMARK    6  A    between atoms: C_10  and  N_12
REMARK    7  A    between atoms: C_13  and  C_15
REMARK    8  A    between atoms: C_15  and  O_16
REMARK    9  A    between atoms: O_16  and  C_18
REMARK   10  A    between atoms: C_20  and  N_21
REMARK                            x       y       z     vdW  Elec       q    Type
REMARK                         _______ _______ _______ _____ _____    ______ ____
ROOT
ATOM      1  C   UNL     1      34.287 -20.236 -20.431  0.00  0.00    -0.040 C 
ATOM      2  C   UNL     1      33.649 -21.326 -19.839  0.00  0.00    +0.031 C 
ATOM      3  C   UNL     1      35.667 -20.078 -20.296  0.00  0.00    -0.006 C 
ATOM      4  C   UNL     1      34.390 -22.257 -19.113  0.00  0.00    +0.138 C 
ATOM      5  C   UNL     1      36.407 -21.010 -19.570  0.00  0.00    +0.003 C 
ATOM      6  C   UNL     1      35.769 -22.100 -18.978  0.00  0.00    +0.037 C 
ENDROOT
BRANCH   4   7
ATOM      7  O   UNL     1      33.767 -23.321 -18.536  0.00  0.00    -0.475 OA
BRANCH   7   8
ATOM      8  C   UNL     1      33.028 -23.073 -17.341  0.00  0.00    +0.207 C 
BRANCH   8   9
ATOM      9  C   UNL     1      33.904 -23.412 -16.142  0.00  0.00    +0.069 C 
BRANCH   9  10
ATOM     10  C   UNL     1      33.120 -23.483 -14.838  0.00  0.00    +0.093 C 
BRANCH  10  12
ATOM     11  O   UNL     1      31.358 -25.069 -13.174  0.00  0.00    -0.271 OA
ATOM     12  N   UNL     1      31.722 -23.742 -15.050  0.00  0.00    -0.301 N 
ATOM     13  C   UNL     1      30.951 -24.519 -14.194  0.00  0.00    +0.267 C 
ATOM     14  H   UNL     1      31.289 -23.349 -15.842  0.00  0.00    +0.150 HD
BRANCH  13  15
ATOM     15  C   UNL     1      29.515 -24.622 -14.661  0.00  0.00    +0.292 C 
BRANCH  15  16
ATOM     16  O   UNL     1      29.449 -24.642 -16.070  0.00  0.00    -0.438 OA
BRANCH  16  18
ATOM     17  O   UNL     1      27.731 -24.423 -17.600  0.00  0.00    -0.250 OA
ATOM     18  C   UNL     1      28.363 -24.019 -16.634  0.00  0.00    +0.318 C 
ATOM     19  C   UNL     1      28.049 -22.754 -15.895  0.00  0.00    +0.121 C 
ENDBRANCH  16  18
ENDBRANCH  15  16
ENDBRANCH  13  15
ENDBRANCH  10  12
ENDBRANCH   9  10
ENDBRANCH   8   9
ENDBRANCH   7   8
ENDBRANCH   4   7
BRANCH   1  20
ATOM     20  C   UNL     1      33.488 -19.229 -21.216  0.00  0.00    -0.050 C 
BRANCH  20  21
ATOM     21  N   UNL     1      34.348 -18.348 -22.006  0.00  0.00    +0.390 N 
ATOM     22  C   UNL     1      34.198 -18.632 -23.439  0.00  0.00    -0.077 C 
ATOM     23  C   UNL     1      34.051 -16.940 -21.709  0.00  0.00    -0.077 C 
ATOM     24  C   UNL     1      35.127 -17.752 -24.277  0.00  0.00    -0.023 C 
ATOM     25  C   UNL     1      34.975 -16.004 -22.490  0.00  0.00    -0.023 C 
ATOM     26  C   UNL     1      34.899 -16.272 -23.989  0.00  0.00    -0.004 C 
ATOM     27  H   UNL     1      35.320 -18.525 -21.750  0.00  0.00    -0.079 HD
ENDBRANCH  20  21
ENDBRANCH   1  20
TORSDOF 10
ENDMDL
MODEL 9
REMARK VINA RESULT:      -9.2      6.644     12.618
REMARK  Name = 5105
REMARK  10 active torsions:
REMARK  status: ('A' for Active; 'I' for Inactive)
REMARK    1  A    between atoms: C_1  and  C_20
REMARK    2  A    between atoms: C_4  and  O_7
REMARK    3  A    between atoms: O_7  and  C_8
REMARK    4  A    between atoms: C_8  and  C_9
REMARK    5  A    between atoms: C_9  and  C_10
REMARK    6  A    between atoms: C_10  and  N_12
REMARK    7  A    between atoms: C_13  and  C_15
REMARK    8  A    between atoms: C_15  and  O_16
REMARK    9  A    between atoms: O_16  and  C_18
REMARK   10  A    between atoms: C_20  and  N_21
REMARK                            x       y       z     vdW  Elec       q    Type
REMARK                         _______ _______ _______ _____ _____    ______ ____
ROOT
ATOM      1  C   UNL     1      35.313 -18.178 -22.768  0.00  0.00    -0.040 C 
ATOM      2  C   UNL     1      35.051 -16.814 -22.883  0.00  0.00    +0.031 C 
ATOM      3  C   UNL     1      35.050 -19.033 -23.839  0.00  0.00    -0.006 C 
ATOM      4  C   UNL     1      34.525 -16.303 -24.069  0.00  0.00    +0.138 C 
ATOM      5  C   UNL     1      34.524 -18.521 -25.025  0.00  0.00    +0.003 C 
ATOM      6  C   UNL     1      34.262 -17.156 -25.140  0.00  0.00    +0.037 C 
ENDROOT
BRANCH   4   7
ATOM      7  O   UNL     1      34.270 -14.971 -24.183  0.00  0.00    -0.475 OA
BRANCH   7   8
ATOM      8  C   UNL     1      34.154 -14.226 -22.971  0.00  0.00    +0.207 C 
BRANCH   8   9
ATOM      9  C   UNL     1      33.203 -13.058 -23.202  0.00  0.00    +0.069 C 
BRANCH   9  10
ATOM     10  C   UNL     1      33.819 -11.954 -24.051  0.00  0.00    +0.093 C 
BRANCH  10  12
ATOM     11  O   UNL     1      35.195  -9.404 -24.049  0.00  0.00    -0.271 OA
ATOM     12  N   UNL     1      33.258 -10.662 -23.763  0.00  0.00    -0.301 N 
ATOM     13  C   UNL     1      33.999  -9.485 -23.787  0.00  0.00    +0.267 C 
ATOM     14  H   UNL     1      32.301 -10.607 -23.539  0.00  0.00    +0.150 HD
BRANCH  13  15
ATOM     15  C   UNL     1      33.153  -8.277 -23.446  0.00  0.00    +0.292 C 
BRANCH  15  16
ATOM     16  O   UNL     1      33.459  -7.802 -22.153  0.00  0.00    -0.438 OA
BRANCH  16  18
ATOM     17  O   UNL     1      32.017  -9.249 -21.075  0.00  0.00    -0.250 OA
ATOM     18  C   UNL     1      32.599  -8.176 -21.151  0.00  0.00    +0.318 C 
ATOM     19  C   UNL     1      32.466  -7.076 -20.143  0.00  0.00    +0.121 C 
ENDBRANCH  16  18
ENDBRANCH  15  16
ENDBRANCH  13  15
ENDBRANCH  10  12
ENDBRANCH   9  10
ENDBRANCH   8   9
ENDBRANCH   7   8
ENDBRANCH   4   7
BRANCH   1  20
ATOM     20  C   UNL     1      35.881 -18.731 -21.487  0.00  0.00    -0.050 C 
BRANCH  20  21
ATOM     21  N   UNL     1      35.198 -19.956 -21.072  0.00  0.00    +0.390 N 
ATOM     22  C   UNL     1      35.953 -20.632 -20.009  0.00  0.00    -0.077 C 
ATOM     23  C   UNL     1      33.825 -19.658 -20.641  0.00  0.00    -0.077 C 
ATOM     24  C   UNL     1      35.277 -21.941 -19.597  0.00  0.00    -0.023 C 
ATOM     25  C   UNL     1      33.079 -20.934 -20.250  0.00  0.00    -0.023 C 
ATOM     26  C   UNL     1      33.831 -21.709 -19.173  0.00  0.00    -0.004 C 
ATOM     27  H   UNL     1      35.145 -20.588 -21.871  0.00  0.00    -0.079 HD
ENDBRANCH  20  21
ENDBRANCH   1  20
TORSDOF 10
ENDMDL
