MODEL 1
REMARK VINA RESULT:     -10.5      0.000      0.000
REMARK  Name = 6852201
REMARK  12 active torsions:
REMARK  status: ('A' for Active; 'I' for Inactive)
REMARK    1  A    between atoms: N_4  and  C_15
REMARK    2  A    between atoms: C_6  and  O_33
REMARK    3  A    between atoms: C_14  and  S_20
REMARK    4  A    between atoms: S_20  and  C_23
REMARK    5  A    between atoms: C_23  and  C_24
REMARK    6  A    between atoms: C_24  and  N_25
REMARK    7  A    between atoms: N_25  and  C_28
REMARK    8  A    between atoms: C_28  and  C_29
REMARK    9  A    between atoms: C_29  and  C_30
REMARK   10  A    between atoms: C_30  and  O_31
REMARK   11  A    between atoms: O_33  and  C_34
REMARK   12  A    between atoms: C_34  and  C_35
REMARK                            x       y       z     vdW  Elec       q    Type
REMARK                         _______ _______ _______ _____ _____    ______ ____
ROOT
ATOM      1  N   UNL     1      33.823 -22.656 -16.459  0.00  0.00    -0.293 NA
ATOM      2  N   UNL     1      32.912 -24.620 -13.487  0.00  0.00    -0.266 NA
ATOM      3  N   UNL     1      31.629 -23.714 -16.597  0.00  0.00    -0.316 NA
ATOM      4  N   UNL     1      32.461 -22.405 -18.349  0.00  0.00    -0.238 N 
ATOM      5  N   UNL     1      31.036 -25.009 -14.627  0.00  0.00    -0.296 N 
ATOM      6  C   UNL     1      34.040 -23.165 -15.225  0.00  0.00    +0.288 C 
ATOM      7  C   UNL     1      33.051 -23.952 -14.670  0.00  0.00    +0.215 C 
ATOM      8  C   UNL     1      31.875 -24.209 -15.360  0.00  0.00    +0.196 C 
ATOM      9  C   UNL     1      32.647 -22.958 -17.060  0.00  0.00    +0.207 C 
ATOM     10  C   UNL     1      31.688 -25.237 -13.507  0.00  0.00    +0.164 C 
ATOM     11  H   UNL     1      33.568 -24.651 -12.754  0.00  0.00    +0.126 HD
ATOM     12  H   UNL     1      31.599 -22.641 -18.760  0.00  0.00    +0.166 HD
ATOM     13  H   UNL     1      30.144 -25.339 -14.881  0.00  0.00    +0.150 HD
ENDROOT
BRANCH   4  15
ATOM     14  C   UNL     1      34.868 -19.955 -20.759  0.00  0.00    +0.106 C 
ATOM     15  C   UNL     1      33.268 -21.584 -19.156  0.00  0.00    +0.059 C 
ATOM     16  C   UNL     1      33.495 -19.719 -20.675  0.00  0.00    +0.020 C 
ATOM     17  C   UNL     1      35.440 -21.006 -20.042  0.00  0.00    +0.020 C 
ATOM     18  C   UNL     1      32.696 -20.534 -19.873  0.00  0.00    +0.017 C 
ATOM     19  C   UNL     1      34.640 -21.820 -19.240  0.00  0.00    +0.017 C 
BRANCH  14  20
ATOM     20  S   UNL     1      35.870 -18.935 -21.760  0.00  0.00    +0.007 S 
ATOM     21  O   UNL     1      37.249 -19.092 -21.321  0.00  0.00    -0.169 OA
ATOM     22  O   UNL     1      35.525 -19.160 -23.157  0.00  0.00    -0.169 OA
BRANCH  20  23
ATOM     23  C   UNL     1      35.355 -17.280 -21.360  0.00  0.00    +0.133 C 
BRANCH  23  24
ATOM     24  C   UNL     1      34.481 -16.694 -22.456  0.00  0.00    -0.056 C 
BRANCH  24  25
ATOM     25  N   UNL     1      35.277 -16.342 -23.626  0.00  0.00    +0.385 N 
ATOM     26  H   UNL     1      35.921 -17.106 -23.834  0.00  0.00    -0.084 HD
ATOM     27  H   UNL     1      35.793 -15.486 -23.423  0.00  0.00    -0.084 HD
BRANCH  25  28
ATOM     28  C   UNL     1      34.425 -16.109 -24.784  0.00  0.00    -0.079 C 
BRANCH  28  29
ATOM     29  C   UNL     1      33.499 -14.923 -24.528  0.00  0.00    +0.008 C 
BRANCH  29  30
ATOM     30  C   UNL     1      33.027 -14.293 -25.831  0.00  0.00    +0.135 C 
BRANCH  30  31
ATOM     31  O   UNL     1      33.439 -15.114 -26.915  0.00  0.00    -0.382 OA
ATOM     32  H   UNL     1      34.403 -15.214 -26.896  0.00  0.00    +0.210 HD
ENDBRANCH  30  31
ENDBRANCH  29  30
ENDBRANCH  28  29
ENDBRANCH  25  28
ENDBRANCH  24  25
ENDBRANCH  23  24
ENDBRANCH  20  23
ENDBRANCH  14  20
ENDBRANCH   4  15
BRANCH   6  33
ATOM     33  O   UNL     1      35.222 -22.879 -14.588  0.00  0.00    -0.453 OA
BRANCH  33  34
ATOM     34  C   UNL     1      36.414 -23.070 -15.327  0.00  0.00    +0.208 C 
BRANCH  34  35
ATOM     35  C   UNL     1      37.462 -23.689 -14.404  0.00  0.00    +0.044 C 
ATOM     36  C   UNL     1      37.774 -25.130 -14.827  0.00  0.00    +0.004 C 
ATOM     37  C   UNL     1      36.996 -23.638 -12.943  0.00  0.00    +0.004 C 
ATOM     38  C   UNL     1      38.781 -25.789 -13.886  0.00  0.00    +0.000 C 
ATOM     39  C   UNL     1      38.005 -24.298 -12.006  0.00  0.00    +0.000 C 
ATOM     40  C   UNL     1      38.318 -25.728 -12.434  0.00  0.00    +0.000 C 
ENDBRANCH  34  35
ENDBRANCH  33  34
ENDBRANCH   6  33
TORSDOF 12
ENDMDL
MODEL 2
REMARK VINA RESULT:     -10.3      2.277      4.678
REMARK  Name = 6852201
REMARK  12 active torsions:
REMARK  status: ('A' for Active; 'I' for Inactive)
REMARK    1  A    between atoms: N_4  and  C_15
REMARK    2  A    between atoms: C_6  and  O_33
REMARK    3  A    between atoms: C_14  and  S_20
REMARK    4  A    between atoms: S_20  and  C_23
REMARK    5  A    between atoms: C_23  and  C_24
REMARK    6  A    between atoms: C_24  and  N_25
REMARK    7  A    between atoms: N_25  and  C_28
REMARK    8  A    between atoms: C_28  and  C_29
REMARK    9  A    between atoms: C_29  and  C_30
REMARK   10  A    between atoms: C_30  and  O_31
REMARK   11  A    between atoms: O_33  and  C_34
REMARK   12  A    between atoms: C_34  and  C_35
REMARK                            x       y       z     vdW  Elec       q    Type
REMARK                         _______ _______ _______ _____ _____    ______ ____
ROOT
ATOM      1  N   UNL     1      35.527 -23.385 -16.024  0.00  0.00    -0.293 NA
ATOM      2  N   UNL     1      36.070 -25.471 -13.045  0.00  0.00    -0.266 NA
ATOM      3  N   UNL     1      37.864 -23.573 -15.351  0.00  0.00    -0.316 NA
ATOM      4  N   UNL     1      37.232 -22.306 -17.214  0.00  0.00    -0.238 N 
ATOM      5  N   UNL     1      38.212 -24.954 -13.382  0.00  0.00    -0.296 N 
ATOM      6  C   UNL     1      35.123 -24.175 -15.005  0.00  0.00    +0.288 C 
ATOM      7  C   UNL     1      36.089 -24.670 -14.151  0.00  0.00    +0.215 C 
ATOM      8  C   UNL     1      37.429 -24.362 -14.339  0.00  0.00    +0.196 C 
ATOM      9  C   UNL     1      36.854 -23.137 -16.133  0.00  0.00    +0.207 C 
ATOM     10  C   UNL     1      37.365 -25.614 -12.621  0.00  0.00    +0.164 C 
ATOM     11  H   UNL     1      35.273 -25.873 -12.631  0.00  0.00    +0.126 HD
ATOM     12  H   UNL     1      38.201 -22.143 -17.268  0.00  0.00    +0.166 HD
ATOM     13  H   UNL     1      39.191 -24.899 -13.285  0.00  0.00    +0.150 HD
ENDROOT
BRANCH   4  15
ATOM     14  C   UNL     1      35.029 -20.402 -20.235  0.00  0.00    +0.106 C 
ATOM     15  C   UNL     1      36.494 -21.669 -18.226  0.00  0.00    +0.059 C 
ATOM     16  C   UNL     1      36.367 -20.065 -20.030  0.00  0.00    +0.020 C 
ATOM     17  C   UNL     1      34.424 -21.372 -19.436  0.00  0.00    +0.020 C 
ATOM     18  C   UNL     1      37.099 -20.699 -19.026  0.00  0.00    +0.017 C 
ATOM     19  C   UNL     1      35.156 -22.006 -18.432  0.00  0.00    +0.017 C 
BRANCH  14  20
ATOM     20  S   UNL     1      34.113 -19.612 -21.493  0.00  0.00    +0.007 S 
ATOM     21  O   UNL     1      34.824 -19.797 -22.750  0.00  0.00    -0.169 OA
ATOM     22  O   UNL     1      32.717 -20.016 -21.385  0.00  0.00    -0.169 OA
BRANCH  20  23
ATOM     23  C   UNL     1      34.186 -17.884 -21.074  0.00  0.00    +0.133 C 
BRANCH  23  24
ATOM     24  C   UNL     1      35.189 -17.148 -21.945  0.00  0.00    -0.056 C 
BRANCH  24  25
ATOM     25  N   UNL     1      34.609 -16.812 -23.239  0.00  0.00    +0.385 N 
ATOM     26  H   UNL     1      33.628 -17.091 -23.249  0.00  0.00    -0.084 HD
ATOM     27  H   UNL     1      35.127 -17.304 -23.967  0.00  0.00    -0.084 HD
BRANCH  25  28
ATOM     28  C   UNL     1      34.699 -15.380 -23.493  0.00  0.00    -0.079 C 
BRANCH  28  29
ATOM     29  C   UNL     1      33.318 -14.811 -23.805  0.00  0.00    +0.008 C 
BRANCH  29  30
ATOM     30  C   UNL     1      32.744 -14.054 -22.615  0.00  0.00    +0.135 C 
BRANCH  30  31
ATOM     31  O   UNL     1      32.208 -14.990 -21.690  0.00  0.00    -0.382 OA
ATOM     32  H   UNL     1      31.264 -15.119 -21.871  0.00  0.00    +0.210 HD
ENDBRANCH  30  31
ENDBRANCH  29  30
ENDBRANCH  28  29
ENDBRANCH  25  28
ENDBRANCH  24  25
ENDBRANCH  23  24
ENDBRANCH  20  23
ENDBRANCH  14  20
ENDBRANCH   4  15
BRANCH   6  33
ATOM     33  O   UNL     1      33.784 -24.447 -14.865  0.00  0.00    -0.453 OA
BRANCH  33  34
ATOM     34  C   UNL     1      33.069 -23.684 -13.912  0.00  0.00    +0.208 C 
BRANCH  34  35
ATOM     35  C   UNL     1      31.595 -23.667 -14.312  0.00  0.00    +0.044 C 
ATOM     36  C   UNL     1      30.979 -25.065 -14.173  0.00  0.00    +0.004 C 
ATOM     37  C   UNL     1      31.429 -23.137 -15.743  0.00  0.00    +0.004 C 
ATOM     38  C   UNL     1      29.518 -25.085 -14.619  0.00  0.00    +0.000 C 
ATOM     39  C   UNL     1      29.967 -23.159 -16.185  0.00  0.00    +0.000 C 
ATOM     40  C   UNL     1      29.355 -24.548 -16.037  0.00  0.00    +0.000 C 
ENDBRANCH  34  35
ENDBRANCH  33  34
ENDBRANCH   6  33
TORSDOF 12
ENDMDL
MODEL 3
REMARK VINA RESULT:     -10.2      3.470     11.204
REMARK  Name = 6852201
REMARK  12 active torsions:
REMARK  status: ('A' for Active; 'I' for Inactive)
REMARK    1  A    between atoms: N_4  and  C_15
REMARK    2  A    between atoms: C_6  and  O_33
REMARK    3  A    between atoms: C_14  and  S_20
REMARK    4  A    between atoms: S_20  and  C_23
REMARK    5  A    between atoms: C_23  and  C_24
REMARK    6  A    between atoms: C_24  and  N_25
REMARK    7  A    between atoms: N_25  and  C_28
REMARK    8  A    between atoms: C_28  and  C_29
REMARK    9  A    between atoms: C_29  and  C_30
REMARK   10  A    between atoms: C_30  and  O_31
REMARK   11  A    between atoms: O_33  and  C_34
REMARK   12  A    between atoms: C_34  and  C_35
REMARK                            x       y       z     vdW  Elec       q    Type
REMARK                         _______ _______ _______ _____ _____    ______ ____
ROOT
ATOM      1  N   UNL     1      34.796 -18.401 -20.972  0.00  0.00    -0.293 NA
ATOM      2  N   UNL     1      34.652 -15.728 -23.492  0.00  0.00    -0.266 NA
ATOM      3  N   UNL     1      35.221 -19.156 -23.252  0.00  0.00    -0.316 NA
ATOM      4  N   UNL     1      35.250 -20.649 -21.450  0.00  0.00    -0.238 N 
ATOM      5  N   UNL     1      35.124 -17.381 -24.910  0.00  0.00    -0.296 N 
ATOM      6  C   UNL     1      34.626 -17.123 -21.379  0.00  0.00    +0.288 C 
ATOM      7  C   UNL     1      34.752 -16.855 -22.727  0.00  0.00    +0.215 C 
ATOM      8  C   UNL     1      35.045 -17.868 -23.630  0.00  0.00    +0.196 C 
ATOM      9  C   UNL     1      35.079 -19.326 -21.920  0.00  0.00    +0.207 C 
ATOM     10  C   UNL     1      34.884 -16.093 -24.792  0.00  0.00    +0.164 C 
ATOM     11  H   UNL     1      34.452 -14.820 -23.169  0.00  0.00    +0.126 HD
ATOM     12  H   UNL     1      35.455 -21.298 -22.160  0.00  0.00    +0.166 HD
ATOM     13  H   UNL     1      35.318 -17.884 -25.734  0.00  0.00    +0.150 HD
ENDROOT
BRANCH   4  15
ATOM     14  C   UNL     1      35.057 -22.346 -17.617  0.00  0.00    +0.106 C 
ATOM     15  C   UNL     1      35.185 -21.217 -20.166  0.00  0.00    +0.059 C 
ATOM     16  C   UNL     1      36.259 -21.812 -18.084  0.00  0.00    +0.020 C 
ATOM     17  C   UNL     1      33.920 -22.315 -18.425  0.00  0.00    +0.020 C 
ATOM     18  C   UNL     1      36.322 -21.247 -19.359  0.00  0.00    +0.017 C 
ATOM     19  C   UNL     1      33.984 -21.751 -19.699  0.00  0.00    +0.017 C 
BRANCH  14  20
ATOM     20  S   UNL     1      34.976 -23.050 -16.023  0.00  0.00    +0.007 S 
ATOM     21  O   UNL     1      33.727 -22.624 -15.407  0.00  0.00    -0.169 OA
ATOM     22  O   UNL     1      35.289 -24.469 -16.117  0.00  0.00    -0.169 OA
BRANCH  20  23
ATOM     23  C   UNL     1      36.312 -22.283 -15.132  0.00  0.00    +0.133 C 
BRANCH  23  24
ATOM     24  C   UNL     1      37.189 -23.321 -14.452  0.00  0.00    -0.056 C 
BRANCH  24  25
ATOM     25  N   UNL     1      38.079 -23.962 -15.413  0.00  0.00    +0.385 N 
ATOM     26  H   UNL     1      38.731 -23.268 -15.778  0.00  0.00    -0.084 HD
ATOM     27  H   UNL     1      37.516 -24.354 -16.167  0.00  0.00    -0.084 HD
BRANCH  25  28
ATOM     28  C   UNL     1      38.832 -25.039 -14.785  0.00  0.00    -0.079 C 
BRANCH  28  29
ATOM     29  C   UNL     1      37.946 -25.801 -13.804  0.00  0.00    +0.008 C 
BRANCH  29  30
ATOM     30  C   UNL     1      37.257 -26.982 -14.474  0.00  0.00    +0.135 C 
BRANCH  30  31
ATOM     31  O   UNL     1      37.208 -26.750 -15.875  0.00  0.00    -0.382 OA
ATOM     32  H   UNL     1      37.095 -27.594 -16.339  0.00  0.00    +0.210 HD
ENDBRANCH  30  31
ENDBRANCH  29  30
ENDBRANCH  28  29
ENDBRANCH  25  28
ENDBRANCH  24  25
ENDBRANCH  23  24
ENDBRANCH  20  23
ENDBRANCH  14  20
ENDBRANCH   4  15
BRANCH   6  33
ATOM     33  O   UNL     1      34.337 -16.161 -20.443  0.00  0.00    -0.453 OA
BRANCH  33  34
ATOM     34  C   UNL     1      32.997 -15.708 -20.377  0.00  0.00    +0.208 C 
BRANCH  34  35
ATOM     35  C   UNL     1      32.961 -14.241 -20.800  0.00  0.00    +0.044 C 
ATOM     36  C   UNL     1      32.147 -13.410 -19.799  0.00  0.00    +0.004 C 
ATOM     37  C   UNL     1      32.392 -14.100 -22.218  0.00  0.00    +0.004 C 
ATOM     38  C   UNL     1      32.050 -11.947 -20.229  0.00  0.00    +0.000 C 
ATOM     39  C   UNL     1      32.296 -12.636 -22.643  0.00  0.00    +0.000 C 
ATOM     40  C   UNL     1      31.494 -11.811 -21.642  0.00  0.00    +0.000 C 
ENDBRANCH  34  35
ENDBRANCH  33  34
ENDBRANCH   6  33
TORSDOF 12
ENDMDL
MODEL 4
REMARK VINA RESULT:      -9.9      2.824     11.249
REMARK  Name = 6852201
REMARK  12 active torsions:
REMARK  status: ('A' for Active; 'I' for Inactive)
REMARK    1  A    between atoms: N_4  and  C_15
REMARK    2  A    between atoms: C_6  and  O_33
REMARK    3  A    between atoms: C_14  and  S_20
REMARK    4  A    between atoms: S_20  and  C_23
REMARK    5  A    between atoms: C_23  and  C_24
REMARK    6  A    between atoms: C_24  and  N_25
REMARK    7  A    between atoms: N_25  and  C_28
REMARK    8  A    between atoms: C_28  and  C_29
REMARK    9  A    between atoms: C_29  and  C_30
REMARK   10  A    between atoms: C_30  and  O_31
REMARK   11  A    between atoms: O_33  and  C_34
REMARK   12  A    between atoms: C_34  and  C_35
REMARK                            x       y       z     vdW  Elec       q    Type
REMARK                         _______ _______ _______ _____ _____    ______ ____
ROOT
ATOM      1  N   UNL     1      34.882 -18.476 -21.125  0.00  0.00    -0.293 NA
ATOM      2  N   UNL     1      34.487 -15.951 -23.768  0.00  0.00    -0.266 NA
ATOM      3  N   UNL     1      35.013 -19.374 -23.389  0.00  0.00    -0.316 NA
ATOM      4  N   UNL     1      35.230 -20.760 -21.516  0.00  0.00    -0.238 N 
ATOM      5  N   UNL     1      34.751 -17.697 -25.129  0.00  0.00    -0.296 N 
ATOM      6  C   UNL     1      34.689 -17.220 -21.586  0.00  0.00    +0.288 C 
ATOM      7  C   UNL     1      34.657 -17.034 -22.954  0.00  0.00    +0.215 C 
ATOM      8  C   UNL     1      34.817 -18.106 -23.821  0.00  0.00    +0.196 C 
ATOM      9  C   UNL     1      35.030 -19.462 -22.042  0.00  0.00    +0.207 C 
ATOM     10  C   UNL     1      34.553 -16.398 -25.062  0.00  0.00    +0.164 C 
ATOM     11  H   UNL     1      34.346 -15.021 -23.480  0.00  0.00    +0.126 HD
ATOM     12  H   UNL     1      35.334 -21.455 -22.205  0.00  0.00    +0.166 HD
ATOM     13  H   UNL     1      34.834 -18.252 -25.938  0.00  0.00    +0.150 HD
ENDROOT
BRANCH   4  15
ATOM     14  C   UNL     1      35.469 -22.224 -17.591  0.00  0.00    +0.106 C 
ATOM     15  C   UNL     1      35.309 -21.250 -20.201  0.00  0.00    +0.059 C 
ATOM     16  C   UNL     1      36.586 -21.637 -18.186  0.00  0.00    +0.020 C 
ATOM     17  C   UNL     1      34.273 -22.325 -18.301  0.00  0.00    +0.020 C 
ATOM     18  C   UNL     1      36.506 -21.150 -19.491  0.00  0.00    +0.017 C 
ATOM     19  C   UNL     1      34.192 -21.837 -19.606  0.00  0.00    +0.017 C 
BRANCH  14  20
ATOM     20  S   UNL     1      35.567 -22.832 -15.958  0.00  0.00    +0.007 S 
ATOM     21  O   UNL     1      36.299 -24.091 -15.991  0.00  0.00    -0.169 OA
ATOM     22  O   UNL     1      36.014 -21.759 -15.080  0.00  0.00    -0.169 OA
BRANCH  20  23
ATOM     23  C   UNL     1      33.881 -23.194 -15.518  0.00  0.00    +0.133 C 
BRANCH  23  24
ATOM     24  C   UNL     1      33.810 -24.044 -14.261  0.00  0.00    -0.056 C 
BRANCH  24  25
ATOM     25  N   UNL     1      34.610 -23.461 -13.191  0.00  0.00    +0.385 N 
ATOM     26  H   UNL     1      33.997 -22.958 -12.550  0.00  0.00    -0.084 HD
ATOM     27  H   UNL     1      35.292 -22.826 -13.604  0.00  0.00    -0.084 HD
BRANCH  25  28
ATOM     28  C   UNL     1      35.324 -24.495 -12.455  0.00  0.00    -0.079 C 
BRANCH  28  29
ATOM     29  C   UNL     1      36.401 -23.869 -11.574  0.00  0.00    +0.008 C 
BRANCH  29  30
ATOM     30  C   UNL     1      37.788 -24.041 -12.179  0.00  0.00    +0.135 C 
BRANCH  30  31
ATOM     31  O   UNL     1      37.844 -23.331 -13.408  0.00  0.00    -0.382 OA
ATOM     32  H   UNL     1      36.952 -23.043 -13.656  0.00  0.00    +0.210 HD
ENDBRANCH  30  31
ENDBRANCH  29  30
ENDBRANCH  28  29
ENDBRANCH  25  28
ENDBRANCH  24  25
ENDBRANCH  23  24
ENDBRANCH  20  23
ENDBRANCH  14  20
ENDBRANCH   4  15
BRANCH   6  33
ATOM     33  O   UNL     1      34.535 -16.198 -20.683  0.00  0.00    -0.453 OA
BRANCH  33  34
ATOM     34  C   UNL     1      33.214 -15.756 -20.429  0.00  0.00    +0.208 C 
BRANCH  34  35
ATOM     35  C   UNL     1      33.098 -14.298 -20.868  0.00  0.00    +0.044 C 
ATOM     36  C   UNL     1      32.259 -13.496 -19.864  0.00  0.00    +0.004 C 
ATOM     37  C   UNL     1      32.501 -14.203 -22.278  0.00  0.00    +0.004 C 
ATOM     38  C   UNL     1      32.083 -12.045 -20.309  0.00  0.00    +0.000 C 
ATOM     39  C   UNL     1      32.326 -12.751 -22.719  0.00  0.00    +0.000 C 
ATOM     40  C   UNL     1      31.499 -11.954 -21.715  0.00  0.00    +0.000 C 
ENDBRANCH  34  35
ENDBRANCH  33  34
ENDBRANCH   6  33
TORSDOF 12
ENDMDL
MODEL 5
REMARK VINA RESULT:      -9.5      4.174      9.397
REMARK  Name = 6852201
REMARK  12 active torsions:
REMARK  status: ('A' for Active; 'I' for Inactive)
REMARK    1  A    between atoms: N_4  and  C_15
REMARK    2  A    between atoms: C_6  and  O_33
REMARK    3  A    between atoms: C_14  and  S_20
REMARK    4  A    between atoms: S_20  and  C_23
REMARK    5  A    between atoms: C_23  and  C_24
REMARK    6  A    between atoms: C_24  and  N_25
REMARK    7  A    between atoms: N_25  and  C_28
REMARK    8  A    between atoms: C_28  and  C_29
REMARK    9  A    between atoms: C_29  and  C_30
REMARK   10  A    between atoms: C_30  and  O_31
REMARK   11  A    between atoms: O_33  and  C_34
REMARK   12  A    between atoms: C_34  and  C_35
REMARK                            x       y       z     vdW  Elec       q    Type
REMARK                         _______ _______ _______ _____ _____    ______ ____
ROOT
ATOM      1  N   UNL     1      32.677 -23.330 -16.274  0.00  0.00    -0.293 NA
ATOM      2  N   UNL     1      29.241 -22.349 -17.141  0.00  0.00    -0.266 NA
ATOM      3  N   UNL     1      31.015 -23.932 -14.594  0.00  0.00    -0.316 NA
ATOM      4  N   UNL     1      33.281 -24.436 -14.300  0.00  0.00    -0.238 N 
ATOM      5  N   UNL     1      28.747 -23.280 -15.177  0.00  0.00    -0.296 N 
ATOM      6  C   UNL     1      31.737 -22.775 -17.071  0.00  0.00    +0.288 C 
ATOM      7  C   UNL     1      30.428 -22.796 -16.633  0.00  0.00    +0.215 C 
ATOM      8  C   UNL     1      30.095 -23.369 -15.413  0.00  0.00    +0.196 C 
ATOM      9  C   UNL     1      32.264 -23.867 -15.102  0.00  0.00    +0.207 C 
ATOM     10  C   UNL     1      28.263 -22.663 -16.234  0.00  0.00    +0.164 C 
ATOM     11  H   UNL     1      29.112 -21.889 -18.001  0.00  0.00    +0.126 HD
ATOM     12  H   UNL     1      32.951 -24.818 -13.455  0.00  0.00    +0.166 HD
ATOM     13  H   UNL     1      28.250 -23.606 -14.391  0.00  0.00    +0.150 HD
ENDROOT
BRANCH   4  15
ATOM     14  C   UNL     1      37.426 -24.816 -14.824  0.00  0.00    +0.106 C 
ATOM     15  C   UNL     1      34.670 -24.564 -14.475  0.00  0.00    +0.059 C 
ATOM     16  C   UNL     1      36.832 -23.555 -14.856  0.00  0.00    +0.020 C 
ATOM     17  C   UNL     1      36.642 -25.952 -14.617  0.00  0.00    +0.020 C 
ATOM     18  C   UNL     1      35.453 -23.429 -14.681  0.00  0.00    +0.017 C 
ATOM     19  C   UNL     1      35.264 -25.826 -14.442  0.00  0.00    +0.017 C 
BRANCH  14  20
ATOM     20  S   UNL     1      39.151 -24.975 -15.041  0.00  0.00    +0.007 S 
ATOM     21  O   UNL     1      39.414 -26.298 -15.589  0.00  0.00    -0.169 OA
ATOM     22  O   UNL     1      39.651 -23.794 -15.730  0.00  0.00    -0.169 OA
BRANCH  20  23
ATOM     23  C   UNL     1      39.810 -24.929 -13.389  0.00  0.00    +0.133 C 
BRANCH  23  24
ATOM     24  C   UNL     1      38.699 -24.902 -12.352  0.00  0.00    -0.056 C 
BRANCH  24  25
ATOM     25  N   UNL     1      38.719 -23.655 -11.598  0.00  0.00    +0.385 N 
ATOM     26  H   UNL     1      39.498 -23.082 -11.920  0.00  0.00    -0.084 HD
ATOM     27  H   UNL     1      38.822 -23.874 -10.608  0.00  0.00    -0.084 HD
BRANCH  25  28
ATOM     28  C   UNL     1      37.477 -22.917 -11.784  0.00  0.00    -0.079 C 
BRANCH  28  29
ATOM     29  C   UNL     1      36.515 -23.203 -10.634  0.00  0.00    +0.008 C 
BRANCH  29  30
ATOM     30  C   UNL     1      35.529 -24.306 -10.993  0.00  0.00    +0.135 C 
BRANCH  30  31
ATOM     31  O   UNL     1      35.222 -25.047  -9.820  0.00  0.00    -0.382 OA
ATOM     32  H   UNL     1      35.805 -24.765  -9.098  0.00  0.00    +0.210 HD
ENDBRANCH  30  31
ENDBRANCH  29  30
ENDBRANCH  28  29
ENDBRANCH  25  28
ENDBRANCH  24  25
ENDBRANCH  23  24
ENDBRANCH  20  23
ENDBRANCH  14  20
ENDBRANCH   4  15
BRANCH   6  33
ATOM     33  O   UNL     1      32.122 -22.222 -18.267  0.00  0.00    -0.453 OA
BRANCH  33  34
ATOM     34  C   UNL     1      33.434 -22.506 -18.715  0.00  0.00    +0.208 C 
BRANCH  34  35
ATOM     35  C   UNL     1      34.040 -21.225 -19.285  0.00  0.00    +0.044 C 
ATOM     36  C   UNL     1      33.120 -20.618 -20.352  0.00  0.00    +0.004 C 
ATOM     37  C   UNL     1      35.438 -21.496 -19.858  0.00  0.00    +0.004 C 
ATOM     38  C   UNL     1      33.730 -19.364 -20.975  0.00  0.00    +0.000 C 
ATOM     39  C   UNL     1      36.044 -20.240 -20.481  0.00  0.00    +0.000 C 
ATOM     40  C   UNL     1      35.123 -19.634 -21.535  0.00  0.00    +0.000 C 
ENDBRANCH  34  35
ENDBRANCH  33  34
ENDBRANCH   6  33
TORSDOF 12
ENDMDL
MODEL 6
REMARK VINA RESULT:      -9.5      3.363     10.775
REMARK  Name = 6852201
REMARK  12 active torsions:
REMARK  status: ('A' for Active; 'I' for Inactive)
REMARK    1  A    between atoms: N_4  and  C_15
REMARK    2  A    between atoms: C_6  and  O_33
REMARK    3  A    between atoms: C_14  and  S_20
REMARK    4  A    between atoms: S_20  and  C_23
REMARK    5  A    between atoms: C_23  and  C_24
REMARK    6  A    between atoms: C_24  and  N_25
REMARK    7  A    between atoms: N_25  and  C_28
REMARK    8  A    between atoms: C_28  and  C_29
REMARK    9  A    between atoms: C_29  and  C_30
REMARK   10  A    between atoms: C_30  and  O_31
REMARK   11  A    between atoms: O_33  and  C_34
REMARK   12  A    between atoms: C_34  and  C_35
REMARK                            x       y       z     vdW  Elec       q    Type
REMARK                         _______ _______ _______ _____ _____    ______ ____
ROOT
ATOM      1  N   UNL     1      34.785 -18.435 -20.960  0.00  0.00    -0.293 NA
ATOM      2  N   UNL     1      34.712 -15.756 -23.477  0.00  0.00    -0.266 NA
ATOM      3  N   UNL     1      35.163 -19.203 -23.245  0.00  0.00    -0.316 NA
ATOM      4  N   UNL     1      35.156 -20.697 -21.444  0.00  0.00    -0.238 N 
ATOM      5  N   UNL     1      35.113 -17.423 -24.900  0.00  0.00    -0.296 N 
ATOM      6  C   UNL     1      34.656 -17.152 -21.365  0.00  0.00    +0.288 C 
ATOM      7  C   UNL     1      34.779 -16.886 -22.714  0.00  0.00    +0.215 C 
ATOM      8  C   UNL     1      35.028 -17.908 -23.620  0.00  0.00    +0.196 C 
ATOM      9  C   UNL     1      35.027 -19.368 -21.912  0.00  0.00    +0.207 C 
ATOM     10  C   UNL     1      34.919 -16.127 -24.779  0.00  0.00    +0.164 C 
ATOM     11  H   UNL     1      34.547 -14.842 -23.151  0.00  0.00    +0.126 HD
ATOM     12  H   UNL     1      35.331 -21.352 -22.157  0.00  0.00    +0.166 HD
ATOM     13  H   UNL     1      35.281 -17.932 -25.727  0.00  0.00    +0.150 HD
ENDROOT
BRANCH   4  15
ATOM     14  C   UNL     1      34.936 -22.389 -17.611  0.00  0.00    +0.106 C 
ATOM     15  C   UNL     1      35.082 -21.264 -20.160  0.00  0.00    +0.059 C 
ATOM     16  C   UNL     1      33.806 -22.365 -18.428  0.00  0.00    +0.020 C 
ATOM     17  C   UNL     1      36.139 -21.850 -18.067  0.00  0.00    +0.020 C 
ATOM     18  C   UNL     1      33.880 -21.803 -19.703  0.00  0.00    +0.017 C 
ATOM     19  C   UNL     1      36.212 -21.288 -19.342  0.00  0.00    +0.017 C 
BRANCH  14  20
ATOM     20  S   UNL     1      34.846 -23.093 -16.017  0.00  0.00    +0.007 S 
ATOM     21  O   UNL     1      35.272 -24.482 -16.115  0.00  0.00    -0.169 OA
ATOM     22  O   UNL     1      35.499 -22.202 -15.068  0.00  0.00    -0.169 OA
BRANCH  20  23
ATOM     23  C   UNL     1      33.110 -23.082 -15.626  0.00  0.00    +0.133 C 
BRANCH  23  24
ATOM     24  C   UNL     1      32.796 -24.034 -14.483  0.00  0.00    -0.056 C 
BRANCH  24  25
ATOM     25  N   UNL     1      31.425 -24.520 -14.572  0.00  0.00    +0.385 N 
ATOM     26  H   UNL     1      31.094 -24.762 -13.638  0.00  0.00    -0.084 HD
ATOM     27  H   UNL     1      31.408 -25.339 -15.179  0.00  0.00    -0.084 HD
BRANCH  25  28
ATOM     28  C   UNL     1      30.548 -23.504 -15.138  0.00  0.00    -0.079 C 
BRANCH  28  29
ATOM     29  C   UNL     1      29.176 -24.098 -15.442  0.00  0.00    +0.008 C 
BRANCH  29  30
ATOM     30  C   UNL     1      28.309 -23.126 -16.230  0.00  0.00    +0.135 C 
BRANCH  30  31
ATOM     31  O   UNL     1      29.146 -22.332 -17.060  0.00  0.00    -0.382 OA
ATOM     32  H   UNL     1      29.580 -22.899 -17.716  0.00  0.00    +0.210 HD
ENDBRANCH  30  31
ENDBRANCH  29  30
ENDBRANCH  28  29
ENDBRANCH  25  28
ENDBRANCH  24  25
ENDBRANCH  23  24
ENDBRANCH  20  23
ENDBRANCH  14  20
ENDBRANCH   4  15
BRANCH   6  33
ATOM     33  O   UNL     1      34.409 -16.182 -20.425  0.00  0.00    -0.453 OA
BRANCH  33  34
ATOM     34  C   UNL     1      33.073 -15.731 -20.300  0.00  0.00    +0.208 C 
BRANCH  34  35
ATOM     35  C   UNL     1      33.008 -14.276 -20.760  0.00  0.00    +0.044 C 
ATOM     36  C   UNL     1      32.194 -13.431 -19.770  0.00  0.00    +0.004 C 
ATOM     37  C   UNL     1      32.418 -14.180 -22.173  0.00  0.00    +0.004 C 
ATOM     38  C   UNL     1      32.069 -11.982 -20.236  0.00  0.00    +0.000 C 
ATOM     39  C   UNL     1      32.294 -12.729 -22.635  0.00  0.00    +0.000 C 
ATOM     40  C   UNL     1      31.492 -11.891 -21.645  0.00  0.00    +0.000 C 
ENDBRANCH  34  35
ENDBRANCH  33  34
ENDBRANCH   6  33
TORSDOF 12
ENDMDL
MODEL 7
REMARK VINA RESULT:      -9.4      4.367      8.528
REMARK  Name = 6852201
REMARK  12 active torsions:
REMARK  status: ('A' for Active; 'I' for Inactive)
REMARK    1  A    between atoms: N_4  and  C_15
REMARK    2  A    between atoms: C_6  and  O_33
REMARK    3  A    between atoms: C_14  and  S_20
REMARK    4  A    between atoms: S_20  and  C_23
REMARK    5  A    between atoms: C_23  and  C_24
REMARK    6  A    between atoms: C_24  and  N_25
REMARK    7  A    between atoms: N_25  and  C_28
REMARK    8  A    between atoms: C_28  and  C_29
REMARK    9  A    between atoms: C_29  and  C_30
REMARK   10  A    between atoms: C_30  and  O_31
REMARK   11  A    between atoms: O_33  and  C_34
REMARK   12  A    between atoms: C_34  and  C_35
REMARK                            x       y       z     vdW  Elec       q    Type
REMARK                         _______ _______ _______ _____ _____    ______ ____
ROOT
ATOM      1  N   UNL     1      32.259 -23.463 -15.600  0.00  0.00    -0.293 NA
ATOM      2  N   UNL     1      29.168 -22.461 -17.321  0.00  0.00    -0.266 NA
ATOM      3  N   UNL     1      30.344 -23.164 -14.118  0.00  0.00    -0.316 NA
ATOM      4  N   UNL     1      32.438 -23.800 -13.289  0.00  0.00    -0.238 N 
ATOM      5  N   UNL     1      28.307 -22.502 -15.266  0.00  0.00    -0.296 N 
ATOM      6  C   UNL     1      31.524 -23.140 -16.688  0.00  0.00    +0.288 C 
ATOM      7  C   UNL     1      30.193 -22.826 -16.496  0.00  0.00    +0.215 C 
ATOM      8  C   UNL     1      29.634 -22.844 -15.226  0.00  0.00    +0.196 C 
ATOM      9  C   UNL     1      31.632 -23.455 -14.399  0.00  0.00    +0.207 C 
ATOM     10  C   UNL     1      28.058 -22.279 -16.539  0.00  0.00    +0.164 C 
ATOM     11  H   UNL     1      29.217 -22.350 -18.298  0.00  0.00    +0.126 HD
ATOM     12  H   UNL     1      31.956 -23.786 -12.431  0.00  0.00    +0.166 HD
ATOM     13  H   UNL     1      27.678 -22.438 -14.510  0.00  0.00    +0.150 HD
ENDROOT
BRANCH   4  15
ATOM     14  C   UNL     1      36.479 -24.873 -12.941  0.00  0.00    +0.106 C 
ATOM     15  C   UNL     1      33.792 -24.159 -13.172  0.00  0.00    +0.059 C 
ATOM     16  C   UNL     1      35.776 -25.171 -14.109  0.00  0.00    +0.020 C 
ATOM     17  C   UNL     1      35.838 -24.219 -11.889  0.00  0.00    +0.020 C 
ATOM     18  C   UNL     1      34.433 -24.813 -14.224  0.00  0.00    +0.017 C 
ATOM     19  C   UNL     1      34.495 -23.861 -12.004  0.00  0.00    +0.017 C 
BRANCH  14  20
ATOM     20  S   UNL     1      38.160 -25.318 -12.796  0.00  0.00    +0.007 S 
ATOM     21  O   UNL     1      38.910 -24.126 -12.426  0.00  0.00    -0.169 OA
ATOM     22  O   UNL     1      38.263 -26.519 -11.979  0.00  0.00    -0.169 OA
BRANCH  20  23
ATOM     23  C   UNL     1      38.641 -25.774 -14.448  0.00  0.00    +0.133 C 
BRANCH  23  24
ATOM     24  C   UNL     1      39.593 -24.752 -15.047  0.00  0.00    -0.056 C 
BRANCH  24  25
ATOM     25  N   UNL     1      38.921 -23.941 -16.055  0.00  0.00    +0.385 N 
ATOM     26  H   UNL     1      38.325 -24.542 -16.625  0.00  0.00    -0.084 HD
ATOM     27  H   UNL     1      39.628 -23.489 -16.633  0.00  0.00    -0.084 HD
BRANCH  25  28
ATOM     28  C   UNL     1      38.101 -22.911 -15.431  0.00  0.00    -0.079 C 
BRANCH  28  29
ATOM     29  C   UNL     1      36.834 -22.677 -16.249  0.00  0.00    +0.008 C 
BRANCH  29  30
ATOM     30  C   UNL     1      37.096 -21.760 -17.435  0.00  0.00    +0.135 C 
BRANCH  30  31
ATOM     31  O   UNL     1      37.471 -20.478 -16.951  0.00  0.00    -0.382 OA
ATOM     32  H   UNL     1      36.726 -20.083 -16.472  0.00  0.00    +0.210 HD
ENDBRANCH  30  31
ENDBRANCH  29  30
ENDBRANCH  28  29
ENDBRANCH  25  28
ENDBRANCH  24  25
ENDBRANCH  23  24
ENDBRANCH  20  23
ENDBRANCH  14  20
ENDBRANCH   4  15
BRANCH   6  33
ATOM     33  O   UNL     1      32.129 -23.137 -17.921  0.00  0.00    -0.453 OA
BRANCH  33  34
ATOM     34  C   UNL     1      33.469 -22.687 -17.979  0.00  0.00    +0.208 C 
BRANCH  34  35
ATOM     35  C   UNL     1      33.681 -21.967 -19.310  0.00  0.00    +0.044 C 
ATOM     36  C   UNL     1      35.095 -21.376 -19.386  0.00  0.00    +0.004 C 
ATOM     37  C   UNL     1      32.621 -20.876 -19.510  0.00  0.00    +0.004 C 
ATOM     38  C   UNL     1      35.314 -20.604 -20.686  0.00  0.00    +0.000 C 
ATOM     39  C   UNL     1      32.844 -20.107 -20.811  0.00  0.00    +0.000 C 
ATOM     40  C   UNL     1      34.253 -19.527 -20.887  0.00  0.00    +0.000 C 
ENDBRANCH  34  35
ENDBRANCH  33  34
ENDBRANCH   6  33
TORSDOF 12
ENDMDL
MODEL 8
REMARK VINA RESULT:      -8.8      8.696     16.914
REMARK  Name = 6852201
REMARK  12 active torsions:
REMARK  status: ('A' for Active; 'I' for Inactive)
REMARK    1  A    between atoms: N_4  and  C_15
REMARK    2  A    between atoms: C_6  and  O_33
REMARK    3  A    between atoms: C_14  and  S_20
REMARK    4  A    between atoms: S_20  and  C_23
REMARK    5  A    between atoms: C_23  and  C_24
REMARK    6  A    between atoms: C_24  and  N_25
REMARK    7  A    between atoms: N_25  and  C_28
REMARK    8  A    between atoms: C_28  and  C_29
REMARK    9  A    between atoms: C_29  and  C_30
REMARK   10  A    between atoms: C_30  and  O_31
REMARK   11  A    between atoms: O_33  and  C_34
REMARK   12  A    between atoms: C_34  and  C_35
REMARK                            x       y       z     vdW  Elec       q    Type
REMARK                         _______ _______ _______ _____ _____    ______ ____
ROOT
ATOM      1  N   UNL     1      32.186  -7.237 -23.860  0.00  0.00    -0.293 NA
ATOM      2  N   UNL     1      31.672  -3.632 -24.366  0.00  0.00    -0.266 NA
ATOM      3  N   UNL     1      31.045  -6.124 -22.014  0.00  0.00    -0.316 NA
ATOM      4  N   UNL     1      31.502  -8.418 -21.956  0.00  0.00    -0.238 N 
ATOM      5  N   UNL     1      30.709  -3.741 -22.359  0.00  0.00    -0.296 N 
ATOM      6  C   UNL     1      32.282  -6.082 -24.556  0.00  0.00    +0.288 C 
ATOM      7  C   UNL     1      31.759  -4.940 -23.984  0.00  0.00    +0.215 C 
ATOM      8  C   UNL     1      31.156  -4.982 -22.734  0.00  0.00    +0.196 C 
ATOM      9  C   UNL     1      31.581  -7.187 -22.649  0.00  0.00    +0.207 C 
ATOM     10  C   UNL     1      31.034  -2.953 -23.361  0.00  0.00    +0.164 C 
ATOM     11  H   UNL     1      32.004  -3.247 -25.209  0.00  0.00    +0.126 HD
ATOM     12  H   UNL     1      31.058  -8.351 -21.081  0.00  0.00    +0.166 HD
ATOM     13  H   UNL     1      30.248  -3.494 -21.524  0.00  0.00    +0.150 HD
ENDROOT
BRANCH   4  15
ATOM     14  C   UNL     1      32.787 -12.297 -22.909  0.00  0.00    +0.106 C 
ATOM     15  C   UNL     1      31.933  -9.718 -22.275  0.00  0.00    +0.059 C 
ATOM     16  C   UNL     1      33.341 -11.197 -23.566  0.00  0.00    +0.020 C 
ATOM     17  C   UNL     1      31.806 -12.107 -21.936  0.00  0.00    +0.020 C 
ATOM     18  C   UNL     1      32.914  -9.908 -23.248  0.00  0.00    +0.017 C 
ATOM     19  C   UNL     1      31.379 -10.817 -21.619  0.00  0.00    +0.017 C 
BRANCH  14  20
ATOM     20  S   UNL     1      33.322 -13.910 -23.304  0.00  0.00    +0.007 S 
ATOM     21  O   UNL     1      34.735 -14.010 -22.965  0.00  0.00    -0.169 OA
ATOM     22  O   UNL     1      32.376 -14.870 -22.752  0.00  0.00    -0.169 OA
BRANCH  20  23
ATOM     23  C   UNL     1      33.178 -14.003 -25.076  0.00  0.00    +0.133 C 
BRANCH  23  24
ATOM     24  C   UNL     1      33.381 -15.425 -25.571  0.00  0.00    -0.056 C 
BRANCH  24  25
ATOM     25  N   UNL     1      34.350 -16.133 -24.743  0.00  0.00    +0.385 N 
ATOM     26  H   UNL     1      34.123 -15.982 -23.760  0.00  0.00    -0.084 HD
ATOM     27  H   UNL     1      35.281 -15.774 -24.953  0.00  0.00    -0.084 HD
BRANCH  25  28
ATOM     28  C   UNL     1      34.327 -17.562 -25.024  0.00  0.00    -0.079 C 
BRANCH  28  29
ATOM     29  C   UNL     1      35.072 -18.327 -23.934  0.00  0.00    +0.008 C 
BRANCH  29  30
ATOM     30  C   UNL     1      35.482 -17.410 -22.789  0.00  0.00    +0.135 C 
BRANCH  30  31
ATOM     31  O   UNL     1      34.319 -17.030 -22.067  0.00  0.00    -0.382 OA
ATOM     32  H   UNL     1      33.594 -16.858 -22.687  0.00  0.00    +0.210 HD
ENDBRANCH  30  31
ENDBRANCH  29  30
ENDBRANCH  28  29
ENDBRANCH  25  28
ENDBRANCH  24  25
ENDBRANCH  23  24
ENDBRANCH  20  23
ENDBRANCH  14  20
ENDBRANCH   4  15
BRANCH   6  33
ATOM     33  O   UNL     1      32.890  -6.097 -25.787  0.00  0.00    -0.453 OA
BRANCH  33  34
ATOM     34  C   UNL     1      34.226  -5.635 -25.852  0.00  0.00    +0.208 C 
BRANCH  34  35
ATOM     35  C   UNL     1      34.325  -4.591 -26.962  0.00  0.00    +0.044 C 
ATOM     36  C   UNL     1      33.135  -4.709 -27.924  0.00  0.00    +0.004 C 
ATOM     37  C   UNL     1      35.653  -4.728 -27.718  0.00  0.00    +0.004 C 
ATOM     38  C   UNL     1      33.238  -3.710 -29.074  0.00  0.00    +0.000 C 
ATOM     39  C   UNL     1      35.753  -3.728 -28.868  0.00  0.00    +0.000 C 
ATOM     40  C   UNL     1      34.564  -3.842 -29.817  0.00  0.00    +0.000 C 
ENDBRANCH  34  35
ENDBRANCH  33  34
ENDBRANCH   6  33
TORSDOF 12
ENDMDL
MODEL 9
REMARK VINA RESULT:      -8.8      4.400      9.275
REMARK  Name = 6852201
REMARK  12 active torsions:
REMARK  status: ('A' for Active; 'I' for Inactive)
REMARK    1  A    between atoms: N_4  and  C_15
REMARK    2  A    between atoms: C_6  and  O_33
REMARK    3  A    between atoms: C_14  and  S_20
REMARK    4  A    between atoms: S_20  and  C_23
REMARK    5  A    between atoms: C_23  and  C_24
REMARK    6  A    between atoms: C_24  and  N_25
REMARK    7  A    between atoms: N_25  and  C_28
REMARK    8  A    between atoms: C_28  and  C_29
REMARK    9  A    between atoms: C_29  and  C_30
REMARK   10  A    between atoms: C_30  and  O_31
REMARK   11  A    between atoms: O_33  and  C_34
REMARK   12  A    between atoms: C_34  and  C_35
REMARK                            x       y       z     vdW  Elec       q    Type
REMARK                         _______ _______ _______ _____ _____    ______ ____
ROOT
ATOM      1  N   UNL     1      31.969 -23.024 -15.687  0.00  0.00    -0.293 NA
ATOM      2  N   UNL     1      28.777 -22.733 -17.489  0.00  0.00    -0.266 NA
ATOM      3  N   UNL     1      30.013 -23.614 -14.353  0.00  0.00    -0.316 NA
ATOM      4  N   UNL     1      32.172 -23.709 -13.456  0.00  0.00    -0.238 N 
ATOM      5  N   UNL     1      27.909 -23.418 -15.554  0.00  0.00    -0.296 N 
ATOM      6  C   UNL     1      31.205 -22.750 -16.768  0.00  0.00    +0.288 C 
ATOM      7  C   UNL     1      29.839 -22.907 -16.647  0.00  0.00    +0.215 C 
ATOM      8  C   UNL     1      29.274 -23.332 -15.453  0.00  0.00    +0.196 C 
ATOM      9  C   UNL     1      31.335 -23.433 -14.562  0.00  0.00    +0.207 C 
ATOM     10  C   UNL     1      27.643 -23.053 -16.790  0.00  0.00    +0.164 C 
ATOM     11  H   UNL     1      28.819 -22.434 -18.426  0.00  0.00    +0.126 HD
ATOM     12  H   UNL     1      31.685 -24.004 -12.654  0.00  0.00    +0.166 HD
ATOM     13  H   UNL     1      27.270 -23.693 -14.857  0.00  0.00    +0.150 HD
ENDROOT
BRANCH   4  15
ATOM     14  C   UNL     1      36.331 -23.515 -12.928  0.00  0.00    +0.106 C 
ATOM     15  C   UNL     1      33.566 -23.644 -13.279  0.00  0.00    +0.059 C 
ATOM     16  C   UNL     1      35.508 -23.876 -11.860  0.00  0.00    +0.020 C 
ATOM     17  C   UNL     1      35.771 -23.219 -14.170  0.00  0.00    +0.020 C 
ATOM     18  C   UNL     1      34.125 -23.941 -12.037  0.00  0.00    +0.017 C 
ATOM     19  C   UNL     1      34.388 -23.283 -14.347  0.00  0.00    +0.017 C 
BRANCH  14  20
ATOM     20  S   UNL     1      38.060 -23.436 -12.709  0.00  0.00    +0.007 S 
ATOM     21  O   UNL     1      38.681 -23.486 -14.025  0.00  0.00    -0.169 OA
ATOM     22  O   UNL     1      38.372 -22.339 -11.803  0.00  0.00    -0.169 OA
BRANCH  20  23
ATOM     23  C   UNL     1      38.468 -24.944 -11.856  0.00  0.00    +0.133 C 
BRANCH  23  24
ATOM     24  C   UNL     1      38.268 -26.155 -12.752  0.00  0.00    -0.056 C 
BRANCH  24  25
ATOM     25  N   UNL     1      39.327 -26.245 -13.750  0.00  0.00    +0.385 N 
ATOM     26  H   UNL     1      40.003 -26.951 -13.457  0.00  0.00    -0.084 HD
ATOM     27  H   UNL     1      39.777 -25.334 -13.831  0.00  0.00    -0.084 HD
BRANCH  25  28
ATOM     28  C   UNL     1      38.785 -26.615 -15.050  0.00  0.00    -0.079 C 
BRANCH  28  29
ATOM     29  C   UNL     1      37.338 -26.148 -15.172  0.00  0.00    +0.008 C 
BRANCH  29  30
ATOM     30  C   UNL     1      36.420 -27.283 -15.604  0.00  0.00    +0.135 C 
BRANCH  30  31
ATOM     31  O   UNL     1      36.776 -27.687 -16.919  0.00  0.00    -0.382 OA
ATOM     32  H   UNL     1      36.102 -28.293 -17.265  0.00  0.00    +0.210 HD
ENDBRANCH  30  31
ENDBRANCH  29  30
ENDBRANCH  28  29
ENDBRANCH  25  28
ENDBRANCH  24  25
ENDBRANCH  23  24
ENDBRANCH  20  23
ENDBRANCH  14  20
ENDBRANCH   4  15
BRANCH   6  33
ATOM     33  O   UNL     1      31.816 -22.333 -17.924  0.00  0.00    -0.453 OA
BRANCH  33  34
ATOM     34  C   UNL     1      33.179 -22.675 -18.093  0.00  0.00    +0.208 C 
BRANCH  34  35
ATOM     35  C   UNL     1      33.699 -21.989 -19.354  0.00  0.00    +0.044 C 
ATOM     36  C   UNL     1      35.180 -21.619 -19.197  0.00  0.00    +0.004 C 
ATOM     37  C   UNL     1      32.858 -20.749 -19.682  0.00  0.00    +0.004 C 
ATOM     38  C   UNL     1      35.711 -20.883 -20.426  0.00  0.00    +0.000 C 
ATOM     39  C   UNL     1      33.392 -20.015 -20.911  0.00  0.00    +0.000 C 
ATOM     40  C   UNL     1      34.866 -19.656 -20.755  0.00  0.00    +0.000 C 
ENDBRANCH  34  35
ENDBRANCH  33  34
ENDBRANCH   6  33
TORSDOF 12
ENDMDL
