MODEL 1
REMARK VINA RESULT:      -5.5      0.000      0.000
REMARK  Name = 446250
REMARK  9 active torsions:
REMARK  status: ('A' for Active; 'I' for Inactive)
REMARK    1  A    between atoms: C_1  and  CA_2
REMARK    2  A    between atoms: C_1  and  C_11
REMARK    3  A    between atoms: CA_2  and  N_3
REMARK    4  A    between atoms: CA_2  and  C_8
REMARK    5  A    between atoms: C_8  and  O_9
REMARK    6  A    between atoms: C_11  and  O_12
REMARK    7  A    between atoms: O_12  and  C_13
REMARK    8  A    between atoms: C_13  and  C_14
REMARK    9  A    between atoms: C_14  and  N_15
REMARK                            x       y       z     vdW  Elec       q    Type
REMARK                         _______ _______ _______ _____ _____    ______ ____
ROOT
ATOM      1  C   UNL     1      38.595 -25.467 -12.917  0.00  0.00    +0.021 C 
ENDROOT
BRANCH   1   2
ATOM      2  CA  UNL     1      38.996 -25.142 -14.364  0.00  0.00    +0.038 C 
BRANCH   2   3
ATOM      3  N   UNL     1      37.948 -25.496 -15.322  0.00  0.00    +0.389 N 
ATOM      4  H1  UNL     1      37.405 -24.665 -15.554  0.00  0.00    -0.088 HD
ATOM      5  H2  UNL     1      37.335 -26.200 -14.912  0.00  0.00    -0.088 HD
ATOM      6  H3  UNL     1      38.376 -25.870 -16.170  0.00  0.00    -0.088 HD
ENDBRANCH   2   3
BRANCH   2   8
ATOM      7  OXT UNL     1      40.987 -26.501 -13.965  0.00  0.00    -0.253 OA
ATOM      8  C   UNL     1      40.239 -25.928 -14.746  0.00  0.00    +0.293 C 
BRANCH   8   9
ATOM      9  O   UNL     1      40.436 -25.941 -16.092  0.00  0.00    -0.482 OA
ATOM     10  H   UNL     1      40.581 -25.138 -16.552  0.00  0.00    +0.295 HD
ENDBRANCH   8   9
ENDBRANCH   2   8
ENDBRANCH   1   2
BRANCH   1  11
ATOM     11  C   UNL     1      37.296 -26.257 -12.770  0.00  0.00    +0.140 C 
BRANCH  11  12
ATOM     12  O   UNL     1      36.536 -25.790 -11.665  0.00  0.00    -0.356 OA
BRANCH  12  13
ATOM     13  C   UNL     1      36.386 -24.377 -11.692  0.00  0.00    +0.118 C 
BRANCH  13  14
ATOM     14  C   UNL     1      35.140 -24.034 -12.492  0.00  0.00    -0.054 C 
BRANCH  14  15
ATOM     15  N   UNL     1      35.477 -23.198 -13.635  0.00  0.00    +0.382 N 
ATOM     16  H   UNL     1      36.108 -23.706 -14.254  0.00  0.00    -0.089 HD
ATOM     17  H   UNL     1      35.933 -22.346 -13.309  0.00  0.00    -0.089 HD
ATOM     18  H   UNL     1      34.626 -22.955 -14.142  0.00  0.00    -0.089 HD
ENDBRANCH  14  15
ENDBRANCH  13  14
ENDBRANCH  12  13
ENDBRANCH  11  12
ENDBRANCH   1  11
TORSDOF 9
ENDMDL
MODEL 2
REMARK VINA RESULT:      -5.3      1.824      1.938
REMARK  Name = 446250
REMARK  9 active torsions:
REMARK  status: ('A' for Active; 'I' for Inactive)
REMARK    1  A    between atoms: C_1  and  CA_2
REMARK    2  A    between atoms: C_1  and  C_11
REMARK    3  A    between atoms: CA_2  and  N_3
REMARK    4  A    between atoms: CA_2  and  C_8
REMARK    5  A    between atoms: C_8  and  O_9
REMARK    6  A    between atoms: C_11  and  O_12
REMARK    7  A    between atoms: O_12  and  C_13
REMARK    8  A    between atoms: C_13  and  C_14
REMARK    9  A    between atoms: C_14  and  N_15
REMARK                            x       y       z     vdW  Elec       q    Type
REMARK                         _______ _______ _______ _____ _____    ______ ____
ROOT
ATOM      1  C   UNL     1      37.911 -26.064 -13.976  0.00  0.00    +0.021 C 
ENDROOT
BRANCH   1   2
ATOM      2  CA  UNL     1      39.077 -25.137 -14.349  0.00  0.00    +0.038 C 
BRANCH   2   3
ATOM      3  N   UNL     1      38.760 -24.278 -15.491  0.00  0.00    +0.389 N 
ATOM      4  H1  UNL     1      38.202 -23.485 -15.174  0.00  0.00    -0.088 HD
ATOM      5  H2  UNL     1      38.232 -24.812 -16.181  0.00  0.00    -0.088 HD
ATOM      6  H3  UNL     1      39.625 -23.940 -15.912  0.00  0.00    -0.088 HD
ENDBRANCH   2   3
BRANCH   2   8
ATOM      7  OXT UNL     1      41.021 -26.563 -13.953  0.00  0.00    -0.253 OA
ATOM      8  C   UNL     1      40.294 -25.963 -14.732  0.00  0.00    +0.293 C 
BRANCH   8   9
ATOM      9  O   UNL     1      40.492 -25.977 -16.079  0.00  0.00    -0.482 OA
ATOM     10  H   UNL     1      39.892 -25.535 -16.645  0.00  0.00    +0.295 HD
ENDBRANCH   8   9
ENDBRANCH   2   8
ENDBRANCH   1   2
BRANCH   1  11
ATOM     11  C   UNL     1      37.061 -26.536 -15.154  0.00  0.00    +0.140 C 
BRANCH  11  12
ATOM     12  O   UNL     1      36.236 -25.488 -15.641  0.00  0.00    -0.356 OA
BRANCH  12  13
ATOM     13  C   UNL     1      35.267 -25.095 -14.678  0.00  0.00    +0.118 C 
BRANCH  13  14
ATOM     14  C   UNL     1      35.300 -23.581 -14.541  0.00  0.00    -0.054 C 
BRANCH  14  15
ATOM     15  N   UNL     1      35.760 -23.195 -13.216  0.00  0.00    +0.382 N 
ATOM     16  H   UNL     1      36.710 -23.537 -13.072  0.00  0.00    -0.089 HD
ATOM     17  H   UNL     1      35.143 -23.600 -12.511  0.00  0.00    -0.089 HD
ATOM     18  H   UNL     1      35.748 -22.179 -13.134  0.00  0.00    -0.089 HD
ENDBRANCH  14  15
ENDBRANCH  13  14
ENDBRANCH  12  13
ENDBRANCH  11  12
ENDBRANCH   1  11
TORSDOF 9
ENDMDL
MODEL 3
REMARK VINA RESULT:      -5.3      1.923      2.216
REMARK  Name = 446250
REMARK  9 active torsions:
REMARK  status: ('A' for Active; 'I' for Inactive)
REMARK    1  A    between atoms: C_1  and  CA_2
REMARK    2  A    between atoms: C_1  and  C_11
REMARK    3  A    between atoms: CA_2  and  N_3
REMARK    4  A    between atoms: CA_2  and  C_8
REMARK    5  A    between atoms: C_8  and  O_9
REMARK    6  A    between atoms: C_11  and  O_12
REMARK    7  A    between atoms: O_12  and  C_13
REMARK    8  A    between atoms: C_13  and  C_14
REMARK    9  A    between atoms: C_14  and  N_15
REMARK                            x       y       z     vdW  Elec       q    Type
REMARK                         _______ _______ _______ _____ _____    ______ ____
ROOT
ATOM      1  C   UNL     1      37.610 -25.279 -15.079  0.00  0.00    +0.021 C 
ENDROOT
BRANCH   1   2
ATOM      2  CA  UNL     1      38.752 -26.041 -14.390  0.00  0.00    +0.038 C 
BRANCH   2   3
ATOM      3  N   UNL     1      38.717 -25.897 -12.935  0.00  0.00    +0.389 N 
ATOM      4  H1  UNL     1      39.458 -25.262 -12.638  0.00  0.00    -0.088 HD
ATOM      5  H2  UNL     1      38.854 -26.808 -12.499  0.00  0.00    -0.088 HD
ATOM      6  H3  UNL     1      37.812 -25.518 -12.653  0.00  0.00    -0.088 HD
ENDBRANCH   2   3
BRANCH   2   8
ATOM      7  OXT UNL     1      40.843 -24.790 -14.212  0.00  0.00    -0.253 OA
ATOM      8  C   UNL     1      40.093 -25.504 -14.863  0.00  0.00    +0.293 C 
BRANCH   8   9
ATOM      9  O   UNL     1      40.390 -25.923 -16.123  0.00  0.00    -0.482 OA
ATOM     10  H   UNL     1      39.865 -26.581 -16.534  0.00  0.00    +0.295 HD
ENDBRANCH   8   9
ENDBRANCH   2   8
ENDBRANCH   1   2
BRANCH   1  11
ATOM     11  C   UNL     1      37.754 -23.759 -15.073  0.00  0.00    +0.140 C 
BRANCH  11  12
ATOM     12  O   UNL     1      37.482 -23.225 -13.785  0.00  0.00    -0.356 OA
BRANCH  12  13
ATOM     13  C   UNL     1      36.119 -23.406 -13.422  0.00  0.00    +0.118 C 
BRANCH  13  14
ATOM     14  C   UNL     1      36.037 -23.596 -11.916  0.00  0.00    -0.054 C 
BRANCH  14  15
ATOM     15  N   UNL     1      37.235 -23.084 -11.267  0.00  0.00    +0.382 N 
ATOM     16  H   UNL     1      37.791 -22.561 -11.943  0.00  0.00    -0.089 HD
ATOM     17  H   UNL     1      37.784 -23.863 -10.905  0.00  0.00    -0.089 HD
ATOM     18  H   UNL     1      36.969 -22.470 -10.497  0.00  0.00    -0.089 HD
ENDBRANCH  14  15
ENDBRANCH  13  14
ENDBRANCH  12  13
ENDBRANCH  11  12
ENDBRANCH   1  11
TORSDOF 9
ENDMDL
MODEL 4
REMARK VINA RESULT:      -5.3      2.597      4.729
REMARK  Name = 446250
REMARK  9 active torsions:
REMARK  status: ('A' for Active; 'I' for Inactive)
REMARK    1  A    between atoms: C_1  and  CA_2
REMARK    2  A    between atoms: C_1  and  C_11
REMARK    3  A    between atoms: CA_2  and  N_3
REMARK    4  A    between atoms: CA_2  and  C_8
REMARK    5  A    between atoms: C_8  and  O_9
REMARK    6  A    between atoms: C_11  and  O_12
REMARK    7  A    between atoms: O_12  and  C_13
REMARK    8  A    between atoms: C_13  and  C_14
REMARK    9  A    between atoms: C_14  and  N_15
REMARK                            x       y       z     vdW  Elec       q    Type
REMARK                         _______ _______ _______ _____ _____    ______ ____
ROOT
ATOM      1  C   UNL     1      36.137 -23.417 -13.307  0.00  0.00    +0.021 C 
ENDROOT
BRANCH   1   2
ATOM      2  CA  UNL     1      36.689 -23.337 -11.876  0.00  0.00    +0.038 C 
BRANCH   2   3
ATOM      3  N   UNL     1      38.089 -23.757 -11.797  0.00  0.00    +0.389 N 
ATOM      4  H1  UNL     1      38.481 -23.466 -10.902  0.00  0.00    -0.088 HD
ATOM      5  H2  UNL     1      38.616 -23.328 -12.556  0.00  0.00    -0.088 HD
ATOM      6  H3  UNL     1      38.143 -24.773 -11.877  0.00  0.00    -0.088 HD
ENDBRANCH   2   3
BRANCH   2   8
ATOM      7  OXT UNL     1      35.965 -24.275  -9.740  0.00  0.00    -0.253 OA
ATOM      8  C   UNL     1      35.892 -24.251 -10.961  0.00  0.00    +0.293 C 
BRANCH   8   9
ATOM      9  O   UNL     1      35.052 -25.060 -11.661  0.00  0.00    -0.482 OA
ATOM     10  H   UNL     1      35.398 -25.677 -12.274  0.00  0.00    +0.295 HD
ENDBRANCH   8   9
ENDBRANCH   2   8
ENDBRANCH   1   2
BRANCH   1  11
ATOM     11  C   UNL     1      37.149 -23.100 -14.406  0.00  0.00    +0.140 C 
BRANCH  11  12
ATOM     12  O   UNL     1      37.692 -24.289 -14.960  0.00  0.00    -0.356 OA
BRANCH  12  13
ATOM     13  C   UNL     1      36.728 -25.333 -15.006  0.00  0.00    +0.118 C 
BRANCH  13  14
ATOM     14  C   UNL     1      37.391 -26.630 -14.571  0.00  0.00    -0.054 C 
BRANCH  14  15
ATOM     15  N   UNL     1      37.068 -26.933 -13.184  0.00  0.00    +0.382 N 
ATOM     16  H   UNL     1      37.103 -27.941 -13.040  0.00  0.00    -0.089 HD
ATOM     17  H   UNL     1      36.131 -26.591 -12.972  0.00  0.00    -0.089 HD
ATOM     18  H   UNL     1      37.743 -26.477 -12.571  0.00  0.00    -0.089 HD
ENDBRANCH  14  15
ENDBRANCH  13  14
ENDBRANCH  12  13
ENDBRANCH  11  12
ENDBRANCH   1  11
TORSDOF 9
ENDMDL
MODEL 5
REMARK VINA RESULT:      -5.2      2.184      2.599
REMARK  Name = 446250
REMARK  9 active torsions:
REMARK  status: ('A' for Active; 'I' for Inactive)
REMARK    1  A    between atoms: C_1  and  CA_2
REMARK    2  A    between atoms: C_1  and  C_11
REMARK    3  A    between atoms: CA_2  and  N_3
REMARK    4  A    between atoms: CA_2  and  C_8
REMARK    5  A    between atoms: C_8  and  O_9
REMARK    6  A    between atoms: C_11  and  O_12
REMARK    7  A    between atoms: O_12  and  C_13
REMARK    8  A    between atoms: C_13  and  C_14
REMARK    9  A    between atoms: C_14  and  N_15
REMARK                            x       y       z     vdW  Elec       q    Type
REMARK                         _______ _______ _______ _____ _____    ______ ____
ROOT
ATOM      1  C   UNL     1      37.911 -25.986 -13.121  0.00  0.00    +0.021 C 
ENDROOT
BRANCH   1   2
ATOM      2  CA  UNL     1      38.079 -26.083 -14.645  0.00  0.00    +0.038 C 
BRANCH   2   3
ATOM      3  N   UNL     1      38.381 -24.788 -15.253  0.00  0.00    +0.389 N 
ATOM      4  H1  UNL     1      38.232 -24.842 -16.260  0.00  0.00    -0.088 HD
ATOM      5  H2  UNL     1      39.353 -24.543 -15.065  0.00  0.00    -0.088 HD
ATOM      6  H3  UNL     1      37.768 -24.075 -14.856  0.00  0.00    -0.088 HD
ENDBRANCH   2   3
BRANCH   2   8
ATOM      7  OXT UNL     1      36.718 -27.351 -16.229  0.00  0.00    -0.253 OA
ATOM      8  C   UNL     1      36.791 -26.587 -15.276  0.00  0.00    +0.293 C 
BRANCH   8   9
ATOM      9  O   UNL     1      35.691 -26.094 -14.645  0.00  0.00    -0.482 OA
ATOM     10  H   UNL     1      35.033 -26.679 -14.326  0.00  0.00    +0.295 HD
ENDBRANCH   8   9
ENDBRANCH   2   8
ENDBRANCH   1   2
BRANCH   1  11
ATOM     11  C   UNL     1      38.438 -24.697 -12.495  0.00  0.00    +0.140 C 
BRANCH  11  12
ATOM     12  O   UNL     1      37.698 -24.353 -11.333  0.00  0.00    -0.356 OA
BRANCH  12  13
ATOM     13  C   UNL     1      36.857 -23.230 -11.560  0.00  0.00    +0.118 C 
BRANCH  13  14
ATOM     14  C   UNL     1      35.460 -23.726 -11.896  0.00  0.00    -0.054 C 
BRANCH  14  15
ATOM     15  N   UNL     1      35.132 -23.438 -13.285  0.00  0.00    +0.382 N 
ATOM     16  H   UNL     1      35.048 -22.430 -13.413  0.00  0.00    -0.089 HD
ATOM     17  H   UNL     1      34.248 -23.886 -13.525  0.00  0.00    -0.089 HD
ATOM     18  H   UNL     1      35.870 -23.798 -13.890  0.00  0.00    -0.089 HD
ENDBRANCH  14  15
ENDBRANCH  13  14
ENDBRANCH  12  13
ENDBRANCH  11  12
ENDBRANCH   1  11
TORSDOF 9
ENDMDL
MODEL 6
REMARK VINA RESULT:      -5.0     11.264     12.007
REMARK  Name = 446250
REMARK  9 active torsions:
REMARK  status: ('A' for Active; 'I' for Inactive)
REMARK    1  A    between atoms: C_1  and  CA_2
REMARK    2  A    between atoms: C_1  and  C_11
REMARK    3  A    between atoms: CA_2  and  N_3
REMARK    4  A    between atoms: CA_2  and  C_8
REMARK    5  A    between atoms: C_8  and  O_9
REMARK    6  A    between atoms: C_11  and  O_12
REMARK    7  A    between atoms: O_12  and  C_13
REMARK    8  A    between atoms: C_13  and  C_14
REMARK    9  A    between atoms: C_14  and  N_15
REMARK                            x       y       z     vdW  Elec       q    Type
REMARK                         _______ _______ _______ _____ _____    ______ ____
ROOT
ATOM      1  C   UNL     1      35.563 -18.343 -22.548  0.00  0.00    +0.021 C 
ENDROOT
BRANCH   1   2
ATOM      2  CA  UNL     1      34.621 -18.188 -23.751  0.00  0.00    +0.038 C 
BRANCH   2   3
ATOM      3  N   UNL     1      34.690 -19.333 -24.660  0.00  0.00    +0.389 N 
ATOM      4  H1  UNL     1      33.876 -19.328 -25.275  0.00  0.00    -0.088 HD
ATOM      5  H2  UNL     1      34.702 -20.196 -24.119  0.00  0.00    -0.088 HD
ATOM      6  H3  UNL     1      35.540 -19.270 -25.221  0.00  0.00    -0.088 HD
ENDBRANCH   2   3
BRANCH   2   8
ATOM      7  OXT UNL     1      34.799 -16.790 -25.747  0.00  0.00    -0.253 OA
ATOM      8  C   UNL     1      35.002 -16.954 -24.552  0.00  0.00    +0.293 C 
BRANCH   8   9
ATOM      9  O   UNL     1      35.603 -16.012 -23.775  0.00  0.00    -0.482 OA
ATOM     10  H   UNL     1      35.561 -15.108 -24.018  0.00  0.00    +0.295 HD
ENDBRANCH   8   9
ENDBRANCH   2   8
ENDBRANCH   1   2
BRANCH   1  11
ATOM     11  C   UNL     1      34.943 -19.022 -21.328  0.00  0.00    +0.140 C 
BRANCH  11  12
ATOM     12  O   UNL     1      33.757 -19.719 -21.679  0.00  0.00    -0.356 OA
BRANCH  12  13
ATOM     13  C   UNL     1      32.997 -20.069 -20.529  0.00  0.00    +0.118 C 
BRANCH  13  14
ATOM     14  C   UNL     1      33.749 -21.140 -19.755  0.00  0.00    -0.054 C 
BRANCH  14  15
ATOM     15  N   UNL     1      32.820 -22.029 -19.073  0.00  0.00    +0.382 N 
ATOM     16  H   UNL     1      32.663 -21.693 -18.123  0.00  0.00    -0.089 HD
ATOM     17  H   UNL     1      33.212 -22.969 -19.040  0.00  0.00    -0.089 HD
ATOM     18  H   UNL     1      31.934 -22.048 -19.577  0.00  0.00    -0.089 HD
ENDBRANCH  14  15
ENDBRANCH  13  14
ENDBRANCH  12  13
ENDBRANCH  11  12
ENDBRANCH   1  11
TORSDOF 9
ENDMDL
MODEL 7
REMARK VINA RESULT:      -5.0      2.422      4.272
REMARK  Name = 446250
REMARK  9 active torsions:
REMARK  status: ('A' for Active; 'I' for Inactive)
REMARK    1  A    between atoms: C_1  and  CA_2
REMARK    2  A    between atoms: C_1  and  C_11
REMARK    3  A    between atoms: CA_2  and  N_3
REMARK    4  A    between atoms: CA_2  and  C_8
REMARK    5  A    between atoms: C_8  and  O_9
REMARK    6  A    between atoms: C_11  and  O_12
REMARK    7  A    between atoms: O_12  and  C_13
REMARK    8  A    between atoms: C_13  and  C_14
REMARK    9  A    between atoms: C_14  and  N_15
REMARK                            x       y       z     vdW  Elec       q    Type
REMARK                         _______ _______ _______ _____ _____    ______ ____
ROOT
ATOM      1  C   UNL     1      38.059 -24.787 -12.489  0.00  0.00    +0.021 C 
ENDROOT
BRANCH   1   2
ATOM      2  CA  UNL     1      36.708 -25.495 -12.315  0.00  0.00    +0.038 C 
BRANCH   2   3
ATOM      3  N   UNL     1      36.048 -25.753 -13.595  0.00  0.00    +0.389 N 
ATOM      4  H1  UNL     1      35.261 -25.114 -13.707  0.00  0.00    -0.088 HD
ATOM      5  H2  UNL     1      35.711 -26.715 -13.616  0.00  0.00    -0.088 HD
ATOM      6  H3  UNL     1      36.713 -25.609 -14.355  0.00  0.00    -0.088 HD
ENDBRANCH   2   3
BRANCH   2   8
ATOM      7  OXT UNL     1      35.266 -24.940 -10.422  0.00  0.00    -0.253 OA
ATOM      8  C   UNL     1      35.770 -24.627 -11.492  0.00  0.00    +0.293 C 
BRANCH   8   9
ATOM      9  O   UNL     1      35.550 -23.420 -12.081  0.00  0.00    -0.482 OA
ATOM     10  H   UNL     1      34.725 -23.240 -12.486  0.00  0.00    +0.295 HD
ENDBRANCH   8   9
ENDBRANCH   2   8
ENDBRANCH   1   2
BRANCH   1  11
ATOM     11  C   UNL     1      38.392 -24.378 -13.923  0.00  0.00    +0.140 C 
BRANCH  11  12
ATOM     12  O   UNL     1      37.697 -23.196 -14.292  0.00  0.00    -0.356 OA
BRANCH  12  13
ATOM     13  C   UNL     1      37.451 -23.149 -15.691  0.00  0.00    +0.118 C 
BRANCH  13  14
ATOM     14  C   UNL     1      36.167 -22.372 -15.935  0.00  0.00    -0.054 C 
BRANCH  14  15
ATOM     15  N   UNL     1      35.198 -22.637 -14.883  0.00  0.00    +0.382 N 
ATOM     16  H   UNL     1      34.536 -21.864 -14.827  0.00  0.00    -0.089 HD
ATOM     17  H   UNL     1      35.683 -22.734 -13.991  0.00  0.00    -0.089 HD
ATOM     18  H   UNL     1      34.696 -23.500 -15.092  0.00  0.00    -0.089 HD
ENDBRANCH  14  15
ENDBRANCH  13  14
ENDBRANCH  12  13
ENDBRANCH  11  12
ENDBRANCH   1  11
TORSDOF 9
ENDMDL
MODEL 8
REMARK VINA RESULT:      -5.0      2.080      5.010
REMARK  Name = 446250
REMARK  9 active torsions:
REMARK  status: ('A' for Active; 'I' for Inactive)
REMARK    1  A    between atoms: C_1  and  CA_2
REMARK    2  A    between atoms: C_1  and  C_11
REMARK    3  A    between atoms: CA_2  and  N_3
REMARK    4  A    between atoms: CA_2  and  C_8
REMARK    5  A    between atoms: C_8  and  O_9
REMARK    6  A    between atoms: C_11  and  O_12
REMARK    7  A    between atoms: O_12  and  C_13
REMARK    8  A    between atoms: C_13  and  C_14
REMARK    9  A    between atoms: C_14  and  N_15
REMARK                            x       y       z     vdW  Elec       q    Type
REMARK                         _______ _______ _______ _____ _____    ______ ____
ROOT
ATOM      1  C   UNL     1      36.703 -24.951 -13.530  0.00  0.00    +0.021 C 
ENDROOT
BRANCH   1   2
ATOM      2  CA  UNL     1      36.644 -23.950 -12.366  0.00  0.00    +0.038 C 
BRANCH   2   3
ATOM      3  N   UNL     1      37.815 -24.045 -11.493  0.00  0.00    +0.389 N 
ATOM      4  H1  UNL     1      38.661 -24.074 -12.062  0.00  0.00    -0.088 HD
ATOM      5  H2  UNL     1      37.752 -24.894 -10.932  0.00  0.00    -0.088 HD
ATOM      6  H3  UNL     1      37.846 -23.232 -10.878  0.00  0.00    -0.088 HD
ENDBRANCH   2   3
BRANCH   2   8
ATOM      7  OXT UNL     1      35.399 -24.916 -10.499  0.00  0.00    -0.253 OA
ATOM      8  C   UNL     1      35.420 -24.224 -11.508  0.00  0.00    +0.293 C 
BRANCH   8   9
ATOM      9  O   UNL     1      34.315 -23.590 -11.986  0.00  0.00    -0.482 OA
ATOM     10  H   UNL     1      34.250 -23.385 -12.897  0.00  0.00    +0.295 HD
ENDBRANCH   8   9
ENDBRANCH   2   8
ENDBRANCH   1   2
BRANCH   1  11
ATOM     11  C   UNL     1      37.304 -26.310 -13.181  0.00  0.00    +0.140 C 
BRANCH  11  12
ATOM     12  O   UNL     1      38.317 -26.674 -14.108  0.00  0.00    -0.356 OA
BRANCH  12  13
ATOM     13  C   UNL     1      38.794 -25.547 -14.831  0.00  0.00    +0.118 C 
BRANCH  13  14
ATOM     14  C   UNL     1      40.306 -25.480 -14.689  0.00  0.00    -0.054 C 
BRANCH  14  15
ATOM     15  N   UNL     1      40.825 -26.721 -14.133  0.00  0.00    +0.382 N 
ATOM     16  H   UNL     1      41.526 -26.508 -13.424  0.00  0.00    -0.089 HD
ATOM     17  H   UNL     1      41.252 -27.273 -14.877  0.00  0.00    -0.089 HD
ATOM     18  H   UNL     1      40.063 -27.250 -13.711  0.00  0.00    -0.089 HD
ENDBRANCH  14  15
ENDBRANCH  13  14
ENDBRANCH  12  13
ENDBRANCH  11  12
ENDBRANCH   1  11
TORSDOF 9
ENDMDL
MODEL 9
REMARK VINA RESULT:      -5.0      7.934     10.354
REMARK  Name = 446250
REMARK  9 active torsions:
REMARK  status: ('A' for Active; 'I' for Inactive)
REMARK    1  A    between atoms: C_1  and  CA_2
REMARK    2  A    between atoms: C_1  and  C_11
REMARK    3  A    between atoms: CA_2  and  N_3
REMARK    4  A    between atoms: CA_2  and  C_8
REMARK    5  A    between atoms: C_8  and  O_9
REMARK    6  A    between atoms: C_11  and  O_12
REMARK    7  A    between atoms: O_12  and  C_13
REMARK    8  A    between atoms: C_13  and  C_14
REMARK    9  A    between atoms: C_14  and  N_15
REMARK                            x       y       z     vdW  Elec       q    Type
REMARK                         _______ _______ _______ _____ _____    ______ ____
ROOT
ATOM      1  C   UNL     1      29.324 -22.462 -15.492  0.00  0.00    +0.021 C 
ENDROOT
BRANCH   1   2
ATOM      2  CA  UNL     1      28.006 -23.168 -15.844  0.00  0.00    +0.038 C 
BRANCH   2   3
ATOM      3  N   UNL     1      28.162 -24.111 -16.952  0.00  0.00    +0.389 N 
ATOM      4  H1  UNL     1      29.074 -24.563 -16.888  0.00  0.00    -0.088 HD
ATOM      5  H2  UNL     1      28.091 -23.610 -17.837  0.00  0.00    -0.088 HD
ATOM      6  H3  UNL     1      27.428 -24.818 -16.902  0.00  0.00    -0.088 HD
ENDBRANCH   2   3
BRANCH   2   8
ATOM      7  OXT UNL     1      27.047 -21.409 -17.242  0.00  0.00    -0.253 OA
ATOM      8  C   UNL     1      26.966 -22.144 -16.268  0.00  0.00    +0.293 C 
BRANCH   8   9
ATOM      9  O   UNL     1      25.894 -22.136 -15.430  0.00  0.00    -0.482 OA
ATOM     10  H   UNL     1      25.306 -21.407 -15.429  0.00  0.00    +0.295 HD
ENDBRANCH   8   9
ENDBRANCH   2   8
ENDBRANCH   1   2
BRANCH   1  11
ATOM     11  C   UNL     1      30.508 -22.823 -16.386  0.00  0.00    +0.140 C 
BRANCH  11  12
ATOM     12  O   UNL     1      31.127 -24.025 -15.954  0.00  0.00    -0.356 OA
BRANCH  12  13
ATOM     13  C   UNL     1      31.849 -23.836 -14.744  0.00  0.00    +0.118 C 
BRANCH  13  14
ATOM     14  C   UNL     1      31.581 -25.018 -13.826  0.00  0.00    -0.054 C 
BRANCH  14  15
ATOM     15  N   UNL     1      30.173 -25.384 -13.858  0.00  0.00    +0.382 N 
ATOM     16  H   UNL     1      29.971 -25.882 -14.725  0.00  0.00    -0.089 HD
ATOM     17  H   UNL     1      29.602 -24.541 -13.809  0.00  0.00    -0.089 HD
ATOM     18  H   UNL     1      29.960 -25.986 -13.063  0.00  0.00    -0.089 HD
ENDBRANCH  14  15
ENDBRANCH  13  14
ENDBRANCH  12  13
ENDBRANCH  11  12
ENDBRANCH   1  11
TORSDOF 9
ENDMDL
