MODEL 1
REMARK VINA RESULT:      -6.1      0.000      0.000
REMARK  Name = 340
REMARK  2 active torsions:
REMARK  status: ('A' for Active; 'I' for Inactive)
REMARK    1  A    between atoms: C_2  and  O_8
REMARK    2  A    between atoms: C_4  and  O_10
REMARK                            x       y       z     vdW  Elec       q    Type
REMARK                         _______ _______ _______ _____ _____    ______ ____
ROOT
ATOM      1  C   UNL     1      33.967 -20.582 -20.207  0.00  0.00    +0.015 C 
ATOM      2  C   UNL     1      33.856 -21.575 -19.235  0.00  0.00    +0.163 C 
ATOM      3  C   UNL     1      35.225 -20.110 -20.583  0.00  0.00    -0.001 C 
ATOM      4  C   UNL     1      35.003 -22.098 -18.638  0.00  0.00    +0.167 C 
ATOM      5  C   UNL     1      32.750 -20.010 -20.858  0.00  0.00    +0.034 C 
ATOM      6  C   UNL     1      36.372 -20.633 -19.986  0.00  0.00    +0.003 C 
ATOM      7  C   UNL     1      36.261 -21.627 -19.013  0.00  0.00    +0.040 C 
ENDROOT
BRANCH   2   8
ATOM      8  O   UNL     1      32.628 -22.039 -18.865  0.00  0.00    -0.503 OA
ATOM      9  H   UNL     1      32.392 -22.929 -19.034  0.00  0.00    +0.292 HD
ENDBRANCH   2   8
BRANCH   4  10
ATOM     10  O   UNL     1      34.909 -23.069 -17.686  0.00  0.00    -0.503 OA
ATOM     11  H   UNL     1      35.675 -23.538 -17.418  0.00  0.00    +0.292 HD
ENDBRANCH   4  10
TORSDOF 2
ENDMDL
MODEL 2
REMARK VINA RESULT:      -6.1      1.118      1.720
REMARK  Name = 340
REMARK  2 active torsions:
REMARK  status: ('A' for Active; 'I' for Inactive)
REMARK    1  A    between atoms: C_2  and  O_8
REMARK    2  A    between atoms: C_4  and  O_10
REMARK                            x       y       z     vdW  Elec       q    Type
REMARK                         _______ _______ _______ _____ _____    ______ ____
ROOT
ATOM      1  C   UNL     1      34.766 -19.935 -20.799  0.00  0.00    +0.015 C 
ATOM      2  C   UNL     1      33.669 -20.624 -20.282  0.00  0.00    +0.163 C 
ATOM      3  C   UNL     1      36.057 -20.275 -20.394  0.00  0.00    -0.001 C 
ATOM      4  C   UNL     1      33.862 -21.652 -19.360  0.00  0.00    +0.167 C 
ATOM      5  C   UNL     1      34.579 -18.831 -21.788  0.00  0.00    +0.034 C 
ATOM      6  C   UNL     1      36.250 -21.303 -19.472  0.00  0.00    +0.003 C 
ATOM      7  C   UNL     1      35.152 -21.992 -18.955  0.00  0.00    +0.040 C 
ENDROOT
BRANCH   2   8
ATOM      8  O   UNL     1      32.405 -20.294 -20.676  0.00  0.00    -0.503 OA
ATOM      9  H   UNL     1      31.753 -20.092 -20.036  0.00  0.00    +0.292 HD
ENDBRANCH   2   8
BRANCH   4  10
ATOM     10  O   UNL     1      32.799 -22.333 -18.847  0.00  0.00    -0.503 OA
ATOM     11  H   UNL     1      32.085 -21.865 -18.460  0.00  0.00    +0.292 HD
ENDBRANCH   4  10
TORSDOF 2
ENDMDL
MODEL 3
REMARK VINA RESULT:      -6.0      1.586      2.784
REMARK  Name = 340
REMARK  2 active torsions:
REMARK  status: ('A' for Active; 'I' for Inactive)
REMARK    1  A    between atoms: C_2  and  O_8
REMARK    2  A    between atoms: C_4  and  O_10
REMARK                            x       y       z     vdW  Elec       q    Type
REMARK                         _______ _______ _______ _____ _____    ______ ____
ROOT
ATOM      1  C   UNL     1      35.201 -19.617 -20.865  0.00  0.00    +0.015 C 
ATOM      2  C   UNL     1      35.575 -20.736 -20.120  0.00  0.00    +0.163 C 
ATOM      3  C   UNL     1      33.850 -19.310 -21.032  0.00  0.00    -0.001 C 
ATOM      4  C   UNL     1      34.598 -21.547 -19.542  0.00  0.00    +0.167 C 
ATOM      5  C   UNL     1      36.231 -18.736 -21.491  0.00  0.00    +0.034 C 
ATOM      6  C   UNL     1      32.874 -20.122 -20.454  0.00  0.00    +0.003 C 
ATOM      7  C   UNL     1      33.249 -21.241 -19.709  0.00  0.00    +0.040 C 
ENDROOT
BRANCH   2   8
ATOM      8  O   UNL     1      36.894 -21.039 -19.955  0.00  0.00    -0.503 OA
ATOM      9  H   UNL     1      37.426 -20.522 -19.383  0.00  0.00    +0.292 HD
ENDBRANCH   2   8
BRANCH   4  10
ATOM     10  O   UNL     1      34.950 -22.643 -18.812  0.00  0.00    -0.503 OA
ATOM     11  H   UNL     1      34.385 -22.954 -18.133  0.00  0.00    +0.292 HD
ENDBRANCH   4  10
TORSDOF 2
ENDMDL
MODEL 4
REMARK VINA RESULT:      -6.0      0.933      2.743
REMARK  Name = 340
REMARK  2 active torsions:
REMARK  status: ('A' for Active; 'I' for Inactive)
REMARK    1  A    between atoms: C_2  and  O_8
REMARK    2  A    between atoms: C_4  and  O_10
REMARK                            x       y       z     vdW  Elec       q    Type
REMARK                         _______ _______ _______ _____ _____    ______ ____
ROOT
ATOM      1  C   UNL     1      35.616 -20.657 -20.154  0.00  0.00    +0.015 C 
ATOM      2  C   UNL     1      34.772 -21.485 -19.415  0.00  0.00    +0.163 C 
ATOM      3  C   UNL     1      35.076 -19.677 -20.988  0.00  0.00    -0.001 C 
ATOM      4  C   UNL     1      33.388 -21.335 -19.510  0.00  0.00    +0.167 C 
ATOM      5  C   UNL     1      37.099 -20.803 -20.065  0.00  0.00    +0.034 C 
ATOM      6  C   UNL     1      33.693 -19.526 -21.082  0.00  0.00    +0.003 C 
ATOM      7  C   UNL     1      32.849 -20.355 -20.343  0.00  0.00    +0.040 C 
ENDROOT
BRANCH   2   8
ATOM      8  O   UNL     1      35.295 -22.444 -18.599  0.00  0.00    -0.503 OA
ATOM      9  H   UNL     1      36.151 -22.334 -18.235  0.00  0.00    +0.292 HD
ENDBRANCH   2   8
BRANCH   4  10
ATOM     10  O   UNL     1      32.552 -22.138 -18.793  0.00  0.00    -0.503 OA
ATOM     11  H   UNL     1      32.118 -22.854 -19.212  0.00  0.00    +0.292 HD
ENDBRANCH   4  10
TORSDOF 2
ENDMDL
MODEL 5
REMARK VINA RESULT:      -5.9      4.695      5.564
REMARK  Name = 340
REMARK  2 active torsions:
REMARK  status: ('A' for Active; 'I' for Inactive)
REMARK    1  A    between atoms: C_2  and  O_8
REMARK    2  A    between atoms: C_4  and  O_10
REMARK                            x       y       z     vdW  Elec       q    Type
REMARK                         _______ _______ _______ _____ _____    ______ ____
ROOT
ATOM      1  C   UNL     1      34.835 -17.550 -23.791  0.00  0.00    +0.015 C 
ATOM      2  C   UNL     1      34.964 -16.682 -22.707  0.00  0.00    +0.163 C 
ATOM      3  C   UNL     1      34.753 -18.926 -23.577  0.00  0.00    -0.001 C 
ATOM      4  C   UNL     1      35.010 -17.190 -21.409  0.00  0.00    +0.167 C 
ATOM      5  C   UNL     1      34.784 -17.025 -25.188  0.00  0.00    +0.034 C 
ATOM      6  C   UNL     1      34.800 -19.434 -22.279  0.00  0.00    +0.003 C 
ATOM      7  C   UNL     1      34.928 -18.565 -21.194  0.00  0.00    +0.040 C 
ENDROOT
BRANCH   2   8
ATOM      8  O   UNL     1      35.045 -15.336 -22.912  0.00  0.00    -0.503 OA
ATOM      9  H   UNL     1      35.746 -14.845 -22.532  0.00  0.00    +0.292 HD
ENDBRANCH   2   8
BRANCH   4  10
ATOM     10  O   UNL     1      35.136 -16.353 -20.340  0.00  0.00    -0.503 OA
ATOM     11  H   UNL     1      34.713 -15.517 -20.348  0.00  0.00    +0.292 HD
ENDBRANCH   4  10
TORSDOF 2
ENDMDL
MODEL 6
REMARK VINA RESULT:      -5.8      5.431      6.506
REMARK  Name = 340
REMARK  2 active torsions:
REMARK  status: ('A' for Active; 'I' for Inactive)
REMARK    1  A    between atoms: C_2  and  O_8
REMARK    2  A    between atoms: C_4  and  O_10
REMARK                            x       y       z     vdW  Elec       q    Type
REMARK                         _______ _______ _______ _____ _____    ______ ____
ROOT
ATOM      1  C   UNL     1      34.829 -17.247 -22.223  0.00  0.00    +0.015 C 
ATOM      2  C   UNL     1      34.860 -16.566 -23.439  0.00  0.00    +0.163 C 
ATOM      3  C   UNL     1      34.736 -18.639 -22.205  0.00  0.00    -0.001 C 
ATOM      4  C   UNL     1      34.798 -17.275 -24.638  0.00  0.00    +0.167 C 
ATOM      5  C   UNL     1      34.895 -16.505 -20.928  0.00  0.00    +0.034 C 
ATOM      6  C   UNL     1      34.673 -19.349 -23.405  0.00  0.00    +0.003 C 
ATOM      7  C   UNL     1      34.704 -18.666 -24.621  0.00  0.00    +0.040 C 
ENDROOT
BRANCH   2   8
ATOM      8  O   UNL     1      34.952 -15.205 -23.460  0.00  0.00    -0.503 OA
ATOM      9  H   UNL     1      35.121 -14.734 -22.668  0.00  0.00    +0.292 HD
ENDBRANCH   2   8
BRANCH   4  10
ATOM     10  O   UNL     1      34.827 -16.621 -25.834  0.00  0.00    -0.503 OA
ATOM     11  H   UNL     1      35.441 -15.927 -25.972  0.00  0.00    +0.292 HD
ENDBRANCH   4  10
TORSDOF 2
ENDMDL
MODEL 7
REMARK VINA RESULT:      -5.8      2.123      3.311
REMARK  Name = 340
REMARK  2 active torsions:
REMARK  status: ('A' for Active; 'I' for Inactive)
REMARK    1  A    between atoms: C_2  and  O_8
REMARK    2  A    between atoms: C_4  and  O_10
REMARK                            x       y       z     vdW  Elec       q    Type
REMARK                         _______ _______ _______ _____ _____    ______ ____
ROOT
ATOM      1  C   UNL     1      34.115 -21.325 -19.634  0.00  0.00    +0.015 C 
ATOM      2  C   UNL     1      35.433 -20.908 -19.822  0.00  0.00    +0.163 C 
ATOM      3  C   UNL     1      33.071 -20.632 -20.246  0.00  0.00    -0.001 C 
ATOM      4  C   UNL     1      35.706 -19.798 -20.621  0.00  0.00    +0.167 C 
ATOM      5  C   UNL     1      33.803 -22.511 -18.782  0.00  0.00    +0.034 C 
ATOM      6  C   UNL     1      33.344 -19.522 -21.046  0.00  0.00    +0.003 C 
ATOM      7  C   UNL     1      34.662 -19.105 -21.233  0.00  0.00    +0.040 C 
ENDROOT
BRANCH   2   8
ATOM      8  O   UNL     1      36.457 -21.583 -19.225  0.00  0.00    -0.503 OA
ATOM      9  H   UNL     1      36.530 -22.511 -19.327  0.00  0.00    +0.292 HD
ENDBRANCH   2   8
BRANCH   4  10
ATOM     10  O   UNL     1      36.989 -19.380 -20.812  0.00  0.00    -0.503 OA
ATOM     11  H   UNL     1      37.654 -19.612 -20.195  0.00  0.00    +0.292 HD
ENDBRANCH   4  10
TORSDOF 2
ENDMDL
MODEL 8
REMARK VINA RESULT:      -5.7      4.561      5.790
REMARK  Name = 340
REMARK  2 active torsions:
REMARK  status: ('A' for Active; 'I' for Inactive)
REMARK    1  A    between atoms: C_2  and  O_8
REMARK    2  A    between atoms: C_4  and  O_10
REMARK                            x       y       z     vdW  Elec       q    Type
REMARK                         _______ _______ _______ _____ _____    ______ ____
ROOT
ATOM      1  C   UNL     1      35.000 -18.722 -22.032  0.00  0.00    +0.015 C 
ATOM      2  C   UNL     1      35.063 -17.342 -21.842  0.00  0.00    +0.163 C 
ATOM      3  C   UNL     1      34.831 -19.243 -23.315  0.00  0.00    -0.001 C 
ATOM      4  C   UNL     1      34.957 -16.482 -22.935  0.00  0.00    +0.167 C 
ATOM      5  C   UNL     1      35.113 -19.659 -20.874  0.00  0.00    +0.034 C 
ATOM      6  C   UNL     1      34.724 -18.383 -24.408  0.00  0.00    +0.003 C 
ATOM      7  C   UNL     1      34.787 -17.002 -24.218  0.00  0.00    +0.040 C 
ENDROOT
BRANCH   2   8
ATOM      8  O   UNL     1      35.229 -16.830 -20.589  0.00  0.00    -0.503 OA
ATOM      9  H   UNL     1      36.023 -16.990 -20.118  0.00  0.00    +0.292 HD
ENDBRANCH   2   8
BRANCH   4  10
ATOM     10  O   UNL     1      35.017 -15.132 -22.763  0.00  0.00    -0.503 OA
ATOM     11  H   UNL     1      34.690 -14.745 -21.975  0.00  0.00    +0.292 HD
ENDBRANCH   4  10
TORSDOF 2
ENDMDL
MODEL 9
REMARK VINA RESULT:      -5.7      2.654      4.113
REMARK  Name = 340
REMARK  2 active torsions:
REMARK  status: ('A' for Active; 'I' for Inactive)
REMARK    1  A    between atoms: C_2  and  O_8
REMARK    2  A    between atoms: C_4  and  O_10
REMARK                            x       y       z     vdW  Elec       q    Type
REMARK                         _______ _______ _______ _____ _____    ______ ____
ROOT
ATOM      1  C   UNL     1      35.364 -20.836 -19.881  0.00  0.00    +0.015 C 
ATOM      2  C   UNL     1      35.447 -19.701 -20.687  0.00  0.00    +0.163 C 
ATOM      3  C   UNL     1      34.118 -21.389 -19.583  0.00  0.00    -0.001 C 
ATOM      4  C   UNL     1      34.286 -19.118 -21.194  0.00  0.00    +0.167 C 
ATOM      5  C   UNL     1      36.596 -21.474 -19.329  0.00  0.00    +0.034 C 
ATOM      6  C   UNL     1      32.957 -20.807 -20.090  0.00  0.00    +0.003 C 
ATOM      7  C   UNL     1      33.041 -19.671 -20.896  0.00  0.00    +0.040 C 
ENDROOT
BRANCH   2   8
ATOM      8  O   UNL     1      36.663 -19.157 -20.981  0.00  0.00    -0.503 OA
ATOM      9  H   UNL     1      36.718 -18.283 -21.313  0.00  0.00    +0.292 HD
ENDBRANCH   2   8
BRANCH   4  10
ATOM     10  O   UNL     1      34.354 -18.008 -21.982  0.00  0.00    -0.503 OA
ATOM     11  H   UNL     1      35.188 -17.664 -22.236  0.00  0.00    +0.292 HD
ENDBRANCH   4  10
TORSDOF 2
ENDMDL
