MODEL 1
REMARK VINA RESULT:      -8.9      0.000      0.000
REMARK  Name = 3292
REMARK  2 active torsions:
REMARK  status: ('A' for Active; 'I' for Inactive)
REMARK    1  A    between atoms: N_3  and  C_15
REMARK    2  A    between atoms: C_5  and  C_9
REMARK                            x       y       z     vdW  Elec       q    Type
REMARK                         _______ _______ _______ _____ _____    ______ ____
ROOT
ATOM      1  O   UNL     1      35.252 -16.515 -20.327  0.00  0.00    -0.272 OA
ATOM      2  O   UNL     1      34.747 -17.106 -24.867  0.00  0.00    -0.252 OA
ATOM      3  N   UNL     1      34.874 -16.432 -22.631  0.00  0.00    -0.213 N 
ATOM      4  N   UNL     1      35.526 -18.497 -23.163  0.00  0.00    -0.279 N 
ATOM      5  C   UNL     1      35.749 -18.428 -21.739  0.00  0.00    +0.173 C 
ATOM      6  C   UNL     1      35.270 -17.014 -21.444  0.00  0.00    +0.255 C 
ATOM      7  C   UNL     1      35.014 -17.309 -23.689  0.00  0.00    +0.310 C 
ATOM      8  H   UNL     1      35.715 -19.297 -23.706  0.00  0.00    +0.152 HD
ENDROOT
BRANCH   5   9
ATOM      9  C   UNL     1      34.964 -19.453 -21.003  0.00  0.00    +0.004 C 
ATOM     10  C   UNL     1      33.567 -19.403 -21.003  0.00  0.00    -0.002 C 
ATOM     11  C   UNL     1      35.617 -20.473 -20.307  0.00  0.00    -0.002 C 
ATOM     12  C   UNL     1      32.829 -20.365 -20.313  0.00  0.00    -0.000 C 
ATOM     13  C   UNL     1      34.881 -21.436 -19.616  0.00  0.00    -0.000 C 
ATOM     14  C   UNL     1      33.486 -21.382 -19.619  0.00  0.00    -0.000 C 
ENDBRANCH   5   9
BRANCH   3  15
ATOM     15  C   UNL     1      34.360 -15.083 -22.763  0.00  0.00    +0.103 C 
ATOM     16  C   UNL     1      32.931 -14.984 -22.270  0.00  0.00    +0.024 C 
ENDBRANCH   3  15
TORSDOF 2
ENDMDL
MODEL 2
REMARK VINA RESULT:      -8.8      0.008      1.248
REMARK  Name = 3292
REMARK  2 active torsions:
REMARK  status: ('A' for Active; 'I' for Inactive)
REMARK    1  A    between atoms: N_3  and  C_15
REMARK    2  A    between atoms: C_5  and  C_9
REMARK                            x       y       z     vdW  Elec       q    Type
REMARK                         _______ _______ _______ _____ _____    ______ ____
ROOT
ATOM      1  O   UNL     1      35.249 -16.515 -20.325  0.00  0.00    -0.272 OA
ATOM      2  O   UNL     1      34.757 -17.103 -24.866  0.00  0.00    -0.252 OA
ATOM      3  N   UNL     1      34.878 -16.431 -22.630  0.00  0.00    -0.213 N 
ATOM      4  N   UNL     1      35.528 -18.497 -23.161  0.00  0.00    -0.279 N 
ATOM      5  C   UNL     1      35.747 -18.428 -21.736  0.00  0.00    +0.173 C 
ATOM      6  C   UNL     1      35.269 -17.014 -21.442  0.00  0.00    +0.255 C 
ATOM      7  C   UNL     1      35.020 -17.308 -23.688  0.00  0.00    +0.310 C 
ATOM      8  H   UNL     1      35.717 -19.296 -23.704  0.00  0.00    +0.152 HD
ENDROOT
BRANCH   5   9
ATOM      9  C   UNL     1      34.958 -19.452 -21.003  0.00  0.00    +0.004 C 
ATOM     10  C   UNL     1      35.608 -20.474 -20.305  0.00  0.00    -0.002 C 
ATOM     11  C   UNL     1      33.562 -19.401 -21.007  0.00  0.00    -0.002 C 
ATOM     12  C   UNL     1      34.869 -21.436 -19.617  0.00  0.00    -0.000 C 
ATOM     13  C   UNL     1      32.821 -20.362 -20.319  0.00  0.00    -0.000 C 
ATOM     14  C   UNL     1      33.475 -21.380 -19.623  0.00  0.00    -0.000 C 
ENDBRANCH   5   9
BRANCH   3  15
ATOM     15  C   UNL     1      34.366 -15.081 -22.763  0.00  0.00    +0.103 C 
ATOM     16  C   UNL     1      32.937 -14.979 -22.270  0.00  0.00    +0.024 C 
ENDBRANCH   3  15
TORSDOF 2
ENDMDL
MODEL 3
REMARK VINA RESULT:      -8.3      1.156      1.828
REMARK  Name = 3292
REMARK  2 active torsions:
REMARK  status: ('A' for Active; 'I' for Inactive)
REMARK    1  A    between atoms: N_3  and  C_15
REMARK    2  A    between atoms: C_5  and  C_9
REMARK                            x       y       z     vdW  Elec       q    Type
REMARK                         _______ _______ _______ _____ _____    ______ ____
ROOT
ATOM      1  O   UNL     1      34.692 -15.647 -21.217  0.00  0.00    -0.272 OA
ATOM      2  O   UNL     1      34.265 -16.696 -25.682  0.00  0.00    -0.252 OA
ATOM      3  N   UNL     1      34.239 -15.856 -23.499  0.00  0.00    -0.213 N 
ATOM      4  N   UNL     1      35.497 -17.644 -23.940  0.00  0.00    -0.279 N 
ATOM      5  C   UNL     1      35.728 -17.404 -22.536  0.00  0.00    +0.173 C 
ATOM      6  C   UNL     1      34.834 -16.195 -22.302  0.00  0.00    +0.255 C 
ATOM      7  C   UNL     1      34.618 -16.719 -24.509  0.00  0.00    +0.310 C 
ATOM      8  H   UNL     1      35.913 -18.380 -24.444  0.00  0.00    +0.152 HD
ENDROOT
BRANCH   5   9
ATOM      9  C   UNL     1      35.333 -18.568 -21.701  0.00  0.00    +0.004 C 
ATOM     10  C   UNL     1      36.286 -19.234 -20.927  0.00  0.00    -0.002 C 
ATOM     11  C   UNL     1      34.005 -19.003 -21.685  0.00  0.00    -0.002 C 
ATOM     12  C   UNL     1      35.916 -20.326 -20.143  0.00  0.00    -0.000 C 
ATOM     13  C   UNL     1      33.633 -20.095 -20.901  0.00  0.00    -0.000 C 
ATOM     14  C   UNL     1      34.589 -20.757 -20.129  0.00  0.00    -0.000 C 
ENDBRANCH   5   9
BRANCH   3  15
ATOM     15  C   UNL     1      33.318 -14.751 -23.685  0.00  0.00    +0.103 C 
ATOM     16  C   UNL     1      34.052 -13.430 -23.783  0.00  0.00    +0.024 C 
ENDBRANCH   3  15
TORSDOF 2
ENDMDL
MODEL 4
REMARK VINA RESULT:      -8.1      2.338      5.147
REMARK  Name = 3292
REMARK  2 active torsions:
REMARK  status: ('A' for Active; 'I' for Inactive)
REMARK    1  A    between atoms: N_3  and  C_15
REMARK    2  A    between atoms: C_5  and  C_9
REMARK                            x       y       z     vdW  Elec       q    Type
REMARK                         _______ _______ _______ _____ _____    ______ ____
ROOT
ATOM      1  O   UNL     1      36.899 -19.166 -20.907  0.00  0.00    -0.272 OA
ATOM      2  O   UNL     1      32.936 -21.332 -20.002  0.00  0.00    -0.252 OA
ATOM      3  N   UNL     1      35.122 -20.565 -20.322  0.00  0.00    -0.213 N 
ATOM      4  N   UNL     1      33.429 -19.201 -20.816  0.00  0.00    -0.279 N 
ATOM      5  C   UNL     1      34.600 -18.412 -21.118  0.00  0.00    +0.173 C 
ATOM      6  C   UNL     1      35.705 -19.401 -20.779  0.00  0.00    +0.255 C 
ATOM      7  C   UNL     1      33.744 -20.474 -20.338  0.00  0.00    +0.310 C 
ATOM      8  H   UNL     1      32.507 -18.876 -20.935  0.00  0.00    +0.152 HD
ENDROOT
BRANCH   5   9
ATOM      9  C   UNL     1      34.636 -17.995 -22.544  0.00  0.00    +0.004 C 
ATOM     10  C   UNL     1      34.762 -16.643 -22.878  0.00  0.00    -0.002 C 
ATOM     11  C   UNL     1      34.543 -18.950 -23.559  0.00  0.00    -0.002 C 
ATOM     12  C   UNL     1      34.797 -16.250 -24.216  0.00  0.00    -0.000 C 
ATOM     13  C   UNL     1      34.577 -18.558 -24.898  0.00  0.00    -0.000 C 
ATOM     14  C   UNL     1      34.704 -17.208 -25.226  0.00  0.00    -0.000 C 
ENDBRANCH   5   9
BRANCH   3  15
ATOM     15  C   UNL     1      35.849 -21.744 -19.894  0.00  0.00    +0.103 C 
ATOM     16  C   UNL     1      36.300 -21.625 -18.453  0.00  0.00    +0.024 C 
ENDBRANCH   3  15
TORSDOF 2
ENDMDL
MODEL 5
REMARK VINA RESULT:      -7.5      9.066     10.942
REMARK  Name = 3292
REMARK  2 active torsions:
REMARK  status: ('A' for Active; 'I' for Inactive)
REMARK    1  A    between atoms: N_3  and  C_15
REMARK    2  A    between atoms: C_5  and  C_9
REMARK                            x       y       z     vdW  Elec       q    Type
REMARK                         _______ _______ _______ _____ _____    ______ ____
ROOT
ATOM      1  O   UNL     1      35.801 -24.955 -15.696  0.00  0.00    -0.272 OA
ATOM      2  O   UNL     1      36.014 -25.049 -11.096  0.00  0.00    -0.252 OA
ATOM      3  N   UNL     1      36.196 -25.278 -13.417  0.00  0.00    -0.213 N 
ATOM      4  N   UNL     1      34.757 -23.783 -12.600  0.00  0.00    -0.279 N 
ATOM      5  C   UNL     1      34.614 -23.645 -14.030  0.00  0.00    +0.173 C 
ATOM      6  C   UNL     1      35.601 -24.697 -14.517  0.00  0.00    +0.255 C 
ATOM      7  C   UNL     1      35.701 -24.747 -12.241  0.00  0.00    +0.310 C 
ATOM      8  H   UNL     1      34.243 -23.254 -11.948  0.00  0.00    +0.152 HD
ENDROOT
BRANCH   5   9
ATOM      9  C   UNL     1      33.226 -23.925 -14.479  0.00  0.00    +0.004 C 
ATOM     10  C   UNL     1      32.425 -24.826 -13.771  0.00  0.00    -0.002 C 
ATOM     11  C   UNL     1      32.712 -23.289 -15.613  0.00  0.00    -0.002 C 
ATOM     12  C   UNL     1      31.122 -25.088 -14.192  0.00  0.00    -0.000 C 
ATOM     13  C   UNL     1      31.408 -23.551 -16.035  0.00  0.00    -0.000 C 
ATOM     14  C   UNL     1      30.613 -24.451 -15.325  0.00  0.00    -0.000 C 
ENDBRANCH   5   9
BRANCH   3  15
ATOM     15  C   UNL     1      37.199 -26.323 -13.471  0.00  0.00    +0.103 C 
ATOM     16  C   UNL     1      38.600 -25.748 -13.450  0.00  0.00    +0.024 C 
ENDBRANCH   3  15
TORSDOF 2
ENDMDL
MODEL 6
REMARK VINA RESULT:      -7.5      9.060     10.914
REMARK  Name = 3292
REMARK  2 active torsions:
REMARK  status: ('A' for Active; 'I' for Inactive)
REMARK    1  A    between atoms: N_3  and  C_15
REMARK    2  A    between atoms: C_5  and  C_9
REMARK                            x       y       z     vdW  Elec       q    Type
REMARK                         _______ _______ _______ _____ _____    ______ ____
ROOT
ATOM      1  O   UNL     1      35.796 -24.947 -15.674  0.00  0.00    -0.272 OA
ATOM      2  O   UNL     1      35.975 -25.024 -11.073  0.00  0.00    -0.252 OA
ATOM      3  N   UNL     1      36.174 -25.262 -13.391  0.00  0.00    -0.213 N 
ATOM      4  N   UNL     1      34.729 -23.763 -12.591  0.00  0.00    -0.279 N 
ATOM      5  C   UNL     1      34.598 -23.631 -14.022  0.00  0.00    +0.173 C 
ATOM      6  C   UNL     1      35.587 -24.685 -14.498  0.00  0.00    +0.255 C 
ATOM      7  C   UNL     1      35.671 -24.726 -12.221  0.00  0.00    +0.310 C 
ATOM      8  H   UNL     1      34.211 -23.231 -11.944  0.00  0.00    +0.152 HD
ENDROOT
BRANCH   5   9
ATOM      9  C   UNL     1      33.213 -23.912 -14.481  0.00  0.00    +0.004 C 
ATOM     10  C   UNL     1      32.710 -23.284 -15.624  0.00  0.00    -0.002 C 
ATOM     11  C   UNL     1      32.404 -24.804 -13.772  0.00  0.00    -0.002 C 
ATOM     12  C   UNL     1      31.410 -23.547 -16.056  0.00  0.00    -0.000 C 
ATOM     13  C   UNL     1      31.103 -25.068 -14.203  0.00  0.00    -0.000 C 
ATOM     14  C   UNL     1      30.606 -24.439 -15.345  0.00  0.00    -0.000 C 
ENDBRANCH   5   9
BRANCH   3  15
ATOM     15  C   UNL     1      37.177 -26.308 -13.433  0.00  0.00    +0.103 C 
ATOM     16  C   UNL     1      38.579 -25.733 -13.404  0.00  0.00    +0.024 C 
ENDBRANCH   3  15
TORSDOF 2
ENDMDL
MODEL 7
REMARK VINA RESULT:      -7.5      1.455      2.698
REMARK  Name = 3292
REMARK  2 active torsions:
REMARK  status: ('A' for Active; 'I' for Inactive)
REMARK    1  A    between atoms: N_3  and  C_15
REMARK    2  A    between atoms: C_5  and  C_9
REMARK                            x       y       z     vdW  Elec       q    Type
REMARK                         _______ _______ _______ _____ _____    ______ ____
ROOT
ATOM      1  O   UNL     1      34.778 -19.583 -23.690  0.00  0.00    -0.272 OA
ATOM      2  O   UNL     1      34.363 -15.511 -21.578  0.00  0.00    -0.252 OA
ATOM      3  N   UNL     1      34.725 -17.366 -22.955  0.00  0.00    -0.213 N 
ATOM      4  N   UNL     1      33.780 -17.685 -20.961  0.00  0.00    -0.279 N 
ATOM      5  C   UNL     1      33.835 -19.011 -21.526  0.00  0.00    +0.173 C 
ATOM      6  C   UNL     1      34.502 -18.724 -22.864  0.00  0.00    +0.255 C 
ATOM      7  C   UNL     1      34.302 -16.711 -21.815  0.00  0.00    +0.310 C 
ATOM      8  H   UNL     1      33.413 -17.487 -20.069  0.00  0.00    +0.152 HD
ENDROOT
BRANCH   5   9
ATOM      9  C   UNL     1      34.636 -19.940 -20.686  0.00  0.00    +0.004 C 
ATOM     10  C   UNL     1      36.027 -19.812 -20.625  0.00  0.00    -0.002 C 
ATOM     11  C   UNL     1      34.004 -20.947 -19.951  0.00  0.00    -0.002 C 
ATOM     12  C   UNL     1      36.778 -20.682 -19.837  0.00  0.00    -0.000 C 
ATOM     13  C   UNL     1      34.755 -21.818 -19.163  0.00  0.00    -0.000 C 
ATOM     14  C   UNL     1      36.143 -21.686 -19.105  0.00  0.00    -0.000 C 
ENDBRANCH   5   9
BRANCH   3  15
ATOM     15  C   UNL     1      35.340 -16.701 -24.087  0.00  0.00    +0.103 C 
ATOM     16  C   UNL     1      34.328 -16.413 -25.178  0.00  0.00    +0.024 C 
ENDBRANCH   3  15
TORSDOF 2
ENDMDL
MODEL 8
REMARK VINA RESULT:      -7.3      4.177      6.773
REMARK  Name = 3292
REMARK  2 active torsions:
REMARK  status: ('A' for Active; 'I' for Inactive)
REMARK    1  A    between atoms: N_3  and  C_15
REMARK    2  A    between atoms: C_5  and  C_9
REMARK                            x       y       z     vdW  Elec       q    Type
REMARK                         _______ _______ _______ _____ _____    ______ ____
ROOT
ATOM      1  O   UNL     1      33.356 -23.168 -18.363  0.00  0.00    -0.272 OA
ATOM      2  O   UNL     1      37.186 -21.817 -16.190  0.00  0.00    -0.252 OA
ATOM      3  N   UNL     1      35.123 -22.631 -16.932  0.00  0.00    -0.213 N 
ATOM      4  N   UNL     1      36.525 -21.753 -18.428  0.00  0.00    -0.279 N 
ATOM      5  C   UNL     1      35.388 -22.152 -19.222  0.00  0.00    +0.173 C 
ATOM      6  C   UNL     1      34.473 -22.720 -18.146  0.00  0.00    +0.255 C 
ATOM      7  C   UNL     1      36.366 -22.045 -17.071  0.00  0.00    +0.310 C 
ATOM      8  H   UNL     1      37.326 -21.320 -18.802  0.00  0.00    +0.152 HD
ENDROOT
BRANCH   5   9
ATOM      9  C   UNL     1      34.774 -21.001 -19.933  0.00  0.00    +0.004 C 
ATOM     10  C   UNL     1      35.578 -20.099 -20.637  0.00  0.00    -0.002 C 
ATOM     11  C   UNL     1      33.390 -20.811 -19.902  0.00  0.00    -0.002 C 
ATOM     12  C   UNL     1      35.003 -19.018 -21.304  0.00  0.00    -0.000 C 
ATOM     13  C   UNL     1      32.814 -19.730 -20.569  0.00  0.00    -0.000 C 
ATOM     14  C   UNL     1      33.620 -18.833 -21.271  0.00  0.00    -0.000 C 
ENDBRANCH   5   9
BRANCH   3  15
ATOM     15  C   UNL     1      34.577 -23.075 -15.665  0.00  0.00    +0.103 C 
ATOM     16  C   UNL     1      35.093 -24.448 -15.289  0.00  0.00    +0.024 C 
ENDBRANCH   3  15
TORSDOF 2
ENDMDL
MODEL 9
REMARK VINA RESULT:      -7.3      8.620     10.026
REMARK  Name = 3292
REMARK  2 active torsions:
REMARK  status: ('A' for Active; 'I' for Inactive)
REMARK    1  A    between atoms: N_3  and  C_15
REMARK    2  A    between atoms: C_5  and  C_9
REMARK                            x       y       z     vdW  Elec       q    Type
REMARK                         _______ _______ _______ _____ _____    ______ ____
ROOT
ATOM      1  O   UNL     1      34.060 -23.872 -16.718  0.00  0.00    -0.272 OA
ATOM      2  O   UNL     1      34.822 -24.564 -12.229  0.00  0.00    -0.252 OA
ATOM      3  N   UNL     1      34.773 -24.423 -14.562  0.00  0.00    -0.213 N 
ATOM      4  N   UNL     1      33.179 -23.388 -13.395  0.00  0.00    -0.279 N 
ATOM      5  C   UNL     1      32.847 -23.084 -14.766  0.00  0.00    +0.173 C 
ATOM      6  C   UNL     1      33.953 -23.829 -15.500  0.00  0.00    +0.255 C 
ATOM      7  C   UNL     1      34.325 -24.177 -13.279  0.00  0.00    +0.310 C 
ATOM      8  H   UNL     1      32.653 -23.074 -12.624  0.00  0.00    +0.152 HD
ENDROOT
BRANCH   5   9
ATOM      9  C   UNL     1      31.495 -23.579 -15.134  0.00  0.00    +0.004 C 
ATOM     10  C   UNL     1      30.714 -22.875 -16.055  0.00  0.00    -0.002 C 
ATOM     11  C   UNL     1      30.995 -24.752 -14.561  0.00  0.00    -0.002 C 
ATOM     12  C   UNL     1      29.445 -23.339 -16.400  0.00  0.00    -0.000 C 
ATOM     13  C   UNL     1      29.726 -25.217 -14.906  0.00  0.00    -0.000 C 
ATOM     14  C   UNL     1      28.951 -24.510 -15.826  0.00  0.00    -0.000 C 
ENDBRANCH   5   9
BRANCH   3  15
ATOM     15  C   UNL     1      35.944 -25.220 -14.870  0.00  0.00    +0.103 C 
ATOM     16  C   UNL     1      37.192 -24.365 -14.942  0.00  0.00    +0.024 C 
ENDBRANCH   3  15
TORSDOF 2
ENDMDL
