MODEL 1
REMARK VINA RESULT:     -10.2      0.000      0.000
REMARK  Name = 54676478
REMARK  3 active torsions:
REMARK  status: ('A' for Active; 'I' for Inactive)
REMARK    1  A    between atoms: C_5  and  C_15
REMARK    2  A    between atoms: C_6  and  O_23
REMARK    3  A    between atoms: N_14  and  C_17
REMARK                            x       y       z     vdW  Elec       q    Type
REMARK                         _______ _______ _______ _____ _____    ______ ____
ROOT
ATOM      1  O   UNL     1      31.620 -13.030 -21.964  0.00  0.00    -0.267 OA
ATOM      2  N   UNL     1      32.095 -10.762 -22.032  0.00  0.00    -0.293 N 
ATOM      3  C   UNL     1      32.832  -9.690 -22.622  0.00  0.00    +0.065 A 
ATOM      4  C   UNL     1      33.739  -9.969 -23.656  0.00  0.00    +0.050 A 
ATOM      5  C   UNL     1      33.214 -12.361 -23.561  0.00  0.00    +0.143 A 
ATOM      6  C   UNL     1      33.916 -11.358 -24.118  0.00  0.00    +0.144 A 
ATOM      7  C   UNL     1      32.242 -12.085 -22.451  0.00  0.00    +0.268 A 
ATOM      8  C   UNL     1      32.673  -8.359 -22.192  0.00  0.00    +0.017 C 
ATOM      9  C   UNL     1      34.464  -8.910 -24.235  0.00  0.00    +0.004 C 
ATOM     10  C   UNL     1      31.154 -10.464 -20.952  0.00  0.00    +0.134 C 
ATOM     11  C   UNL     1      33.400  -7.322 -22.777  0.00  0.00    +0.001 C 
ATOM     12  C   UNL     1      34.296  -7.597 -23.799  0.00  0.00    +0.000 C 
ENDROOT
BRANCH   5  15
ATOM     13  O   UNL     1      32.879 -14.043 -25.115  0.00  0.00    -0.269 OA
ATOM     14  N   UNL     1      34.108 -14.618 -23.190  0.00  0.00    -0.253 N 
ATOM     15  C   UNL     1      33.382 -13.752 -24.028  0.00  0.00    +0.260 C 
ATOM     16  C   UNL     1      34.665 -14.157 -21.908  0.00  0.00    +0.120 C 
BRANCH  14  17
ATOM     17  C   UNL     1      34.313 -15.998 -23.600  0.00  0.00    +0.054 C 
ATOM     18  C   UNL     1      34.216 -16.347 -24.947  0.00  0.00    +0.015 C 
ATOM     19  C   UNL     1      34.604 -16.973 -22.645  0.00  0.00    +0.015 C 
ATOM     20  C   UNL     1      34.412 -17.671 -25.340  0.00  0.00    +0.001 C 
ATOM     21  C   UNL     1      34.800 -18.296 -23.038  0.00  0.00    +0.001 C 
ATOM     22  C   UNL     1      34.704 -18.645 -24.386  0.00  0.00    +0.000 C 
ENDBRANCH  14  17
ENDBRANCH   5  15
BRANCH   6  23
ATOM     23  O   UNL     1      34.840 -11.500 -25.133  0.00  0.00    -0.505 OA
ATOM     24  H   UNL     1      34.857 -12.283 -25.646  0.00  0.00    +0.292 HD
ENDBRANCH   6  23
TORSDOF 3
ENDMDL
MODEL 2
REMARK VINA RESULT:      -9.9      4.135      6.872
REMARK  Name = 54676478
REMARK  3 active torsions:
REMARK  status: ('A' for Active; 'I' for Inactive)
REMARK    1  A    between atoms: C_5  and  C_15
REMARK    2  A    between atoms: C_6  and  O_23
REMARK    3  A    between atoms: N_14  and  C_17
REMARK                            x       y       z     vdW  Elec       q    Type
REMARK                         _______ _______ _______ _____ _____    ______ ____
ROOT
ATOM      1  O   UNL     1      34.938 -19.512 -23.699  0.00  0.00    -0.267 OA
ATOM      2  N   UNL     1      34.426 -17.321 -24.257  0.00  0.00    -0.293 N 
ATOM      3  C   UNL     1      34.230 -15.971 -23.834  0.00  0.00    +0.065 A 
ATOM      4  C   UNL     1      34.376 -15.651 -22.475  0.00  0.00    +0.050 A 
ATOM      5  C   UNL     1      34.916 -17.975 -21.917  0.00  0.00    +0.143 A 
ATOM      6  C   UNL     1      34.728 -16.707 -21.509  0.00  0.00    +0.144 A 
ATOM      7  C   UNL     1      34.762 -18.340 -23.365  0.00  0.00    +0.268 A 
ATOM      8  C   UNL     1      33.895 -14.952 -24.745  0.00  0.00    +0.017 C 
ATOM      9  C   UNL     1      34.182 -14.320 -22.061  0.00  0.00    +0.004 C 
ATOM     10  C   UNL     1      34.269 -17.649 -25.674  0.00  0.00    +0.134 C 
ATOM     11  C   UNL     1      33.706 -13.638 -24.316  0.00  0.00    +0.001 C 
ATOM     12  C   UNL     1      33.850 -13.321 -22.974  0.00  0.00    +0.000 C 
ENDROOT
BRANCH   5  15
ATOM     13  O   UNL     1      36.462 -19.102 -20.614  0.00  0.00    -0.269 OA
ATOM     14  N   UNL     1      34.237 -19.866 -20.503  0.00  0.00    -0.253 N 
ATOM     15  C   UNL     1      35.279 -19.034 -20.953  0.00  0.00    +0.260 C 
ATOM     16  C   UNL     1      32.855 -19.690 -20.980  0.00  0.00    +0.120 C 
BRANCH  14  17
ATOM     17  C   UNL     1      34.532 -20.921 -19.549  0.00  0.00    +0.054 C 
ATOM     18  C   UNL     1      35.835 -21.099 -19.085  0.00  0.00    +0.015 C 
ATOM     19  C   UNL     1      33.510 -21.758 -19.097  0.00  0.00    +0.015 C 
ATOM     20  C   UNL     1      36.118 -22.112 -18.169  0.00  0.00    +0.001 C 
ATOM     21  C   UNL     1      33.793 -22.771 -18.181  0.00  0.00    +0.001 C 
ATOM     22  C   UNL     1      35.097 -22.948 -17.717  0.00  0.00    +0.000 C 
ENDBRANCH  14  17
ENDBRANCH   5  15
BRANCH   6  23
ATOM     23  O   UNL     1      34.834 -16.266 -20.206  0.00  0.00    -0.505 OA
ATOM     24  H   UNL     1      34.149 -15.749 -19.829  0.00  0.00    +0.292 HD
ENDBRANCH   6  23
TORSDOF 3
ENDMDL
MODEL 3
REMARK VINA RESULT:      -9.7      3.589      5.861
REMARK  Name = 54676478
REMARK  3 active torsions:
REMARK  status: ('A' for Active; 'I' for Inactive)
REMARK    1  A    between atoms: C_5  and  C_15
REMARK    2  A    between atoms: C_6  and  O_23
REMARK    3  A    between atoms: N_14  and  C_17
REMARK                            x       y       z     vdW  Elec       q    Type
REMARK                         _______ _______ _______ _____ _____    ______ ____
ROOT
ATOM      1  O   UNL     1      34.856 -15.791 -20.471  0.00  0.00    -0.267 OA
ATOM      2  N   UNL     1      34.175 -14.652 -22.372  0.00  0.00    -0.293 N 
ATOM      3  C   UNL     1      33.863 -14.688 -23.766  0.00  0.00    +0.065 A 
ATOM      4  C   UNL     1      33.970 -15.902 -24.462  0.00  0.00    +0.050 A 
ATOM      5  C   UNL     1      34.686 -17.078 -22.434  0.00  0.00    +0.143 A 
ATOM      6  C   UNL     1      34.399 -17.118 -23.748  0.00  0.00    +0.144 A 
ATOM      7  C   UNL     1      34.582 -15.789 -21.672  0.00  0.00    +0.268 A 
ATOM      8  C   UNL     1      33.452 -13.535 -24.461  0.00  0.00    +0.017 C 
ATOM      9  C   UNL     1      33.662 -15.934 -25.835  0.00  0.00    +0.004 C 
ATOM     10  C   UNL     1      34.066 -13.383 -21.654  0.00  0.00    +0.134 C 
ATOM     11  C   UNL     1      33.151 -13.584 -25.822  0.00  0.00    +0.001 C 
ATOM     12  C   UNL     1      33.256 -14.783 -26.510  0.00  0.00    +0.000 C 
ENDROOT
BRANCH   5  15
ATOM     13  O   UNL     1      36.299 -18.603 -21.780  0.00  0.00    -0.269 OA
ATOM     14  N   UNL     1      34.107 -18.994 -21.010  0.00  0.00    -0.253 N 
ATOM     15  C   UNL     1      35.106 -18.297 -21.713  0.00  0.00    +0.260 C 
ATOM     16  C   UNL     1      32.710 -18.531 -21.003  0.00  0.00    +0.120 C 
BRANCH  14  17
ATOM     17  C   UNL     1      34.463 -20.197 -20.277  0.00  0.00    +0.054 C 
ATOM     18  C   UNL     1      33.464 -21.057 -19.821  0.00  0.00    +0.015 C 
ATOM     19  C   UNL     1      35.804 -20.491 -20.028  0.00  0.00    +0.015 C 
ATOM     20  C   UNL     1      33.805 -22.211 -19.116  0.00  0.00    +0.001 C 
ATOM     21  C   UNL     1      36.145 -21.645 -19.323  0.00  0.00    +0.001 C 
ATOM     22  C   UNL     1      35.145 -22.506 -18.868  0.00  0.00    +0.000 C 
ENDBRANCH  14  17
ENDBRANCH   5  15
BRANCH   6  23
ATOM     23  O   UNL     1      34.471 -18.243 -24.544  0.00  0.00    -0.505 OA
ATOM     24  H   UNL     1      33.723 -18.517 -25.038  0.00  0.00    +0.292 HD
ENDBRANCH   6  23
TORSDOF 3
ENDMDL
MODEL 4
REMARK VINA RESULT:      -9.3      1.462      7.217
REMARK  Name = 54676478
REMARK  3 active torsions:
REMARK  status: ('A' for Active; 'I' for Inactive)
REMARK    1  A    between atoms: C_5  and  C_15
REMARK    2  A    between atoms: C_6  and  O_23
REMARK    3  A    between atoms: N_14  and  C_17
REMARK                            x       y       z     vdW  Elec       q    Type
REMARK                         _______ _______ _______ _____ _____    ______ ____
ROOT
ATOM      1  O   UNL     1      32.210 -13.269 -25.824  0.00  0.00    -0.267 OA
ATOM      2  N   UNL     1      33.179 -15.354 -25.528  0.00  0.00    -0.293 N 
ATOM      3  C   UNL     1      33.995 -16.215 -24.731  0.00  0.00    +0.065 A 
ATOM      4  C   UNL     1      34.549 -15.724 -23.538  0.00  0.00    +0.050 A 
ATOM      5  C   UNL     1      33.510 -13.532 -23.880  0.00  0.00    +0.143 A 
ATOM      6  C   UNL     1      34.283 -14.334 -23.127  0.00  0.00    +0.144 A 
ATOM      7  C   UNL     1      32.910 -14.035 -25.160  0.00  0.00    +0.268 A 
ATOM      8  C   UNL     1      34.257 -17.545 -25.111  0.00  0.00    +0.017 C 
ATOM      9  C   UNL     1      35.352 -16.575 -22.756  0.00  0.00    +0.004 C 
ATOM     10  C   UNL     1      32.607 -15.871 -26.770  0.00  0.00    +0.134 C 
ATOM     11  C   UNL     1      35.056 -18.374 -24.323  0.00  0.00    +0.001 C 
ATOM     12  C   UNL     1      35.604 -17.890 -23.146  0.00  0.00    +0.000 C 
ENDROOT
BRANCH   5  15
ATOM     13  O   UNL     1      32.507 -11.984 -22.481  0.00  0.00    -0.269 OA
ATOM     14  N   UNL     1      33.830 -11.121 -24.228  0.00  0.00    -0.253 N 
ATOM     15  C   UNL     1      33.233 -12.141 -23.465  0.00  0.00    +0.260 C 
ATOM     16  C   UNL     1      34.681 -11.430 -25.389  0.00  0.00    +0.120 C 
BRANCH  14  17
ATOM     17  C   UNL     1      33.599  -9.733 -23.864  0.00  0.00    +0.054 C 
ATOM     18  C   UNL     1      32.316  -9.305 -23.523  0.00  0.00    +0.015 C 
ATOM     19  C   UNL     1      34.662  -8.829 -23.856  0.00  0.00    +0.015 C 
ATOM     20  C   UNL     1      32.095  -7.973 -23.173  0.00  0.00    +0.001 C 
ATOM     21  C   UNL     1      34.441  -7.497 -23.506  0.00  0.00    +0.001 C 
ATOM     22  C   UNL     1      33.157  -7.069 -23.165  0.00  0.00    +0.000 C 
ENDBRANCH  14  17
ENDBRANCH   5  15
BRANCH   6  23
ATOM     23  O   UNL     1      34.891 -13.972 -21.942  0.00  0.00    -0.505 OA
ATOM     24  H   UNL     1      35.793 -13.718 -21.936  0.00  0.00    +0.292 HD
ENDBRANCH   6  23
TORSDOF 3
ENDMDL
MODEL 5
REMARK VINA RESULT:      -9.1      2.709      7.929
REMARK  Name = 54676478
REMARK  3 active torsions:
REMARK  status: ('A' for Active; 'I' for Inactive)
REMARK    1  A    between atoms: C_5  and  C_15
REMARK    2  A    between atoms: C_6  and  O_23
REMARK    3  A    between atoms: N_14  and  C_17
REMARK                            x       y       z     vdW  Elec       q    Type
REMARK                         _______ _______ _______ _____ _____    ______ ____
ROOT
ATOM      1  O   UNL     1      31.623  -8.821 -20.817  0.00  0.00    -0.267 OA
ATOM      2  N   UNL     1      31.947 -11.071 -21.271  0.00  0.00    -0.293 N 
ATOM      3  C   UNL     1      32.463 -12.074 -22.148  0.00  0.00    +0.065 A 
ATOM      4  C   UNL     1      33.102 -11.684 -23.335  0.00  0.00    +0.050 A 
ATOM      5  C   UNL     1      32.746  -9.314 -22.826  0.00  0.00    +0.143 A 
ATOM      6  C   UNL     1      33.231 -10.252 -23.659  0.00  0.00    +0.144 A 
ATOM      7  C   UNL     1      32.057  -9.709 -21.553  0.00  0.00    +0.268 A 
ATOM      8  C   UNL     1      32.349 -13.446 -21.851  0.00  0.00    +0.017 C 
ATOM      9  C   UNL     1      33.610 -12.675 -24.197  0.00  0.00    +0.004 C 
ATOM     10  C   UNL     1      31.279 -11.485 -20.037  0.00  0.00    +0.134 C 
ATOM     11  C   UNL     1      32.857 -14.414 -22.717  0.00  0.00    +0.001 C 
ATOM     12  C   UNL     1      33.488 -14.029 -23.890  0.00  0.00    +0.000 C 
ENDROOT
BRANCH   5  15
ATOM     13  O   UNL     1      33.952  -7.338 -22.850  0.00  0.00    -0.269 OA
ATOM     14  N   UNL     1      31.780  -7.257 -23.759  0.00  0.00    -0.253 N 
ATOM     15  C   UNL     1      32.883  -7.877 -23.143  0.00  0.00    +0.260 C 
ATOM     16  C   UNL     1      30.550  -8.006 -24.062  0.00  0.00    +0.120 C 
BRANCH  14  17
ATOM     17  C   UNL     1      31.858  -5.846 -24.101  0.00  0.00    +0.054 C 
ATOM     18  C   UNL     1      32.383  -5.455 -25.333  0.00  0.00    +0.015 C 
ATOM     19  C   UNL     1      31.409  -4.884 -23.196  0.00  0.00    +0.015 C 
ATOM     20  C   UNL     1      32.457  -4.102 -25.661  0.00  0.00    +0.001 C 
ATOM     21  C   UNL     1      31.484  -3.530 -23.524  0.00  0.00    +0.001 C 
ATOM     22  C   UNL     1      32.008  -3.139 -24.757  0.00  0.00    +0.000 C 
ENDBRANCH  14  17
ENDBRANCH   5  15
BRANCH   6  23
ATOM     23  O   UNL     1      33.871 -10.001 -24.856  0.00  0.00    -0.505 OA
ATOM     24  H   UNL     1      34.126  -9.128 -25.077  0.00  0.00    +0.292 HD
ENDBRANCH   6  23
TORSDOF 3
ENDMDL
MODEL 6
REMARK VINA RESULT:      -9.0     12.022     15.127
REMARK  Name = 54676478
REMARK  3 active torsions:
REMARK  status: ('A' for Active; 'I' for Inactive)
REMARK    1  A    between atoms: C_5  and  C_15
REMARK    2  A    between atoms: C_6  and  O_23
REMARK    3  A    between atoms: N_14  and  C_17
REMARK                            x       y       z     vdW  Elec       q    Type
REMARK                         _______ _______ _______ _____ _____    ______ ____
ROOT
ATOM      1  O   UNL     1      35.130 -22.833 -17.079  0.00  0.00    -0.267 OA
ATOM      2  N   UNL     1      32.866 -23.106 -16.658  0.00  0.00    -0.293 N 
ATOM      3  C   UNL     1      31.838 -23.545 -15.769  0.00  0.00    +0.065 A 
ATOM      4  C   UNL     1      32.194 -24.097 -14.529  0.00  0.00    +0.050 A 
ATOM      5  C   UNL     1      34.579 -23.793 -15.002  0.00  0.00    +0.143 A 
ATOM      6  C   UNL     1      33.616 -24.214 -14.162  0.00  0.00    +0.144 A 
ATOM      7  C   UNL     1      34.220 -23.203 -16.335  0.00  0.00    +0.268 A 
ATOM      8  C   UNL     1      30.475 -23.439 -16.106  0.00  0.00    +0.017 C 
ATOM      9  C   UNL     1      31.178 -24.529 -13.655  0.00  0.00    +0.004 C 
ATOM     10  C   UNL     1      32.489 -22.535 -17.951  0.00  0.00    +0.134 C 
ATOM     11  C   UNL     1      29.482 -23.873 -15.228  0.00  0.00    +0.001 C 
ATOM     12  C   UNL     1      29.832 -24.418 -14.002  0.00  0.00    +0.000 C 
ENDROOT
BRANCH   5  15
ATOM     13  O   UNL     1      36.519 -22.918 -14.094  0.00  0.00    -0.269 OA
ATOM     14  N   UNL     1      36.646 -25.118 -14.926  0.00  0.00    -0.253 N 
ATOM     15  C   UNL     1      36.005 -23.901 -14.634  0.00  0.00    +0.260 C 
ATOM     16  C   UNL     1      35.927 -26.226 -15.576  0.00  0.00    +0.120 C 
BRANCH  14  17
ATOM     17  C   UNL     1      38.047 -25.285 -14.580  0.00  0.00    +0.054 C 
ATOM     18  C   UNL     1      38.402 -25.790 -13.330  0.00  0.00    +0.015 C 
ATOM     19  C   UNL     1      39.038 -24.938 -15.500  0.00  0.00    +0.015 C 
ATOM     20  C   UNL     1      39.747 -25.950 -12.998  0.00  0.00    +0.001 C 
ATOM     21  C   UNL     1      40.383 -25.098 -15.168  0.00  0.00    +0.001 C 
ATOM     22  C   UNL     1      40.738 -25.605 -13.916  0.00  0.00    +0.000 C 
ENDBRANCH  14  17
ENDBRANCH   5  15
BRANCH   6  23
ATOM     23  O   UNL     1      33.833 -24.779 -12.922  0.00  0.00    -0.505 OA
ATOM     24  H   UNL     1      34.539 -25.382 -12.798  0.00  0.00    +0.292 HD
ENDBRANCH   6  23
TORSDOF 3
ENDMDL
MODEL 7
REMARK VINA RESULT:      -9.0      0.817      2.747
REMARK  Name = 54676478
REMARK  3 active torsions:
REMARK  status: ('A' for Active; 'I' for Inactive)
REMARK    1  A    between atoms: C_5  and  C_15
REMARK    2  A    between atoms: C_6  and  O_23
REMARK    3  A    between atoms: N_14  and  C_17
REMARK                            x       y       z     vdW  Elec       q    Type
REMARK                         _______ _______ _______ _____ _____    ______ ____
ROOT
ATOM      1  O   UNL     1      34.523 -11.884 -25.215  0.00  0.00    -0.267 OA
ATOM      2  N   UNL     1      33.690 -10.289 -23.753  0.00  0.00    -0.293 N 
ATOM      3  C   UNL     1      32.894  -9.987 -22.606  0.00  0.00    +0.065 A 
ATOM      4  C   UNL     1      32.239 -11.030 -21.933  0.00  0.00    +0.050 A 
ATOM      5  C   UNL     1      33.136 -12.691 -23.494  0.00  0.00    +0.143 A 
ATOM      6  C   UNL     1      32.380 -12.415 -22.416  0.00  0.00    +0.144 A 
ATOM      7  C   UNL     1      33.843 -11.591 -24.230  0.00  0.00    +0.268 A 
ATOM      8  C   UNL     1      32.750  -8.669 -22.132  0.00  0.00    +0.017 C 
ATOM      9  C   UNL     1      31.455 -10.728 -20.803  0.00  0.00    +0.004 C 
ATOM     10  C   UNL     1      34.368  -9.197 -24.452  0.00  0.00    +0.134 C 
ATOM     11  C   UNL     1      31.969  -8.389 -21.011  0.00  0.00    +0.001 C 
ATOM     12  C   UNL     1      31.321  -9.418 -20.346  0.00  0.00    +0.000 C 
ENDROOT
BRANCH   5  15
ATOM     13  O   UNL     1      32.689 -14.383 -25.009  0.00  0.00    -0.269 OA
ATOM     14  N   UNL     1      34.111 -14.928 -23.212  0.00  0.00    -0.253 N 
ATOM     15  C   UNL     1      33.289 -14.080 -23.975  0.00  0.00    +0.260 C 
ATOM     16  C   UNL     1      34.779 -14.453 -21.989  0.00  0.00    +0.120 C 
BRANCH  14  17
ATOM     17  C   UNL     1      34.304 -16.304 -23.640  0.00  0.00    +0.054 C 
ATOM     18  C   UNL     1      34.548 -17.300 -22.695  0.00  0.00    +0.015 C 
ATOM     19  C   UNL     1      34.246 -16.627 -24.996  0.00  0.00    +0.015 C 
ATOM     20  C   UNL     1      34.734 -18.620 -23.106  0.00  0.00    +0.001 C 
ATOM     21  C   UNL     1      34.432 -17.947 -25.407  0.00  0.00    +0.001 C 
ATOM     22  C   UNL     1      34.676 -18.944 -24.461  0.00  0.00    +0.000 C 
ENDBRANCH  14  17
ENDBRANCH   5  15
BRANCH   6  23
ATOM     23  O   UNL     1      31.681 -13.344 -21.674  0.00  0.00    -0.505 OA
ATOM     24  H   UNL     1      31.303 -14.092 -22.093  0.00  0.00    +0.292 HD
ENDBRANCH   6  23
TORSDOF 3
ENDMDL
MODEL 8
REMARK VINA RESULT:      -8.9      1.439      6.966
REMARK  Name = 54676478
REMARK  3 active torsions:
REMARK  status: ('A' for Active; 'I' for Inactive)
REMARK    1  A    between atoms: C_5  and  C_15
REMARK    2  A    between atoms: C_6  and  O_23
REMARK    3  A    between atoms: N_14  and  C_17
REMARK                            x       y       z     vdW  Elec       q    Type
REMARK                         _______ _______ _______ _____ _____    ______ ____
ROOT
ATOM      1  O   UNL     1      33.294 -13.510 -20.485  0.00  0.00    -0.267 OA
ATOM      2  N   UNL     1      34.024 -15.288 -21.783  0.00  0.00    -0.293 N 
ATOM      3  C   UNL     1      34.143 -15.882 -23.076  0.00  0.00    +0.065 A 
ATOM      4  C   UNL     1      33.627 -15.204 -24.192  0.00  0.00    +0.050 A 
ATOM      5  C   UNL     1      32.870 -13.340 -22.793  0.00  0.00    +0.143 A 
ATOM      6  C   UNL     1      32.973 -13.896 -24.014  0.00  0.00    +0.144 A 
ATOM      7  C   UNL     1      33.412 -14.049 -21.587  0.00  0.00    +0.268 A 
ATOM      8  C   UNL     1      34.766 -17.131 -23.261  0.00  0.00    +0.017 C 
ATOM      9  C   UNL     1      33.747 -15.793 -25.465  0.00  0.00    +0.004 C 
ATOM     10  C   UNL     1      34.561 -16.000 -20.624  0.00  0.00    +0.134 C 
ATOM     11  C   UNL     1      34.875 -17.699 -24.531  0.00  0.00    +0.001 C 
ATOM     12  C   UNL     1      34.365 -17.031 -25.633  0.00  0.00    +0.000 C 
ENDROOT
BRANCH   5  15
ATOM     13  O   UNL     1      31.114 -12.014 -22.075  0.00  0.00    -0.269 OA
ATOM     14  N   UNL     1      32.937 -10.900 -23.067  0.00  0.00    -0.253 N 
ATOM     15  C   UNL     1      32.223 -12.024 -22.613  0.00  0.00    +0.260 C 
ATOM     16  C   UNL     1      34.261 -11.036 -23.697  0.00  0.00    +0.120 C 
BRANCH  14  17
ATOM     17  C   UNL     1      32.355  -9.578 -22.910  0.00  0.00    +0.054 C 
ATOM     18  C   UNL     1      31.709  -8.968 -23.985  0.00  0.00    +0.015 C 
ATOM     19  C   UNL     1      32.444  -8.918 -21.684  0.00  0.00    +0.015 C 
ATOM     20  C   UNL     1      31.151  -7.699 -23.835  0.00  0.00    +0.001 C 
ATOM     21  C   UNL     1      31.885  -7.649 -21.533  0.00  0.00    +0.001 C 
ATOM     22  C   UNL     1      31.238  -7.039 -22.609  0.00  0.00    +0.000 C 
ENDBRANCH  14  17
ENDBRANCH   5  15
BRANCH   6  23
ATOM     23  O   UNL     1      32.502 -13.338 -25.185  0.00  0.00    -0.505 OA
ATOM     24  H   UNL     1      31.581 -13.312 -25.355  0.00  0.00    +0.292 HD
ENDBRANCH   6  23
TORSDOF 3
ENDMDL
MODEL 9
REMARK VINA RESULT:      -8.9      9.714     13.856
REMARK  Name = 54676478
REMARK  3 active torsions:
REMARK  status: ('A' for Active; 'I' for Inactive)
REMARK    1  A    between atoms: C_5  and  C_15
REMARK    2  A    between atoms: C_6  and  O_23
REMARK    3  A    between atoms: N_14  and  C_17
REMARK                            x       y       z     vdW  Elec       q    Type
REMARK                         _______ _______ _______ _____ _____    ______ ____
ROOT
ATOM      1  O   UNL     1      33.922 -22.598 -15.285  0.00  0.00    -0.267 OA
ATOM      2  N   UNL     1      35.218 -23.988 -13.957  0.00  0.00    -0.293 N 
ATOM      3  C   UNL     1      36.490 -24.585 -13.698  0.00  0.00    +0.065 A 
ATOM      4  C   UNL     1      37.566 -24.304 -14.554  0.00  0.00    +0.050 A 
ATOM      5  C   UNL     1      36.170 -22.840 -15.938  0.00  0.00    +0.143 A 
ATOM      6  C   UNL     1      37.369 -23.403 -15.704  0.00  0.00    +0.144 A 
ATOM      7  C   UNL     1      35.005 -23.129 -15.036  0.00  0.00    +0.268 A 
ATOM      8  C   UNL     1      36.692 -25.447 -12.604  0.00  0.00    +0.017 C 
ATOM      9  C   UNL     1      38.818 -24.895 -14.296  0.00  0.00    +0.004 C 
ATOM     10  C   UNL     1      34.100 -24.286 -13.062  0.00  0.00    +0.134 C 
ATOM     11  C   UNL     1      37.940 -26.024 -12.364  0.00  0.00    +0.001 C 
ATOM     12  C   UNL     1      39.002 -25.747 -13.210  0.00  0.00    +0.000 C 
ENDROOT
BRANCH   5  15
ATOM     13  O   UNL     1      36.676 -20.916 -17.120  0.00  0.00    -0.269 OA
ATOM     14  N   UNL     1      35.003 -22.302 -18.031  0.00  0.00    -0.253 N 
ATOM     15  C   UNL     1      35.972 -21.928 -17.083  0.00  0.00    +0.260 C 
ATOM     16  C   UNL     1      34.220 -23.540 -17.880  0.00  0.00    +0.120 C 
BRANCH  14  17
ATOM     17  C   UNL     1      34.769 -21.447 -19.183  0.00  0.00    +0.054 C 
ATOM     18  C   UNL     1      35.848 -20.954 -19.916  0.00  0.00    +0.015 C 
ATOM     19  C   UNL     1      33.465 -21.120 -19.555  0.00  0.00    +0.015 C 
ATOM     20  C   UNL     1      35.624 -20.133 -21.021  0.00  0.00    +0.001 C 
ATOM     21  C   UNL     1      33.240 -20.300 -20.660  0.00  0.00    +0.001 C 
ATOM     22  C   UNL     1      34.320 -19.807 -21.394  0.00  0.00    +0.000 C 
ENDBRANCH  14  17
ENDBRANCH   5  15
BRANCH   6  23
ATOM     23  O   UNL     1      38.500 -23.215 -16.471  0.00  0.00    -0.505 OA
ATOM     24  H   UNL     1      39.340 -23.463 -16.138  0.00  0.00    +0.292 HD
ENDBRANCH   6  23
TORSDOF 3
ENDMDL
