MODEL 1
REMARK VINA RESULT:     -10.6      0.000      0.000
REMARK  Name = 16662431
REMARK  6 active torsions:
REMARK  status: ('A' for Active; 'I' for Inactive)
REMARK    1  A    between atoms: N_2  and  C_26
REMARK    2  A    between atoms: C_10  and  C_16
REMARK    3  A    between atoms: C_26  and  C_27
REMARK    4  A    between atoms: C_27  and  N_28
REMARK    5  A    between atoms: N_28  and  C_30
REMARK    6  A    between atoms: N_28  and  C_32
REMARK                            x       y       z     vdW  Elec       q    Type
REMARK                         _______ _______ _______ _____ _____    ______ ____
ROOT
ATOM      1  O   UNL     1      33.122 -21.919 -18.892  0.00  0.00    -0.270 OA
ATOM      2  N   UNL     1      35.405 -21.979 -18.379  0.00  0.00    -0.278 N 
ATOM      3  N   UNL     1      35.816 -19.299 -21.473  0.00  0.00    -0.357 N 
ATOM      4  C   UNL     1      36.716 -21.304 -18.474  0.00  0.00    +0.100 C 
ATOM      5  C   UNL     1      37.065 -20.840 -19.893  0.00  0.00    +0.065 C 
ATOM      6  C   UNL     1      35.850 -20.235 -20.480  0.00  0.00    +0.039 A 
ATOM      7  C   UNL     1      34.558 -20.547 -20.119  0.00  0.00    +0.062 A 
ATOM      8  C   UNL     1      34.270 -21.529 -19.088  0.00  0.00    +0.250 C 
ATOM      9  C   UNL     1      33.703 -19.771 -20.939  0.00  0.00    -0.001 A 
ATOM     10  C   UNL     1      34.506 -19.006 -21.762  0.00  0.00    +0.053 A 
ATOM     11  C   UNL     1      32.225 -19.776 -20.927  0.00  0.00    +0.033 C 
ATOM     12  H   UNL     1      36.602 -18.899 -21.911  0.00  0.00    +0.166 HD
ENDROOT
BRANCH  10  16
ATOM     13  F   UNL     1      33.212 -14.427 -26.868  0.00  0.00    -0.204 F 
ATOM     14  O   UNL     1      34.887 -16.607 -20.236  0.00  0.00    -0.270 OA
ATOM     15  N   UNL     1      34.551 -14.683 -21.564  0.00  0.00    -0.280 N 
ATOM     16  C   UNL     1      34.253 -18.053 -22.762  0.00  0.00    +0.021 C 
ATOM     17  C   UNL     1      34.293 -16.710 -22.595  0.00  0.00    +0.056 C 
ATOM     18  C   UNL     1      34.043 -15.664 -23.581  0.00  0.00    +0.020 C 
ATOM     19  C   UNL     1      34.213 -14.453 -22.902  0.00  0.00    +0.051 C 
ATOM     20  C   UNL     1      34.622 -16.051 -21.286  0.00  0.00    +0.250 C 
ATOM     21  C   UNL     1      33.705 -15.680 -24.921  0.00  0.00    +0.031 C 
ATOM     22  C   UNL     1      34.055 -13.229 -23.522  0.00  0.00    +0.017 C 
ATOM     23  C   UNL     1      33.540 -14.452 -25.568  0.00  0.00    +0.140 C 
ATOM     24  C   UNL     1      33.713 -13.238 -24.876  0.00  0.00    +0.031 C 
ATOM     25  H   UNL     1      34.716 -13.972 -20.903  0.00  0.00    +0.155 HD
ENDBRANCH  10  16
BRANCH   2  26
ATOM     26  C   UNL     1      35.252 -22.962 -17.318  0.00  0.00    +0.071 C 
BRANCH  26  27
ATOM     27  C   UNL     1      35.796 -22.436 -15.998  0.00  0.00    -0.055 C 
BRANCH  27  28
ATOM     28  N   UNL     1      34.893 -22.778 -14.906  0.00  0.00    +0.388 N 
ATOM     29  H   UNL     1      34.543 -21.910 -14.501  0.00  0.00    -0.080 HD
BRANCH  28  30
ATOM     30  C   UNL     1      35.603 -23.525 -13.865  0.00  0.00    -0.077 C 
ATOM     31  C   UNL     1      35.858 -24.959 -14.297  0.00  0.00    -0.025 C 
ENDBRANCH  28  30
BRANCH  28  32
ATOM     32  C   UNL     1      33.755 -23.555 -15.401  0.00  0.00    -0.077 C 
ATOM     33  C   UNL     1      32.462 -23.124 -14.730  0.00  0.00    -0.025 C 
ENDBRANCH  28  32
ENDBRANCH  27  28
ENDBRANCH  26  27
ENDBRANCH   2  26
TORSDOF 6
ENDMDL
MODEL 2
REMARK VINA RESULT:     -10.3      3.403     10.189
REMARK  Name = 16662431
REMARK  6 active torsions:
REMARK  status: ('A' for Active; 'I' for Inactive)
REMARK    1  A    between atoms: N_2  and  C_26
REMARK    2  A    between atoms: C_10  and  C_16
REMARK    3  A    between atoms: C_26  and  C_27
REMARK    4  A    between atoms: C_27  and  N_28
REMARK    5  A    between atoms: N_28  and  C_30
REMARK    6  A    between atoms: N_28  and  C_32
REMARK                            x       y       z     vdW  Elec       q    Type
REMARK                         _______ _______ _______ _____ _____    ______ ____
ROOT
ATOM      1  O   UNL     1      33.707 -13.494 -22.684  0.00  0.00    -0.270 OA
ATOM      2  N   UNL     1      33.516 -14.321 -24.865  0.00  0.00    -0.278 N 
ATOM      3  N   UNL     1      35.079 -17.796 -23.313  0.00  0.00    -0.357 N 
ATOM      4  C   UNL     1      33.428 -15.511 -25.738  0.00  0.00    +0.100 C 
ATOM      5  C   UNL     1      34.510 -16.560 -25.453  0.00  0.00    +0.065 C 
ATOM      6  C   UNL     1      34.628 -16.697 -23.986  0.00  0.00    +0.039 A 
ATOM      7  C   UNL     1      34.317 -15.714 -23.073  0.00  0.00    +0.062 A 
ATOM      8  C   UNL     1      33.821 -14.414 -23.490  0.00  0.00    +0.250 C 
ATOM      9  C   UNL     1      34.603 -16.240 -21.789  0.00  0.00    -0.001 A 
ATOM     10  C   UNL     1      35.066 -17.529 -21.967  0.00  0.00    +0.053 A 
ATOM     11  C   UNL     1      34.442 -15.545 -20.494  0.00  0.00    +0.033 C 
ATOM     12  H   UNL     1      35.365 -18.643 -23.726  0.00  0.00    +0.166 HD
ENDROOT
BRANCH  10  16
ATOM     13  F   UNL     1      37.376 -22.485 -17.629  0.00  0.00    -0.204 F 
ATOM     14  O   UNL     1      32.592 -18.943 -21.642  0.00  0.00    -0.270 OA
ATOM     15  N   UNL     1      32.845 -20.796 -20.199  0.00  0.00    -0.280 N 
ATOM     16  C   UNL     1      35.492 -18.543 -21.094  0.00  0.00    +0.021 C 
ATOM     17  C   UNL     1      34.709 -19.528 -20.593  0.00  0.00    +0.056 C 
ATOM     18  C   UNL     1      35.079 -20.610 -19.686  0.00  0.00    +0.020 C 
ATOM     19  C   UNL     1      33.910 -21.349 -19.480  0.00  0.00    +0.051 C 
ATOM     20  C   UNL     1      33.249 -19.666 -20.916  0.00  0.00    +0.250 C 
ATOM     21  C   UNL     1      36.262 -20.975 -19.072  0.00  0.00    +0.031 C 
ATOM     22  C   UNL     1      33.874 -22.465 -18.666  0.00  0.00    +0.017 C 
ATOM     23  C   UNL     1      36.248 -22.101 -18.243  0.00  0.00    +0.140 C 
ATOM     24  C   UNL     1      35.066 -22.839 -18.042  0.00  0.00    +0.031 C 
ATOM     25  H   UNL     1      31.929 -21.156 -20.200  0.00  0.00    +0.155 HD
ENDBRANCH  10  16
BRANCH   2  26
ATOM     26  C   UNL     1      33.007 -13.073 -25.411  0.00  0.00    +0.071 C 
BRANCH  26  27
ATOM     27  C   UNL     1      34.143 -12.131 -25.785  0.00  0.00    -0.055 C 
BRANCH  27  28
ATOM     28  N   UNL     1      34.452 -11.243 -24.671  0.00  0.00    +0.388 N 
ATOM     29  H   UNL     1      34.908 -11.793 -23.945  0.00  0.00    -0.080 HD
BRANCH  28  30
ATOM     30  C   UNL     1      33.225 -10.665 -24.117  0.00  0.00    -0.077 C 
ATOM     31  C   UNL     1      33.469  -9.258 -23.597  0.00  0.00    -0.025 C 
ENDBRANCH  28  30
BRANCH  28  32
ATOM     32  C   UNL     1      35.365 -10.181 -25.096  0.00  0.00    -0.077 C 
ATOM     33  C   UNL     1      35.811 -10.383 -26.534  0.00  0.00    -0.025 C 
ENDBRANCH  28  32
ENDBRANCH  27  28
ENDBRANCH  26  27
ENDBRANCH   2  26
TORSDOF 6
ENDMDL
MODEL 3
REMARK VINA RESULT:     -10.1      5.101     11.973
REMARK  Name = 16662431
REMARK  6 active torsions:
REMARK  status: ('A' for Active; 'I' for Inactive)
REMARK    1  A    between atoms: N_2  and  C_26
REMARK    2  A    between atoms: C_10  and  C_16
REMARK    3  A    between atoms: C_26  and  C_27
REMARK    4  A    between atoms: C_27  and  N_28
REMARK    5  A    between atoms: N_28  and  C_30
REMARK    6  A    between atoms: N_28  and  C_32
REMARK                            x       y       z     vdW  Elec       q    Type
REMARK                         _______ _______ _______ _____ _____    ______ ____
ROOT
ATOM      1  O   UNL     1      33.347  -8.911 -23.866  0.00  0.00    -0.270 OA
ATOM      2  N   UNL     1      32.043  -8.940 -21.923  0.00  0.00    -0.278 N 
ATOM      3  N   UNL     1      32.110 -13.031 -22.355  0.00  0.00    -0.357 N 
ATOM      4  C   UNL     1      31.568  -9.716 -20.759  0.00  0.00    +0.100 C 
ATOM      5  C   UNL     1      31.017 -11.099 -21.128  0.00  0.00    +0.065 C 
ATOM      6  C   UNL     1      31.933 -11.697 -22.123  0.00  0.00    +0.039 A 
ATOM      7  C   UNL     1      32.736 -10.985 -22.986  0.00  0.00    +0.062 A 
ATOM      8  C   UNL     1      32.758  -9.533 -22.987  0.00  0.00    +0.250 C 
ATOM      9  C   UNL     1      33.423 -11.932 -23.784  0.00  0.00    -0.001 A 
ATOM     10  C   UNL     1      33.021 -13.187 -23.369  0.00  0.00    +0.053 A 
ATOM     11  C   UNL     1      34.389 -11.642 -24.865  0.00  0.00    +0.033 C 
ATOM     12  H   UNL     1      31.658 -13.760 -21.874  0.00  0.00    +0.166 HD
ENDROOT
BRANCH  10  16
ATOM     13  F   UNL     1      34.568 -19.651 -25.501  0.00  0.00    -0.204 F 
ATOM     14  O   UNL     1      34.219 -14.121 -20.936  0.00  0.00    -0.270 OA
ATOM     15  N   UNL     1      34.944 -16.360 -21.140  0.00  0.00    -0.280 N 
ATOM     16  C   UNL     1      33.349 -14.496 -23.759  0.00  0.00    +0.021 C 
ATOM     17  C   UNL     1      33.956 -15.420 -22.978  0.00  0.00    +0.056 C 
ATOM     18  C   UNL     1      34.326 -16.791 -23.313  0.00  0.00    +0.020 C 
ATOM     19  C   UNL     1      34.922 -17.316 -22.161  0.00  0.00    +0.051 C 
ATOM     20  C   UNL     1      34.367 -15.157 -21.558  0.00  0.00    +0.250 C 
ATOM     21  C   UNL     1      34.195 -17.561 -24.452  0.00  0.00    +0.031 C 
ATOM     22  C   UNL     1      35.404 -18.609 -22.101  0.00  0.00    +0.017 C 
ATOM     23  C   UNL     1      34.677 -18.874 -24.414  0.00  0.00    +0.140 C 
ATOM     24  C   UNL     1      35.275 -19.392 -23.250  0.00  0.00    +0.031 C 
ATOM     25  H   UNL     1      35.318 -16.514 -20.242  0.00  0.00    +0.155 HD
ENDBRANCH  10  16
BRANCH   2  26
ATOM     26  C   UNL     1      31.988  -7.491 -21.807  0.00  0.00    +0.071 C 
BRANCH  26  27
ATOM     27  C   UNL     1      31.082  -6.887 -22.869  0.00  0.00    -0.055 C 
BRANCH  27  28
ATOM     28  N   UNL     1      31.591  -5.587 -23.290  0.00  0.00    +0.388 N 
ATOM     29  H   UNL     1      32.566  -5.521 -23.002  0.00  0.00    -0.080 HD
BRANCH  28  30
ATOM     30  C   UNL     1      30.839  -4.506 -22.648  0.00  0.00    -0.077 C 
ATOM     31  C   UNL     1      31.194  -3.158 -23.251  0.00  0.00    -0.025 C 
ENDBRANCH  28  30
BRANCH  28  32
ATOM     32  C   UNL     1      31.524  -5.454 -24.746  0.00  0.00    -0.077 C 
ATOM     33  C   UNL     1      32.906  -5.551 -25.371  0.00  0.00    -0.025 C 
ENDBRANCH  28  32
ENDBRANCH  27  28
ENDBRANCH  26  27
ENDBRANCH   2  26
TORSDOF 6
ENDMDL
MODEL 4
REMARK VINA RESULT:     -10.1      3.957      7.073
REMARK  Name = 16662431
REMARK  6 active torsions:
REMARK  status: ('A' for Active; 'I' for Inactive)
REMARK    1  A    between atoms: N_2  and  C_26
REMARK    2  A    between atoms: C_10  and  C_16
REMARK    3  A    between atoms: C_26  and  C_27
REMARK    4  A    between atoms: C_27  and  N_28
REMARK    5  A    between atoms: N_28  and  C_30
REMARK    6  A    between atoms: N_28  and  C_32
REMARK                            x       y       z     vdW  Elec       q    Type
REMARK                         _______ _______ _______ _____ _____    ______ ____
ROOT
ATOM      1  O   UNL     1      33.742 -16.534 -21.211  0.00  0.00    -0.270 OA
ATOM      2  N   UNL     1      34.351 -17.026 -23.416  0.00  0.00    -0.278 N 
ATOM      3  N   UNL     1      32.868 -13.290 -24.293  0.00  0.00    -0.357 N 
ATOM      4  C   UNL     1      34.681 -16.503 -24.759  0.00  0.00    +0.100 C 
ATOM      5  C   UNL     1      33.663 -15.484 -25.286  0.00  0.00    +0.065 C 
ATOM      6  C   UNL     1      33.323 -14.572 -24.173  0.00  0.00    +0.039 A 
ATOM      7  C   UNL     1      33.397 -14.894 -22.836  0.00  0.00    +0.062 A 
ATOM      8  C   UNL     1      33.838 -16.204 -22.390  0.00  0.00    +0.250 C 
ATOM      9  C   UNL     1      32.956 -13.757 -22.114  0.00  0.00    -0.001 A 
ATOM     10  C   UNL     1      32.641 -12.781 -23.038  0.00  0.00    +0.053 A 
ATOM     11  C   UNL     1      32.846 -13.633 -20.646  0.00  0.00    +0.033 C 
ATOM     12  H   UNL     1      32.726 -12.810 -25.140  0.00  0.00    +0.166 HD
ENDROOT
BRANCH  10  16
ATOM     13  F   UNL     1      30.126  -6.295 -22.472  0.00  0.00    -0.204 F 
ATOM     14  O   UNL     1      34.878 -11.397 -24.182  0.00  0.00    -0.270 OA
ATOM     15  N   UNL     1      34.513  -9.063 -24.226  0.00  0.00    -0.280 N 
ATOM     16  C   UNL     1      32.171 -11.461 -22.943  0.00  0.00    +0.021 C 
ATOM     17  C   UNL     1      32.842 -10.356 -23.348  0.00  0.00    +0.056 C 
ATOM     18  C   UNL     1      32.419  -8.961 -23.280  0.00  0.00    +0.020 C 
ATOM     19  C   UNL     1      33.471  -8.219 -23.826  0.00  0.00    +0.051 C 
ATOM     20  C   UNL     1      34.209 -10.403 -23.966  0.00  0.00    +0.250 C 
ATOM     21  C   UNL     1      31.280  -8.333 -22.816  0.00  0.00    +0.031 C 
ATOM     22  C   UNL     1      33.429  -6.842 -23.930  0.00  0.00    +0.017 C 
ATOM     23  C   UNL     1      31.216  -6.939 -22.912  0.00  0.00    +0.140 C 
ATOM     24  C   UNL     1      32.280  -6.201 -23.463  0.00  0.00    +0.031 C 
ATOM     25  H   UNL     1      35.353  -8.753 -24.636  0.00  0.00    +0.155 HD
ENDBRANCH  10  16
BRANCH   2  26
ATOM     26  C   UNL     1      34.830 -18.363 -23.102  0.00  0.00    +0.071 C 
BRANCH  26  27
ATOM     27  C   UNL     1      35.921 -18.322 -22.042  0.00  0.00    -0.055 C 
BRANCH  27  28
ATOM     28  N   UNL     1      35.534 -19.120 -20.886  0.00  0.00    +0.388 N 
ATOM     29  H   UNL     1      35.128 -18.495 -20.190  0.00  0.00    -0.080 HD
BRANCH  28  30
ATOM     30  C   UNL     1      36.704 -19.777 -20.297  0.00  0.00    -0.077 C 
ATOM     31  C   UNL     1      36.383 -21.204 -19.886  0.00  0.00    -0.025 C 
ENDBRANCH  28  30
BRANCH  28  32
ATOM     32  C   UNL     1      34.529 -20.117 -21.260  0.00  0.00    -0.077 C 
ATOM     33  C   UNL     1      33.229 -19.897 -20.505  0.00  0.00    -0.025 C 
ENDBRANCH  28  32
ENDBRANCH  27  28
ENDBRANCH  26  27
ENDBRANCH   2  26
TORSDOF 6
ENDMDL
MODEL 5
REMARK VINA RESULT:     -10.1      3.317      9.769
REMARK  Name = 16662431
REMARK  6 active torsions:
REMARK  status: ('A' for Active; 'I' for Inactive)
REMARK    1  A    between atoms: N_2  and  C_26
REMARK    2  A    between atoms: C_10  and  C_16
REMARK    3  A    between atoms: C_26  and  C_27
REMARK    4  A    between atoms: C_27  and  N_28
REMARK    5  A    between atoms: N_28  and  C_30
REMARK    6  A    between atoms: N_28  and  C_32
REMARK                            x       y       z     vdW  Elec       q    Type
REMARK                         _______ _______ _______ _____ _____    ______ ____
ROOT
ATOM      1  O   UNL     1      34.790 -14.969 -23.098  0.00  0.00    -0.270 OA
ATOM      2  N   UNL     1      34.178 -16.162 -25.015  0.00  0.00    -0.278 N 
ATOM      3  N   UNL     1      35.039 -19.510 -22.785  0.00  0.00    -0.357 N 
ATOM      4  C   UNL     1      33.720 -17.447 -25.583  0.00  0.00    +0.100 C 
ATOM      5  C   UNL     1      34.549 -18.652 -25.120  0.00  0.00    +0.065 C 
ATOM      6  C   UNL     1      34.790 -18.501 -23.669  0.00  0.00    +0.039 A 
ATOM      7  C   UNL     1      34.818 -17.301 -22.994  0.00  0.00    +0.062 A 
ATOM      8  C   UNL     1      34.599 -16.036 -23.673  0.00  0.00    +0.250 C 
ATOM      9  C   UNL     1      35.108 -17.598 -21.639  0.00  0.00    -0.001 A 
ATOM     10  C   UNL     1      35.234 -18.970 -21.538  0.00  0.00    +0.053 A 
ATOM     11  C   UNL     1      35.255 -16.628 -20.534  0.00  0.00    +0.033 C 
ATOM     12  H   UNL     1      35.073 -20.469 -23.005  0.00  0.00    +0.166 HD
ENDROOT
BRANCH  10  16
ATOM     13  F   UNL     1      36.763 -23.282 -16.267  0.00  0.00    -0.204 F 
ATOM     14  O   UNL     1      32.612 -20.071 -21.165  0.00  0.00    -0.270 OA
ATOM     15  N   UNL     1      32.588 -21.658 -19.416  0.00  0.00    -0.280 N 
ATOM     16  C   UNL     1      35.501 -19.850 -20.477  0.00  0.00    +0.021 C 
ATOM     17  C   UNL     1      34.593 -20.657 -19.878  0.00  0.00    +0.056 C 
ATOM     18  C   UNL     1      34.795 -21.592 -18.776  0.00  0.00    +0.020 C 
ATOM     19  C   UNL     1      33.546 -22.173 -18.536  0.00  0.00    +0.051 C 
ATOM     20  C   UNL     1      33.147 -20.713 -20.281  0.00  0.00    +0.250 C 
ATOM     21  C   UNL     1      35.896 -21.951 -18.023  0.00  0.00    +0.031 C 
ATOM     22  C   UNL     1      33.348 -23.120 -17.551  0.00  0.00    +0.017 C 
ATOM     23  C   UNL     1      35.718 -22.909 -17.019  0.00  0.00    +0.140 C 
ATOM     24  C   UNL     1      34.457 -23.488 -16.786  0.00  0.00    +0.031 C 
ATOM     25  H   UNL     1      31.640 -21.927 -19.424  0.00  0.00    +0.155 HD
ENDBRANCH  10  16
BRANCH   2  26
ATOM     26  C   UNL     1      33.921 -14.970 -25.808  0.00  0.00    +0.071 C 
BRANCH  26  27
ATOM     27  C   UNL     1      32.981 -14.018 -25.083  0.00  0.00    -0.055 C 
BRANCH  27  28
ATOM     28  N   UNL     1      33.695 -12.815 -24.675  0.00  0.00    +0.388 N 
ATOM     29  H   UNL     1      34.625 -13.090 -24.360  0.00  0.00    -0.080 HD
BRANCH  28  30
ATOM     30  C   UNL     1      33.003 -12.155 -23.565  0.00  0.00    -0.077 C 
ATOM     31  C   UNL     1      32.192 -13.152 -22.755  0.00  0.00    -0.025 C 
ENDBRANCH  28  30
BRANCH  28  32
ATOM     32  C   UNL     1      33.838 -11.892 -25.802  0.00  0.00    -0.077 C 
ATOM     33  C   UNL     1      34.844 -10.797 -25.492  0.00  0.00    -0.025 C 
ENDBRANCH  28  32
ENDBRANCH  27  28
ENDBRANCH  26  27
ENDBRANCH   2  26
TORSDOF 6
ENDMDL
MODEL 6
REMARK VINA RESULT:      -9.6      4.107      7.282
REMARK  Name = 16662431
REMARK  6 active torsions:
REMARK  status: ('A' for Active; 'I' for Inactive)
REMARK    1  A    between atoms: N_2  and  C_26
REMARK    2  A    between atoms: C_10  and  C_16
REMARK    3  A    between atoms: C_26  and  C_27
REMARK    4  A    between atoms: C_27  and  N_28
REMARK    5  A    between atoms: N_28  and  C_30
REMARK    6  A    between atoms: N_28  and  C_32
REMARK                            x       y       z     vdW  Elec       q    Type
REMARK                         _______ _______ _______ _____ _____    ______ ____
ROOT
ATOM      1  O   UNL     1      33.826 -16.441 -25.435  0.00  0.00    -0.270 OA
ATOM      2  N   UNL     1      34.207 -16.928 -23.179  0.00  0.00    -0.278 N 
ATOM      3  N   UNL     1      34.326 -12.847 -22.675  0.00  0.00    -0.357 N 
ATOM      4  C   UNL     1      34.157 -16.452 -21.781  0.00  0.00    +0.100 C 
ATOM      5  C   UNL     1      34.812 -15.080 -21.577  0.00  0.00    +0.065 C 
ATOM      6  C   UNL     1      34.391 -14.210 -22.696  0.00  0.00    +0.039 A 
ATOM      7  C   UNL     1      34.017 -14.654 -23.945  0.00  0.00    +0.062 A 
ATOM      8  C   UNL     1      33.998 -16.068 -24.279  0.00  0.00    +0.250 C 
ATOM      9  C   UNL     1      33.723 -13.505 -24.719  0.00  0.00    -0.001 A 
ATOM     10  C   UNL     1      33.917 -12.404 -23.909  0.00  0.00    +0.053 A 
ATOM     11  C   UNL     1      33.292 -13.479 -26.133  0.00  0.00    +0.033 C 
ATOM     12  H   UNL     1      34.538 -12.275 -21.903  0.00  0.00    +0.166 HD
ENDROOT
BRANCH  10  16
ATOM     13  F   UNL     1      33.397  -5.526 -24.977  0.00  0.00    -0.204 F 
ATOM     14  O   UNL     1      31.767 -11.889 -22.082  0.00  0.00    -0.270 OA
ATOM     15  N   UNL     1      31.183  -9.600 -22.065  0.00  0.00    -0.280 N 
ATOM     16  C   UNL     1      33.781 -11.018 -24.095  0.00  0.00    +0.021 C 
ATOM     17  C   UNL     1      32.884 -10.225 -23.462  0.00  0.00    +0.056 C 
ATOM     18  C   UNL     1      32.685  -8.786 -23.604  0.00  0.00    +0.020 C 
ATOM     19  C   UNL     1      31.640  -8.460 -22.733  0.00  0.00    +0.051 C 
ATOM     20  C   UNL     1      31.895 -10.738 -22.455  0.00  0.00    +0.250 C 
ATOM     21  C   UNL     1      33.294  -7.812 -24.372  0.00  0.00    +0.031 C 
ATOM     22  C   UNL     1      31.168  -7.169 -22.596  0.00  0.00    +0.017 C 
ATOM     23  C   UNL     1      32.831  -6.498 -24.248  0.00  0.00    +0.140 C 
ATOM     24  C   UNL     1      31.779  -6.180 -23.369  0.00  0.00    +0.031 C 
ATOM     25  H   UNL     1      30.452  -9.602 -21.405  0.00  0.00    +0.155 HD
ENDBRANCH  10  16
BRANCH   2  26
ATOM     26  C   UNL     1      34.209 -18.369 -23.377  0.00  0.00    +0.071 C 
BRANCH  26  27
ATOM     27  C   UNL     1      35.311 -19.036 -22.567  0.00  0.00    -0.055 C 
BRANCH  27  28
ATOM     28  N   UNL     1      34.757 -20.096 -21.734  0.00  0.00    +0.388 N 
ATOM     29  H   UNL     1      34.698 -20.943 -22.298  0.00  0.00    -0.080 HD
BRANCH  28  30
ATOM     30  C   UNL     1      33.410 -19.743 -21.278  0.00  0.00    -0.077 C 
ATOM     31  C   UNL     1      33.033 -20.522 -20.030  0.00  0.00    -0.025 C 
ENDBRANCH  28  30
BRANCH  28  32
ATOM     32  C   UNL     1      35.627 -20.359 -20.587  0.00  0.00    -0.077 C 
ATOM     33  C   UNL     1      36.834 -19.435 -20.588  0.00  0.00    -0.025 C 
ENDBRANCH  28  32
ENDBRANCH  27  28
ENDBRANCH  26  27
ENDBRANCH   2  26
TORSDOF 6
ENDMDL
MODEL 7
REMARK VINA RESULT:      -9.5      3.263      6.019
REMARK  Name = 16662431
REMARK  6 active torsions:
REMARK  status: ('A' for Active; 'I' for Inactive)
REMARK    1  A    between atoms: N_2  and  C_26
REMARK    2  A    between atoms: C_10  and  C_16
REMARK    3  A    between atoms: C_26  and  C_27
REMARK    4  A    between atoms: C_27  and  N_28
REMARK    5  A    between atoms: N_28  and  C_30
REMARK    6  A    between atoms: N_28  and  C_32
REMARK                            x       y       z     vdW  Elec       q    Type
REMARK                         _______ _______ _______ _____ _____    ______ ____
ROOT
ATOM      1  O   UNL     1      34.352 -17.141 -20.955  0.00  0.00    -0.270 OA
ATOM      2  N   UNL     1      34.461 -18.196 -23.041  0.00  0.00    -0.278 N 
ATOM      3  N   UNL     1      34.068 -14.406 -24.592  0.00  0.00    -0.357 N 
ATOM      4  C   UNL     1      34.738 -18.062 -24.486  0.00  0.00    +0.100 C 
ATOM      5  C   UNL     1      34.012 -16.881 -25.142  0.00  0.00    +0.065 C 
ATOM      6  C   UNL     1      34.126 -15.722 -24.232  0.00  0.00    +0.039 A 
ATOM      7  C   UNL     1      34.290 -15.802 -22.867  0.00  0.00    +0.062 A 
ATOM      8  C   UNL     1      34.374 -17.080 -22.181  0.00  0.00    +0.250 C 
ATOM      9  C   UNL     1      34.322 -14.473 -22.378  0.00  0.00    -0.001 A 
ATOM     10  C   UNL     1      34.188 -13.632 -23.465  0.00  0.00    +0.053 A 
ATOM     11  C   UNL     1      34.466 -14.054 -20.968  0.00  0.00    +0.033 C 
ATOM     12  H   UNL     1      33.958 -14.068 -25.510  0.00  0.00    +0.166 HD
ENDROOT
BRANCH  10  16
ATOM     13  F   UNL     1      34.229  -6.708 -24.343  0.00  0.00    -0.204 F 
ATOM     14  O   UNL     1      31.630 -13.077 -22.291  0.00  0.00    -0.270 OA
ATOM     15  N   UNL     1      31.145 -10.766 -22.341  0.00  0.00    -0.280 N 
ATOM     16  C   UNL     1      34.158 -12.237 -23.623  0.00  0.00    +0.021 C 
ATOM     17  C   UNL     1      33.148 -11.423 -23.233  0.00  0.00    +0.056 C 
ATOM     18  C   UNL     1      33.047  -9.973 -23.363  0.00  0.00    +0.020 C 
ATOM     19  C   UNL     1      31.812  -9.627 -22.806  0.00  0.00    +0.051 C 
ATOM     20  C   UNL     1      31.899 -11.922 -22.565  0.00  0.00    +0.250 C 
ATOM     21  C   UNL     1      33.880  -9.005 -23.888  0.00  0.00    +0.031 C 
ATOM     22  C   UNL     1      31.365  -8.321 -22.751  0.00  0.00    +0.017 C 
ATOM     23  C   UNL     1      33.448  -7.676 -23.843  0.00  0.00    +0.140 C 
ATOM     24  C   UNL     1      32.203  -7.337 -23.280  0.00  0.00    +0.031 C 
ATOM     25  H   UNL     1      30.259 -10.755 -21.912  0.00  0.00    +0.155 HD
ENDBRANCH  10  16
BRANCH   2  26
ATOM     26  C   UNL     1      34.553 -19.536 -22.480  0.00  0.00    +0.071 C 
BRANCH  26  27
ATOM     27  C   UNL     1      35.660 -19.622 -21.439  0.00  0.00    -0.055 C 
BRANCH  27  28
ATOM     28  N   UNL     1      35.148 -20.199 -20.203  0.00  0.00    +0.388 N 
ATOM     29  H   UNL     1      35.348 -19.549 -19.443  0.00  0.00    -0.080 HD
BRANCH  28  30
ATOM     30  C   UNL     1      35.810 -21.473 -19.915  0.00  0.00    -0.077 C 
ATOM     31  C   UNL     1      36.617 -21.393 -18.630  0.00  0.00    -0.025 C 
ENDBRANCH  28  30
BRANCH  28  32
ATOM     32  C   UNL     1      33.698 -20.389 -20.283  0.00  0.00    -0.077 C 
ATOM     33  C   UNL     1      33.262 -21.623 -19.511  0.00  0.00    -0.025 C 
ENDBRANCH  28  32
ENDBRANCH  27  28
ENDBRANCH  26  27
ENDBRANCH   2  26
TORSDOF 6
ENDMDL
MODEL 8
REMARK VINA RESULT:      -9.5      5.229     12.220
REMARK  Name = 16662431
REMARK  6 active torsions:
REMARK  status: ('A' for Active; 'I' for Inactive)
REMARK    1  A    between atoms: N_2  and  C_26
REMARK    2  A    between atoms: C_10  and  C_16
REMARK    3  A    between atoms: C_26  and  C_27
REMARK    4  A    between atoms: C_27  and  N_28
REMARK    5  A    between atoms: N_28  and  C_30
REMARK    6  A    between atoms: N_28  and  C_32
REMARK                            x       y       z     vdW  Elec       q    Type
REMARK                         _______ _______ _______ _____ _____    ______ ____
ROOT
ATOM      1  O   UNL     1      31.587  -9.692 -21.651  0.00  0.00    -0.270 OA
ATOM      2  N   UNL     1      32.991  -8.355 -22.960  0.00  0.00    -0.278 N 
ATOM      3  N   UNL     1      34.500 -11.916 -24.364  0.00  0.00    -0.357 N 
ATOM      4  C   UNL     1      33.853  -8.260 -24.158  0.00  0.00    +0.100 C 
ATOM      5  C   UNL     1      34.863  -9.407 -24.278  0.00  0.00    +0.065 C 
ATOM      6  C   UNL     1      34.160 -10.663 -23.941  0.00  0.00    +0.039 A 
ATOM      7  C   UNL     1      33.055 -10.755 -23.123  0.00  0.00    +0.062 A 
ATOM      8  C   UNL     1      32.462  -9.582 -22.505  0.00  0.00    +0.250 C 
ATOM      9  C   UNL     1      32.719 -12.129 -23.039  0.00  0.00    -0.001 A 
ATOM     10  C   UNL     1      33.624 -12.821 -23.819  0.00  0.00    +0.053 A 
ATOM     11  C   UNL     1      31.610 -12.720 -22.261  0.00  0.00    +0.033 C 
ATOM     12  H   UNL     1      35.251 -12.134 -24.961  0.00  0.00    +0.166 HD
ENDROOT
BRANCH  10  16
ATOM     13  F   UNL     1      34.440 -19.519 -25.606  0.00  0.00    -0.204 F 
ATOM     14  O   UNL     1      34.552 -13.789 -21.283  0.00  0.00    -0.270 OA
ATOM     15  N   UNL     1      34.991 -16.108 -21.357  0.00  0.00    -0.280 N 
ATOM     16  C   UNL     1      33.801 -14.177 -24.138  0.00  0.00    +0.021 C 
ATOM     17  C   UNL     1      34.238 -15.135 -23.286  0.00  0.00    +0.056 C 
ATOM     18  C   UNL     1      34.446 -16.556 -23.546  0.00  0.00    +0.020 C 
ATOM     19  C   UNL     1      34.904 -17.099 -22.341  0.00  0.00    +0.051 C 
ATOM     20  C   UNL     1      34.600 -14.862 -21.855  0.00  0.00    +0.250 C 
ATOM     21  C   UNL     1      34.282 -17.354 -24.661  0.00  0.00    +0.031 C 
ATOM     22  C   UNL     1      35.210 -18.439 -22.203  0.00  0.00    +0.017 C 
ATOM     23  C   UNL     1      34.587 -18.713 -24.544  0.00  0.00    +0.140 C 
ATOM     24  C   UNL     1      35.046 -19.251 -23.327  0.00  0.00    +0.031 C 
ATOM     25  H   UNL     1      35.291 -16.268 -20.433  0.00  0.00    +0.155 HD
ENDBRANCH  10  16
BRANCH   2  26
ATOM     26  C   UNL     1      32.482  -7.103 -22.423  0.00  0.00    +0.071 C 
BRANCH  26  27
ATOM     27  C   UNL     1      31.496  -6.452 -23.382  0.00  0.00    -0.055 C 
BRANCH  27  28
ATOM     28  N   UNL     1      31.904  -5.085 -23.677  0.00  0.00    +0.388 N 
ATOM     29  H   UNL     1      32.895  -4.994 -23.454  0.00  0.00    -0.080 HD
BRANCH  28  30
ATOM     30  C   UNL     1      31.151  -4.133 -22.856  0.00  0.00    -0.077 C 
ATOM     31  C   UNL     1      31.451  -2.700 -23.264  0.00  0.00    -0.025 C 
ENDBRANCH  28  30
BRANCH  28  32
ATOM     32  C   UNL     1      31.718  -4.785 -25.098  0.00  0.00    -0.077 C 
ATOM     33  C   UNL     1      32.947  -5.165 -25.906  0.00  0.00    -0.025 C 
ENDBRANCH  28  32
ENDBRANCH  27  28
ENDBRANCH  26  27
ENDBRANCH   2  26
TORSDOF 6
ENDMDL
MODEL 9
REMARK VINA RESULT:      -9.5      1.879      2.651
REMARK  Name = 16662431
REMARK  6 active torsions:
REMARK  status: ('A' for Active; 'I' for Inactive)
REMARK    1  A    between atoms: N_2  and  C_26
REMARK    2  A    between atoms: C_10  and  C_16
REMARK    3  A    between atoms: C_26  and  C_27
REMARK    4  A    between atoms: C_27  and  N_28
REMARK    5  A    between atoms: N_28  and  C_30
REMARK    6  A    between atoms: N_28  and  C_32
REMARK                            x       y       z     vdW  Elec       q    Type
REMARK                         _______ _______ _______ _____ _____    ______ ____
ROOT
ATOM      1  O   UNL     1      32.771 -20.791 -19.947  0.00  0.00    -0.270 OA
ATOM      2  N   UNL     1      35.042 -21.307 -19.724  0.00  0.00    -0.278 N 
ATOM      3  N   UNL     1      35.689 -17.711 -21.615  0.00  0.00    -0.357 N 
ATOM      4  C   UNL     1      36.431 -20.804 -19.690  0.00  0.00    +0.100 C 
ATOM      5  C   UNL     1      36.775 -19.874 -20.859  0.00  0.00    +0.065 C 
ATOM      6  C   UNL     1      35.635 -18.954 -21.053  0.00  0.00    +0.039 A 
ATOM      7  C   UNL     1      34.330 -19.229 -20.708  0.00  0.00    +0.062 A 
ATOM      8  C   UNL     1      33.952 -20.491 -20.096  0.00  0.00    +0.250 C 
ATOM      9  C   UNL     1      33.558 -18.104 -21.088  0.00  0.00    -0.001 A 
ATOM     10  C   UNL     1      34.424 -17.180 -21.641  0.00  0.00    +0.053 A 
ATOM     11  C   UNL     1      32.097 -17.942 -20.932  0.00  0.00    +0.033 C 
ATOM     12  H   UNL     1      36.503 -17.268 -21.947  0.00  0.00    +0.166 HD
ENDROOT
BRANCH  10  16
ATOM     13  F   UNL     1      33.656 -10.704 -24.128  0.00  0.00    -0.204 F 
ATOM     14  O   UNL     1      34.072 -17.866 -24.404  0.00  0.00    -0.270 OA
ATOM     15  N   UNL     1      33.758 -15.939 -25.734  0.00  0.00    -0.280 N 
ATOM     16  C   UNL     1      34.264 -15.894 -22.181  0.00  0.00    +0.021 C 
ATOM     17  C   UNL     1      34.059 -15.610 -23.489  0.00  0.00    +0.056 C 
ATOM     18  C   UNL     1      33.886 -14.306 -24.120  0.00  0.00    +0.020 C 
ATOM     19  C   UNL     1      33.707 -14.564 -25.482  0.00  0.00    +0.051 C 
ATOM     20  C   UNL     1      33.973 -16.662 -24.557  0.00  0.00    +0.250 C 
ATOM     21  C   UNL     1      33.872 -13.010 -23.639  0.00  0.00    +0.031 C 
ATOM     22  C   UNL     1      33.510 -13.556 -26.406  0.00  0.00    +0.017 C 
ATOM     23  C   UNL     1      33.675 -11.974 -24.557  0.00  0.00    +0.140 C 
ATOM     24  C   UNL     1      33.496 -12.244 -25.927  0.00  0.00    +0.031 C 
ATOM     25  H   UNL     1      33.657 -16.345 -26.625  0.00  0.00    +0.155 HD
ENDBRANCH  10  16
BRANCH   2  26
ATOM     26  C   UNL     1      34.800 -22.598 -19.098  0.00  0.00    +0.071 C 
BRANCH  26  27
ATOM     27  C   UNL     1      34.949 -22.513 -17.586  0.00  0.00    -0.055 C 
BRANCH  27  28
ATOM     28  N   UNL     1      33.944 -23.341 -16.931  0.00  0.00    +0.388 N 
ATOM     29  H   UNL     1      34.103 -24.309 -17.206  0.00  0.00    -0.080 HD
BRANCH  28  30
ATOM     30  C   UNL     1      32.597 -22.950 -17.354  0.00  0.00    -0.077 C 
ATOM     31  C   UNL     1      31.572 -23.264 -16.279  0.00  0.00    -0.025 C 
ENDBRANCH  28  30
BRANCH  28  32
ATOM     32  C   UNL     1      34.065 -23.244 -15.475  0.00  0.00    -0.077 C 
ATOM     33  C   UNL     1      35.518 -23.101 -15.053  0.00  0.00    -0.025 C 
ENDBRANCH  28  32
ENDBRANCH  27  28
ENDBRANCH  26  27
ENDBRANCH   2  26
TORSDOF 6
ENDMDL
