MODEL 1
REMARK VINA RESULT:     -10.9      0.000      0.000
REMARK  Name = 9824562
REMARK  9 active torsions:
REMARK  status: ('A' for Active; 'I' for Inactive)
REMARK    1  A    between atoms: C_1  and  C_5
REMARK    2  A    between atoms: C_1  and  O_20
REMARK    3  A    between atoms: C_1  and  C_22
REMARK    4  A    between atoms: N_4  and  C_7
REMARK    5  A    between atoms: C_9  and  C_16
REMARK    6  A    between atoms: C_11  and  N_19
REMARK    7  A    between atoms: C_22  and  O_23
REMARK    8  A    between atoms: O_23  and  C_24
REMARK    9  A    between atoms: C_27  and  N_31
REMARK                            x       y       z     vdW  Elec       q    Type
REMARK                         _______ _______ _______ _____ _____    ______ ____
ROOT
ATOM      1  C   UNL     1      34.615 -16.669 -23.921  0.00  0.00    +0.197 C 
ATOM      2  C   UNL     1      34.394 -17.647 -25.077  0.00  0.00    +0.043 C 
ENDROOT
BRANCH   1   5
ATOM      3  O   UNL     1      33.198 -15.185 -25.188  0.00  0.00    -0.272 OA
ATOM      4  N   UNL     1      34.051 -14.422 -23.146  0.00  0.00    -0.282 N 
ATOM      5  C   UNL     1      33.868 -15.344 -24.170  0.00  0.00    +0.254 C 
ATOM      6  H   UNL     1      34.621 -14.712 -22.397  0.00  0.00    +0.155 HD
BRANCH   4   7
ATOM      7  C   UNL     1      33.515 -13.116 -23.051  0.00  0.00    +0.050 C 
ATOM      8  C   UNL     1      32.654 -12.788 -22.005  0.00  0.00    +0.020 C 
ATOM      9  C   UNL     1      32.126 -11.501 -21.912  0.00  0.00    +0.095 C 
ATOM     10  C   UNL     1      33.848 -12.155 -24.007  0.00  0.00    +0.016 C 
ATOM     11  C   UNL     1      32.459 -10.539 -22.868  0.00  0.00    +0.147 C 
ATOM     12  C   UNL     1      33.321 -10.867 -23.915  0.00  0.00    +0.025 C 
BRANCH   9  16
ATOM     13  F   UNL     1      31.333  -9.902 -20.319  0.00  0.00    -0.166 F 
ATOM     14  F   UNL     1      29.886 -11.320 -21.093  0.00  0.00    -0.166 F 
ATOM     15  F   UNL     1      31.414 -11.983 -19.695  0.00  0.00    -0.166 F 
ATOM     16  C   UNL     1      31.206 -11.181 -20.779  0.00  0.00    +0.420 C 
ENDBRANCH   9  16
BRANCH  11  19
ATOM     17  O   UNL     1      32.637  -8.317 -22.280  0.00  0.00    -0.126 OA
ATOM     18  O   UNL     1      30.785  -8.999 -23.242  0.00  0.00    -0.126 OA
ATOM     19  N   UNL     1      31.934  -9.220 -22.793  0.00  0.00    +0.058 N 
ENDBRANCH  11  19
ENDBRANCH   4   7
ENDBRANCH   1   5
BRANCH   1  20
ATOM     20  O   UNL     1      36.010 -16.372 -23.862  0.00  0.00    -0.375 OA
ATOM     21  H   UNL     1      36.478 -17.097 -23.418  0.00  0.00    +0.211 HD
ENDBRANCH   1  20
BRANCH   1  22
ATOM     22  C   UNL     1      34.233 -17.318 -22.585  0.00  0.00    +0.241 C 
BRANCH  22  23
ATOM     23  O   UNL     1      35.073 -18.432 -22.299  0.00  0.00    -0.472 OA
BRANCH  23  24
ATOM     24  C   UNL     1      34.589 -19.356 -21.412  0.00  0.00    +0.139 C 
ATOM     25  C   UNL     1      33.217 -19.439 -21.170  0.00  0.00    +0.038 C 
ATOM     26  C   UNL     1      35.467 -20.213 -20.749  0.00  0.00    +0.038 C 
ATOM     27  C   UNL     1      33.603 -21.236 -19.602  0.00  0.00    +0.051 C 
ATOM     28  C   UNL     1      32.725 -20.379 -20.265  0.00  0.00    +0.018 C 
ATOM     29  C   UNL     1      34.975 -21.152 -19.844  0.00  0.00    +0.018 C 
BRANCH  27  31
ATOM     30  O   UNL     1      35.002 -22.765 -17.418  0.00  0.00    -0.275 OA
ATOM     31  N   UNL     1      33.111 -22.174 -18.695  0.00  0.00    -0.284 N 
ATOM     32  C   UNL     1      33.811 -22.860 -17.694  0.00  0.00    +0.227 C 
ATOM     33  C   UNL     1      32.912 -23.793 -16.922  0.00  0.00    +0.095 C 
ATOM     34  H   UNL     1      32.150 -22.380 -18.767  0.00  0.00    +0.155 HD
ENDBRANCH  27  31
ENDBRANCH  23  24
ENDBRANCH  22  23
ENDBRANCH   1  22
TORSDOF 9
ENDMDL
MODEL 2
REMARK VINA RESULT:     -10.8      2.157      2.756
REMARK  Name = 9824562
REMARK  9 active torsions:
REMARK  status: ('A' for Active; 'I' for Inactive)
REMARK    1  A    between atoms: C_1  and  C_5
REMARK    2  A    between atoms: C_1  and  O_20
REMARK    3  A    between atoms: C_1  and  C_22
REMARK    4  A    between atoms: N_4  and  C_7
REMARK    5  A    between atoms: C_9  and  C_16
REMARK    6  A    between atoms: C_11  and  N_19
REMARK    7  A    between atoms: C_22  and  O_23
REMARK    8  A    between atoms: O_23  and  C_24
REMARK    9  A    between atoms: C_27  and  N_31
REMARK                            x       y       z     vdW  Elec       q    Type
REMARK                         _______ _______ _______ _____ _____    ______ ____
ROOT
ATOM      1  C   UNL     1      35.032 -17.838 -22.907  0.00  0.00    +0.197 C 
ATOM      2  C   UNL     1      34.580 -17.931 -24.366  0.00  0.00    +0.043 C 
ENDROOT
BRANCH   1   5
ATOM      3  O   UNL     1      34.950 -16.199 -21.139  0.00  0.00    -0.272 OA
ATOM      4  N   UNL     1      33.925 -15.677 -23.178  0.00  0.00    -0.282 N 
ATOM      5  C   UNL     1      34.637 -16.480 -22.294  0.00  0.00    +0.254 C 
ATOM      6  H   UNL     1      33.758 -16.055 -24.071  0.00  0.00    +0.155 HD
BRANCH   4   7
ATOM      7  C   UNL     1      33.410 -14.379 -22.945  0.00  0.00    +0.050 C 
ATOM      8  C   UNL     1      33.834 -13.308 -23.732  0.00  0.00    +0.020 C 
ATOM      9  C   UNL     1      33.327 -12.030 -23.502  0.00  0.00    +0.095 C 
ATOM     10  C   UNL     1      32.479 -14.171 -21.927  0.00  0.00    +0.016 C 
ATOM     11  C   UNL     1      32.395 -11.821 -22.485  0.00  0.00    +0.147 C 
ATOM     12  C   UNL     1      31.971 -12.892 -21.697  0.00  0.00    +0.025 C 
BRANCH   9  16
ATOM     13  F   UNL     1      34.395 -11.317 -25.520  0.00  0.00    -0.166 F 
ATOM     14  F   UNL     1      32.802 -10.060 -24.753  0.00  0.00    -0.166 F 
ATOM     15  F   UNL     1      34.722 -10.118 -23.736  0.00  0.00    -0.166 F 
ATOM     16  C   UNL     1      33.800 -10.904 -24.363  0.00  0.00    +0.420 C 
ENDBRANCH   9  16
BRANCH  11  19
ATOM     17  O   UNL     1      30.714 -10.252 -22.654  0.00  0.00    -0.126 OA
ATOM     18  O   UNL     1      32.558  -9.699 -21.598  0.00  0.00    -0.126 OA
ATOM     19  N   UNL     1      31.862 -10.526 -22.233  0.00  0.00    +0.058 N 
ENDBRANCH  11  19
ENDBRANCH   4   7
ENDBRANCH   1   5
BRANCH   1  20
ATOM     20  O   UNL     1      36.457 -17.919 -22.887  0.00  0.00    -0.375 OA
ATOM     21  H   UNL     1      36.834 -17.072 -23.174  0.00  0.00    +0.211 HD
ENDBRANCH   1  20
BRANCH   1  22
ATOM     22  C   UNL     1      34.498 -19.026 -22.099  0.00  0.00    +0.241 C 
BRANCH  22  23
ATOM     23  O   UNL     1      35.549 -19.673 -21.387  0.00  0.00    -0.472 OA
BRANCH  23  24
ATOM     24  C   UNL     1      35.177 -20.522 -20.379  0.00  0.00    +0.139 C 
ATOM     25  C   UNL     1      33.825 -20.766 -20.135  0.00  0.00    +0.038 C 
ATOM     26  C   UNL     1      36.150 -21.142 -19.595  0.00  0.00    +0.038 C 
ATOM     27  C   UNL     1      34.420 -22.249 -18.324  0.00  0.00    +0.051 C 
ATOM     28  C   UNL     1      33.448 -21.629 -19.107  0.00  0.00    +0.018 C 
ATOM     29  C   UNL     1      35.772 -22.005 -18.568  0.00  0.00    +0.018 C 
BRANCH  27  31
ATOM     30  O   UNL     1      35.327 -22.386 -15.455  0.00  0.00    -0.275 OA
ATOM     31  N   UNL     1      34.042 -23.111 -17.294  0.00  0.00    -0.284 N 
ATOM     32  C   UNL     1      34.500 -23.131 -15.970  0.00  0.00    +0.227 C 
ATOM     33  C   UNL     1      33.839 -24.222 -15.166  0.00  0.00    +0.095 C 
ATOM     34  H   UNL     1      33.367 -23.790 -17.527  0.00  0.00    +0.155 HD
ENDBRANCH  27  31
ENDBRANCH  23  24
ENDBRANCH  22  23
ENDBRANCH   1  22
TORSDOF 9
ENDMDL
MODEL 3
REMARK VINA RESULT:     -10.7      1.190      1.729
REMARK  Name = 9824562
REMARK  9 active torsions:
REMARK  status: ('A' for Active; 'I' for Inactive)
REMARK    1  A    between atoms: C_1  and  C_5
REMARK    2  A    between atoms: C_1  and  O_20
REMARK    3  A    between atoms: C_1  and  C_22
REMARK    4  A    between atoms: N_4  and  C_7
REMARK    5  A    between atoms: C_9  and  C_16
REMARK    6  A    between atoms: C_11  and  N_19
REMARK    7  A    between atoms: C_22  and  O_23
REMARK    8  A    between atoms: O_23  and  C_24
REMARK    9  A    between atoms: C_27  and  N_31
REMARK                            x       y       z     vdW  Elec       q    Type
REMARK                         _______ _______ _______ _____ _____    ______ ____
ROOT
ATOM      1  C   UNL     1      34.784 -17.254 -23.115  0.00  0.00    +0.197 C 
ATOM      2  C   UNL     1      34.260 -17.399 -24.546  0.00  0.00    +0.043 C 
ENDROOT
BRANCH   1   5
ATOM      3  O   UNL     1      34.875 -15.521 -21.439  0.00  0.00    -0.272 OA
ATOM      4  N   UNL     1      33.848 -15.027 -23.484  0.00  0.00    -0.282 N 
ATOM      5  C   UNL     1      34.513 -15.837 -22.570  0.00  0.00    +0.254 C 
ATOM      6  H   UNL     1      33.630 -15.438 -24.352  0.00  0.00    +0.155 HD
BRANCH   4   7
ATOM      7  C   UNL     1      33.445 -13.681 -23.314  0.00  0.00    +0.050 C 
ATOM      8  C   UNL     1      32.698 -13.310 -22.197  0.00  0.00    +0.020 C 
ATOM      9  C   UNL     1      32.302 -11.983 -22.031  0.00  0.00    +0.095 C 
ATOM     10  C   UNL     1      33.797 -12.724 -24.267  0.00  0.00    +0.016 C 
ATOM     11  C   UNL     1      32.654 -11.026 -22.983  0.00  0.00    +0.147 C 
ATOM     12  C   UNL     1      33.401 -11.397 -24.102  0.00  0.00    +0.025 C 
BRANCH   9  16
ATOM     13  F   UNL     1      30.168 -11.483 -21.074  0.00  0.00    -0.166 F 
ATOM     14  F   UNL     1      31.587 -12.536 -19.817  0.00  0.00    -0.166 F 
ATOM     15  F   UNL     1      31.896 -10.433 -20.274  0.00  0.00    -0.166 F 
ATOM     16  C   UNL     1      31.503 -11.618 -20.823  0.00  0.00    +0.420 C 
ENDBRANCH   9  16
BRANCH  11  19
ATOM     17  O   UNL     1      31.083  -9.342 -23.112  0.00  0.00    -0.126 OA
ATOM     18  O   UNL     1      33.108  -8.834 -22.429  0.00  0.00    -0.126 OA
ATOM     19  N   UNL     1      32.262  -9.667 -22.834  0.00  0.00    +0.058 N 
ENDBRANCH  11  19
ENDBRANCH   4   7
ENDBRANCH   1   5
BRANCH   1  20
ATOM     20  O   UNL     1      36.199 -17.438 -23.149  0.00  0.00    -0.375 OA
ATOM     21  H   UNL     1      36.401 -18.381 -23.258  0.00  0.00    +0.211 HD
ENDBRANCH   1  20
BRANCH   1  22
ATOM     22  C   UNL     1      34.205 -18.350 -22.214  0.00  0.00    +0.241 C 
BRANCH  22  23
ATOM     23  O   UNL     1      35.200 -19.312 -21.877  0.00  0.00    -0.472 OA
BRANCH  23  24
ATOM     24  C   UNL     1      34.902 -20.173 -20.854  0.00  0.00    +0.139 C 
ATOM     25  C   UNL     1      35.924 -20.871 -20.208  0.00  0.00    +0.038 C 
ATOM     26  C   UNL     1      33.578 -20.353 -20.458  0.00  0.00    +0.038 C 
ATOM     27  C   UNL     1      34.295 -21.928 -18.772  0.00  0.00    +0.051 C 
ATOM     28  C   UNL     1      35.620 -21.748 -19.168  0.00  0.00    +0.018 C 
ATOM     29  C   UNL     1      33.273 -21.231 -19.418  0.00  0.00    +0.018 C 
BRANCH  27  31
ATOM     30  O   UNL     1      35.743 -22.479 -16.190  0.00  0.00    -0.275 OA
ATOM     31  N   UNL     1      33.991 -22.808 -17.733  0.00  0.00    -0.284 N 
ATOM     32  C   UNL     1      34.705 -23.026 -16.548  0.00  0.00    +0.227 C 
ATOM     33  C   UNL     1      34.041 -24.063 -15.678  0.00  0.00    +0.095 C 
ATOM     34  H   UNL     1      33.171 -23.341 -17.846  0.00  0.00    +0.155 HD
ENDBRANCH  27  31
ENDBRANCH  23  24
ENDBRANCH  22  23
ENDBRANCH   1  22
TORSDOF 9
ENDMDL
MODEL 4
REMARK VINA RESULT:     -10.7      2.183      2.720
REMARK  Name = 9824562
REMARK  9 active torsions:
REMARK  status: ('A' for Active; 'I' for Inactive)
REMARK    1  A    between atoms: C_1  and  C_5
REMARK    2  A    between atoms: C_1  and  O_20
REMARK    3  A    between atoms: C_1  and  C_22
REMARK    4  A    between atoms: N_4  and  C_7
REMARK    5  A    between atoms: C_9  and  C_16
REMARK    6  A    between atoms: C_11  and  N_19
REMARK    7  A    between atoms: C_22  and  O_23
REMARK    8  A    between atoms: O_23  and  C_24
REMARK    9  A    between atoms: C_27  and  N_31
REMARK                            x       y       z     vdW  Elec       q    Type
REMARK                         _______ _______ _______ _____ _____    ______ ____
ROOT
ATOM      1  C   UNL     1      34.445 -15.746 -23.568  0.00  0.00    +0.197 C 
ATOM      2  C   UNL     1      33.685 -15.804 -24.895  0.00  0.00    +0.043 C 
ENDROOT
BRANCH   1   5
ATOM      3  O   UNL     1      34.613 -14.219 -21.708  0.00  0.00    -0.272 OA
ATOM      4  N   UNL     1      33.495 -13.496 -23.633  0.00  0.00    -0.282 N 
ATOM      5  C   UNL     1      34.201 -14.403 -22.851  0.00  0.00    +0.254 C 
ATOM      6  H   UNL     1      33.239 -13.804 -24.532  0.00  0.00    +0.155 HD
BRANCH   4   7
ATOM      7  C   UNL     1      33.102 -12.180 -23.291  0.00  0.00    +0.050 C 
ATOM      8  C   UNL     1      33.817 -11.087 -23.779  0.00  0.00    +0.020 C 
ATOM      9  C   UNL     1      33.429  -9.791 -23.440  0.00  0.00    +0.095 C 
ATOM     10  C   UNL     1      31.997 -11.977 -22.463  0.00  0.00    +0.016 C 
ATOM     11  C   UNL     1      32.324  -9.588 -22.613  0.00  0.00    +0.147 C 
ATOM     12  C   UNL     1      31.608 -10.681 -22.124  0.00  0.00    +0.025 C 
BRANCH   9  16
ATOM     13  F   UNL     1      33.449  -7.709 -24.618  0.00  0.00    -0.166 F 
ATOM     14  F   UNL     1      34.898  -7.951 -23.022  0.00  0.00    -0.166 F 
ATOM     15  F   UNL     1      35.153  -9.032 -24.891  0.00  0.00    -0.166 F 
ATOM     16  C   UNL     1      34.216  -8.641 -23.980  0.00  0.00    +0.420 C 
ENDBRANCH   9  16
BRANCH  11  19
ATOM     17  O   UNL     1      31.054  -7.696 -22.968  0.00  0.00    -0.126 OA
ATOM     18  O   UNL     1      32.408  -7.737 -21.240  0.00  0.00    -0.126 OA
ATOM     19  N   UNL     1      31.908  -8.275 -22.256  0.00  0.00    +0.058 N 
ENDBRANCH  11  19
ENDBRANCH   4   7
ENDBRANCH   1   5
BRANCH   1  20
ATOM     20  O   UNL     1      35.840 -15.828 -23.862  0.00  0.00    -0.375 OA
ATOM     21  H   UNL     1      35.961 -16.132 -24.775  0.00  0.00    +0.211 HD
ENDBRANCH   1  20
BRANCH   1  22
ATOM     22  C   UNL     1      34.094 -16.953 -22.691  0.00  0.00    +0.241 C 
BRANCH  22  23
ATOM     23  O   UNL     1      35.197 -17.849 -22.591  0.00  0.00    -0.472 OA
BRANCH  23  24
ATOM     24  C   UNL     1      35.082 -18.867 -21.682  0.00  0.00    +0.139 C 
ATOM     25  C   UNL     1      33.824 -19.381 -21.365  0.00  0.00    +0.038 C 
ATOM     26  C   UNL     1      36.222 -19.389 -21.072  0.00  0.00    +0.038 C 
ATOM     27  C   UNL     1      34.848 -20.938 -19.827  0.00  0.00    +0.051 C 
ATOM     28  C   UNL     1      33.708 -20.416 -20.438  0.00  0.00    +0.018 C 
ATOM     29  C   UNL     1      36.106 -20.423 -20.144  0.00  0.00    +0.018 C 
BRANCH  27  31
ATOM     30  O   UNL     1      32.409 -22.121 -18.517  0.00  0.00    -0.275 OA
ATOM     31  N   UNL     1      34.731 -21.971 -18.898  0.00  0.00    -0.284 N 
ATOM     32  C   UNL     1      33.564 -22.484 -18.317  0.00  0.00    +0.227 C 
ATOM     33  C   UNL     1      33.864 -23.607 -17.356  0.00  0.00    +0.095 C 
ATOM     34  H   UNL     1      35.574 -22.395 -18.616  0.00  0.00    +0.155 HD
ENDBRANCH  27  31
ENDBRANCH  23  24
ENDBRANCH  22  23
ENDBRANCH   1  22
TORSDOF 9
ENDMDL
MODEL 5
REMARK VINA RESULT:     -10.7      2.210      2.869
REMARK  Name = 9824562
REMARK  9 active torsions:
REMARK  status: ('A' for Active; 'I' for Inactive)
REMARK    1  A    between atoms: C_1  and  C_5
REMARK    2  A    between atoms: C_1  and  O_20
REMARK    3  A    between atoms: C_1  and  C_22
REMARK    4  A    between atoms: N_4  and  C_7
REMARK    5  A    between atoms: C_9  and  C_16
REMARK    6  A    between atoms: C_11  and  N_19
REMARK    7  A    between atoms: C_22  and  O_23
REMARK    8  A    between atoms: O_23  and  C_24
REMARK    9  A    between atoms: C_27  and  N_31
REMARK                            x       y       z     vdW  Elec       q    Type
REMARK                         _______ _______ _______ _____ _____    ______ ____
ROOT
ATOM      1  C   UNL     1      35.141 -17.766 -22.805  0.00  0.00    +0.197 C 
ATOM      2  C   UNL     1      34.929 -17.785 -24.321  0.00  0.00    +0.043 C 
ENDROOT
BRANCH   1   5
ATOM      3  O   UNL     1      34.984 -16.126 -21.043  0.00  0.00    -0.272 OA
ATOM      4  N   UNL     1      34.005 -15.624 -23.109  0.00  0.00    -0.282 N 
ATOM      5  C   UNL     1      34.706 -16.414 -22.205  0.00  0.00    +0.254 C 
ATOM      6  H   UNL     1      33.868 -16.007 -24.006  0.00  0.00    +0.155 HD
BRANCH   4   7
ATOM      7  C   UNL     1      33.462 -14.335 -22.894  0.00  0.00    +0.050 C 
ATOM      8  C   UNL     1      33.875 -13.262 -23.683  0.00  0.00    +0.020 C 
ATOM      9  C   UNL     1      33.340 -11.992 -23.469  0.00  0.00    +0.095 C 
ATOM     10  C   UNL     1      32.514 -14.138 -21.889  0.00  0.00    +0.016 C 
ATOM     11  C   UNL     1      32.391 -11.794 -22.466  0.00  0.00    +0.147 C 
ATOM     12  C   UNL     1      31.978 -12.868 -21.675  0.00  0.00    +0.025 C 
BRANCH   9  16
ATOM     13  F   UNL     1      34.691 -10.033 -23.712  0.00  0.00    -0.166 F 
ATOM     14  F   UNL     1      34.431 -11.273 -25.473  0.00  0.00    -0.166 F 
ATOM     15  F   UNL     1      32.777 -10.065 -24.743  0.00  0.00    -0.166 F 
ATOM     16  C   UNL     1      33.803 -10.864 -24.333  0.00  0.00    +0.420 C 
ENDBRANCH   9  16
BRANCH  11  19
ATOM     17  O   UNL     1      32.506  -9.660 -21.602  0.00  0.00    -0.126 OA
ATOM     18  O   UNL     1      30.679 -10.262 -22.660  0.00  0.00    -0.126 OA
ATOM     19  N   UNL     1      31.831 -10.508 -22.231  0.00  0.00    +0.058 N 
ENDBRANCH  11  19
ENDBRANCH   4   7
ENDBRANCH   1   5
BRANCH   1  20
ATOM     20  O   UNL     1      36.540 -17.914 -22.559  0.00  0.00    -0.375 OA
ATOM     21  H   UNL     1      37.041 -17.541 -23.303  0.00  0.00    +0.211 HD
ENDBRANCH   1  20
BRANCH   1  22
ATOM     22  C   UNL     1      34.435 -18.956 -22.145  0.00  0.00    +0.241 C 
BRANCH  22  23
ATOM     23  O   UNL     1      35.375 -19.820 -21.513  0.00  0.00    -0.472 OA
BRANCH  23  24
ATOM     24  C   UNL     1      34.902 -20.604 -20.494  0.00  0.00    +0.139 C 
ATOM     25  C   UNL     1      35.794 -21.266 -19.651  0.00  0.00    +0.038 C 
ATOM     26  C   UNL     1      33.527 -20.740 -20.301  0.00  0.00    +0.038 C 
ATOM     27  C   UNL     1      33.937 -22.202 -18.422  0.00  0.00    +0.051 C 
ATOM     28  C   UNL     1      35.311 -22.065 -18.615  0.00  0.00    +0.018 C 
ATOM     29  C   UNL     1      33.044 -21.539 -19.265  0.00  0.00    +0.018 C 
BRANCH  27  31
ATOM     30  O   UNL     1      31.182 -22.396 -17.222  0.00  0.00    -0.275 OA
ATOM     31  N   UNL     1      33.454 -23.003 -17.386  0.00  0.00    -0.284 N 
ATOM     32  C   UNL     1      32.155 -23.052 -16.864  0.00  0.00    +0.227 C 
ATOM     33  C   UNL     1      32.040 -24.057 -15.746  0.00  0.00    +0.095 C 
ATOM     34  H   UNL     1      34.108 -23.611 -16.971  0.00  0.00    +0.155 HD
ENDBRANCH  27  31
ENDBRANCH  23  24
ENDBRANCH  22  23
ENDBRANCH   1  22
TORSDOF 9
ENDMDL
MODEL 6
REMARK VINA RESULT:     -10.7      4.485     11.474
REMARK  Name = 9824562
REMARK  9 active torsions:
REMARK  status: ('A' for Active; 'I' for Inactive)
REMARK    1  A    between atoms: C_1  and  C_5
REMARK    2  A    between atoms: C_1  and  O_20
REMARK    3  A    between atoms: C_1  and  C_22
REMARK    4  A    between atoms: N_4  and  C_7
REMARK    5  A    between atoms: C_9  and  C_16
REMARK    6  A    between atoms: C_11  and  N_19
REMARK    7  A    between atoms: C_22  and  O_23
REMARK    8  A    between atoms: O_23  and  C_24
REMARK    9  A    between atoms: C_27  and  N_31
REMARK                            x       y       z     vdW  Elec       q    Type
REMARK                         _______ _______ _______ _____ _____    ______ ____
ROOT
ATOM      1  C   UNL     1      33.440 -11.051 -24.252  0.00  0.00    +0.197 C 
ATOM      2  C   UNL     1      34.859 -10.511 -24.053  0.00  0.00    +0.043 C 
ENDROOT
BRANCH   1   5
ATOM      3  O   UNL     1      32.183 -12.524 -22.814  0.00  0.00    -0.272 OA
ATOM      4  N   UNL     1      34.306 -13.214 -23.516  0.00  0.00    -0.282 N 
ATOM      5  C   UNL     1      33.225 -12.344 -23.440  0.00  0.00    +0.254 C 
ATOM      6  H   UNL     1      35.067 -12.915 -24.065  0.00  0.00    +0.155 HD
BRANCH   4   7
ATOM      7  C   UNL     1      34.444 -14.480 -22.898  0.00  0.00    +0.050 C 
ATOM      8  C   UNL     1      34.648 -15.619 -23.675  0.00  0.00    +0.020 C 
ATOM      9  C   UNL     1      34.783 -16.866 -23.065  0.00  0.00    +0.095 C 
ATOM     10  C   UNL     1      34.375 -14.587 -21.508  0.00  0.00    +0.016 C 
ATOM     11  C   UNL     1      34.715 -16.974 -21.676  0.00  0.00    +0.147 C 
ATOM     12  C   UNL     1      34.510 -15.834 -20.897  0.00  0.00    +0.025 C 
BRANCH   9  16
ATOM     13  F   UNL     1      34.039 -19.025 -23.778  0.00  0.00    -0.166 F 
ATOM     14  F   UNL     1      35.021 -17.783 -25.261  0.00  0.00    -0.166 F 
ATOM     15  F   UNL     1      36.185 -18.690 -23.664  0.00  0.00    -0.166 F 
ATOM     16  C   UNL     1      35.001 -18.067 -23.927  0.00  0.00    +0.420 C 
ENDBRANCH   9  16
BRANCH  11  19
ATOM     17  O   UNL     1      33.832 -18.947 -20.874  0.00  0.00    -0.126 OA
ATOM     18  O   UNL     1      35.987 -18.595 -20.641  0.00  0.00    -0.126 OA
ATOM     19  N   UNL     1      34.851 -18.234 -21.032  0.00  0.00    +0.058 N 
ENDBRANCH  11  19
ENDBRANCH   4   7
ENDBRANCH   1   5
BRANCH   1  20
ATOM     20  O   UNL     1      33.289 -11.381 -25.632  0.00  0.00    -0.375 OA
ATOM     21  H   UNL     1      32.465 -10.994 -25.970  0.00  0.00    +0.211 HD
ENDBRANCH   1  20
BRANCH   1  22
ATOM     22  C   UNL     1      32.401  -9.972 -23.926  0.00  0.00    +0.241 C 
BRANCH  22  23
ATOM     23  O   UNL     1      32.805  -9.198 -22.801  0.00  0.00    -0.472 OA
BRANCH  23  24
ATOM     24  C   UNL     1      32.254  -7.949 -22.684  0.00  0.00    +0.139 C 
ATOM     25  C   UNL     1      32.544  -7.159 -21.571  0.00  0.00    +0.038 C 
ATOM     26  C   UNL     1      31.403  -7.467 -23.678  0.00  0.00    +0.038 C 
ATOM     27  C   UNL     1      31.130  -5.407 -22.446  0.00  0.00    +0.051 C 
ATOM     28  C   UNL     1      31.982  -5.889 -21.452  0.00  0.00    +0.018 C 
ATOM     29  C   UNL     1      30.841  -6.197 -23.559  0.00  0.00    +0.018 C 
BRANCH  27  31
ATOM     30  O   UNL     1      31.908  -2.794 -23.724  0.00  0.00    -0.275 OA
ATOM     31  N   UNL     1      30.566  -4.137 -22.325  0.00  0.00    -0.284 N 
ATOM     32  C   UNL     1      30.972  -2.948 -22.946  0.00  0.00    +0.227 C 
ATOM     33  C   UNL     1      30.095  -1.786 -22.554  0.00  0.00    +0.095 C 
ATOM     34  H   UNL     1      29.785  -4.067 -21.730  0.00  0.00    +0.155 HD
ENDBRANCH  27  31
ENDBRANCH  23  24
ENDBRANCH  22  23
ENDBRANCH   1  22
TORSDOF 9
ENDMDL
MODEL 7
REMARK VINA RESULT:     -10.5      4.555     11.224
REMARK  Name = 9824562
REMARK  9 active torsions:
REMARK  status: ('A' for Active; 'I' for Inactive)
REMARK    1  A    between atoms: C_1  and  C_5
REMARK    2  A    between atoms: C_1  and  O_20
REMARK    3  A    between atoms: C_1  and  C_22
REMARK    4  A    between atoms: N_4  and  C_7
REMARK    5  A    between atoms: C_9  and  C_16
REMARK    6  A    between atoms: C_11  and  N_19
REMARK    7  A    between atoms: C_22  and  O_23
REMARK    8  A    between atoms: O_23  and  C_24
REMARK    9  A    between atoms: C_27  and  N_31
REMARK                            x       y       z     vdW  Elec       q    Type
REMARK                         _______ _______ _______ _____ _____    ______ ____
ROOT
ATOM      1  C   UNL     1      35.444 -21.717 -19.651  0.00  0.00    +0.197 C 
ATOM      2  C   UNL     1      36.544 -21.315 -18.666  0.00  0.00    +0.043 C 
ENDROOT
BRANCH   1   5
ATOM      3  O   UNL     1      33.841 -23.519 -19.614  0.00  0.00    -0.272 OA
ATOM      4  N   UNL     1      34.223 -22.340 -17.628  0.00  0.00    -0.282 N 
ATOM      5  C   UNL     1      34.408 -22.636 -18.974  0.00  0.00    +0.254 C 
ATOM      6  H   UNL     1      34.761 -21.597 -17.269  0.00  0.00    +0.155 HD
BRANCH   4   7
ATOM      7  C   UNL     1      33.355 -22.980 -16.712  0.00  0.00    +0.050 C 
ATOM      8  C   UNL     1      31.974 -22.834 -16.839  0.00  0.00    +0.020 C 
ATOM      9  C   UNL     1      31.119 -23.465 -15.936  0.00  0.00    +0.095 C 
ATOM     10  C   UNL     1      33.882 -23.758 -15.680  0.00  0.00    +0.016 C 
ATOM     11  C   UNL     1      31.646 -24.243 -14.904  0.00  0.00    +0.147 C 
ATOM     12  C   UNL     1      33.027 -24.389 -14.777  0.00  0.00    +0.025 C 
BRANCH   9  16
ATOM     13  F   UNL     1      29.008 -24.414 -16.540  0.00  0.00    -0.166 F 
ATOM     14  F   UNL     1      29.006 -22.944 -14.945  0.00  0.00    -0.166 F 
ATOM     15  F   UNL     1      29.332 -22.314 -17.001  0.00  0.00    -0.166 F 
ATOM     16  C   UNL     1      29.645 -23.289 -16.100  0.00  0.00    +0.420 C 
ENDBRANCH   9  16
BRANCH  11  19
ATOM     17  O   UNL     1      30.693 -24.431 -12.813  0.00  0.00    -0.126 OA
ATOM     18  O   UNL     1      30.167 -25.920 -14.339  0.00  0.00    -0.126 OA
ATOM     19  N   UNL     1      30.793 -24.897 -13.973  0.00  0.00    +0.058 N 
ENDBRANCH  11  19
ENDBRANCH   4   7
ENDBRANCH   1   5
BRANCH   1  20
ATOM     20  O   UNL     1      36.054 -22.461 -20.705  0.00  0.00    -0.375 OA
ATOM     21  H   UNL     1      36.483 -21.851 -21.327  0.00  0.00    +0.211 HD
ENDBRANCH   1  20
BRANCH   1  22
ATOM     22  C   UNL     1      34.804 -20.475 -20.282  0.00  0.00    +0.241 C 
BRANCH  22  23
ATOM     23  O   UNL     1      35.531 -20.056 -21.434  0.00  0.00    -0.472 OA
BRANCH  23  24
ATOM     24  C   UNL     1      35.278 -18.791 -21.894  0.00  0.00    +0.139 C 
ATOM     25  C   UNL     1      35.131 -18.563 -23.263  0.00  0.00    +0.038 C 
ATOM     26  C   UNL     1      35.168 -17.731 -20.995  0.00  0.00    +0.038 C 
ATOM     27  C   UNL     1      34.765 -16.215 -22.832  0.00  0.00    +0.051 C 
ATOM     28  C   UNL     1      34.875 -17.275 -23.731  0.00  0.00    +0.018 C 
ATOM     29  C   UNL     1      34.912 -16.443 -21.463  0.00  0.00    +0.018 C 
BRANCH  27  31
ATOM     30  O   UNL     1      32.330 -14.469 -22.530  0.00  0.00    -0.275 OA
ATOM     31  N   UNL     1      34.511 -14.926 -23.301  0.00  0.00    -0.284 N 
ATOM     32  C   UNL     1      33.352 -14.156 -23.132  0.00  0.00    +0.227 C 
ATOM     33  C   UNL     1      33.475 -12.807 -23.794  0.00  0.00    +0.095 C 
ATOM     34  H   UNL     1      35.237 -14.503 -23.815  0.00  0.00    +0.155 HD
ENDBRANCH  27  31
ENDBRANCH  23  24
ENDBRANCH  22  23
ENDBRANCH   1  22
TORSDOF 9
ENDMDL
MODEL 8
REMARK VINA RESULT:     -10.5      3.926      7.281
REMARK  Name = 9824562
REMARK  9 active torsions:
REMARK  status: ('A' for Active; 'I' for Inactive)
REMARK    1  A    between atoms: C_1  and  C_5
REMARK    2  A    between atoms: C_1  and  O_20
REMARK    3  A    between atoms: C_1  and  C_22
REMARK    4  A    between atoms: N_4  and  C_7
REMARK    5  A    between atoms: C_9  and  C_16
REMARK    6  A    between atoms: C_11  and  N_19
REMARK    7  A    between atoms: C_22  and  O_23
REMARK    8  A    between atoms: O_23  and  C_24
REMARK    9  A    between atoms: C_27  and  N_31
REMARK                            x       y       z     vdW  Elec       q    Type
REMARK                         _______ _______ _______ _____ _____    ______ ____
ROOT
ATOM      1  C   UNL     1      33.864 -22.397 -18.693  0.00  0.00    +0.197 C 
ATOM      2  C   UNL     1      32.742 -22.750 -17.714  0.00  0.00    +0.043 C 
ENDROOT
BRANCH   1   5
ATOM      3  O   UNL     1      32.361 -20.686 -19.485  0.00  0.00    -0.272 OA
ATOM      4  N   UNL     1      34.558 -20.684 -20.291  0.00  0.00    -0.282 N 
ATOM      5  C   UNL     1      33.495 -21.157 -19.531  0.00  0.00    +0.254 C 
ATOM      6  H   UNL     1      35.404 -21.182 -20.212  0.00  0.00    +0.155 HD
BRANCH   4   7
ATOM      7  C   UNL     1      34.569 -19.573 -21.168  0.00  0.00    +0.050 C 
ATOM      8  C   UNL     1      33.994 -18.366 -20.773  0.00  0.00    +0.020 C 
ATOM      9  C   UNL     1      34.005 -17.272 -21.637  0.00  0.00    +0.095 C 
ATOM     10  C   UNL     1      35.157 -19.687 -22.429  0.00  0.00    +0.016 C 
ATOM     11  C   UNL     1      34.593 -17.384 -22.898  0.00  0.00    +0.147 C 
ATOM     12  C   UNL     1      35.169 -18.593 -23.293  0.00  0.00    +0.025 C 
BRANCH   9  16
ATOM     13  F   UNL     1      34.276 -15.104 -20.662  0.00  0.00    -0.166 F 
ATOM     14  F   UNL     1      32.744 -15.314 -22.182  0.00  0.00    -0.166 F 
ATOM     15  F   UNL     1      32.443 -16.184 -20.212  0.00  0.00    -0.166 F 
ATOM     16  C   UNL     1      33.380 -15.992 -21.184  0.00  0.00    +0.420 C 
ENDBRANCH   9  16
BRANCH  11  19
ATOM     17  O   UNL     1      33.885 -16.313 -24.813  0.00  0.00    -0.126 OA
ATOM     18  O   UNL     1      35.370 -15.311 -23.542  0.00  0.00    -0.126 OA
ATOM     19  N   UNL     1      34.617 -16.281 -23.796  0.00  0.00    +0.058 N 
ENDBRANCH  11  19
ENDBRANCH   4   7
ENDBRANCH   1   5
BRANCH   1  20
ATOM     20  O   UNL     1      34.017 -23.494 -19.594  0.00  0.00    -0.375 OA
ATOM     21  H   UNL     1      34.959 -23.717 -19.676  0.00  0.00    +0.211 HD
ENDBRANCH   1  20
BRANCH   1  22
ATOM     22  C   UNL     1      35.196 -22.230 -17.951  0.00  0.00    +0.241 C 
BRANCH  22  23
ATOM     23  O   UNL     1      35.047 -22.522 -16.565  0.00  0.00    -0.472 OA
BRANCH  23  24
ATOM     24  C   UNL     1      36.053 -23.243 -15.977  0.00  0.00    +0.139 C 
ATOM     25  C   UNL     1      37.366 -22.771 -16.019  0.00  0.00    +0.038 C 
ATOM     26  C   UNL     1      35.765 -24.448 -15.337  0.00  0.00    +0.038 C 
ATOM     27  C   UNL     1      38.101 -24.711 -14.782  0.00  0.00    +0.051 C 
ATOM     28  C   UNL     1      38.389 -23.506 -15.422  0.00  0.00    +0.018 C 
ATOM     29  C   UNL     1      36.788 -25.183 -14.740  0.00  0.00    +0.018 C 
BRANCH  27  31
ATOM     30  O   UNL     1      40.538 -26.003 -15.991  0.00  0.00    -0.275 OA
ATOM     31  N   UNL     1      39.126 -25.447 -14.187  0.00  0.00    -0.284 N 
ATOM     32  C   UNL     1      40.242 -26.030 -14.801  0.00  0.00    +0.227 C 
ATOM     33  C   UNL     1      41.120 -26.744 -13.804  0.00  0.00    +0.095 C 
ATOM     34  H   UNL     1      39.056 -25.572 -13.212  0.00  0.00    +0.155 HD
ENDBRANCH  27  31
ENDBRANCH  23  24
ENDBRANCH  22  23
ENDBRANCH   1  22
TORSDOF 9
ENDMDL
MODEL 9
REMARK VINA RESULT:     -10.4      6.372     12.627
REMARK  Name = 9824562
REMARK  9 active torsions:
REMARK  status: ('A' for Active; 'I' for Inactive)
REMARK    1  A    between atoms: C_1  and  C_5
REMARK    2  A    between atoms: C_1  and  O_20
REMARK    3  A    between atoms: C_1  and  C_22
REMARK    4  A    between atoms: N_4  and  C_7
REMARK    5  A    between atoms: C_9  and  C_16
REMARK    6  A    between atoms: C_11  and  N_19
REMARK    7  A    between atoms: C_22  and  O_23
REMARK    8  A    between atoms: O_23  and  C_24
REMARK    9  A    between atoms: C_27  and  N_31
REMARK                            x       y       z     vdW  Elec       q    Type
REMARK                         _______ _______ _______ _____ _____    ______ ____
ROOT
ATOM      1  C   UNL     1      33.872 -22.809 -18.364  0.00  0.00    +0.197 C 
ATOM      2  C   UNL     1      33.944 -24.017 -19.300  0.00  0.00    +0.043 C 
ENDROOT
BRANCH   1   5
ATOM      3  O   UNL     1      32.672 -23.672 -16.458  0.00  0.00    -0.272 OA
ATOM      4  N   UNL     1      34.933 -23.131 -16.187  0.00  0.00    -0.282 N 
ATOM      5  C   UNL     1      33.743 -23.257 -16.894  0.00  0.00    +0.254 C 
ATOM      6  H   UNL     1      35.703 -22.779 -16.690  0.00  0.00    +0.155 HD
BRANCH   4   7
ATOM      7  C   UNL     1      35.169 -23.448 -14.828  0.00  0.00    +0.050 C 
ATOM      8  C   UNL     1      36.445 -23.826 -14.410  0.00  0.00    +0.020 C 
ATOM      9  C   UNL     1      36.677 -24.138 -13.071  0.00  0.00    +0.095 C 
ATOM     10  C   UNL     1      34.124 -23.382 -13.906  0.00  0.00    +0.016 C 
ATOM     11  C   UNL     1      35.632 -24.072 -12.148  0.00  0.00    +0.147 C 
ATOM     12  C   UNL     1      34.355 -23.694 -12.566  0.00  0.00    +0.025 C 
BRANCH   9  16
ATOM     13  F   UNL     1      38.092 -25.708 -11.952  0.00  0.00    -0.166 F 
ATOM     14  F   UNL     1      38.907 -24.724 -13.704  0.00  0.00    -0.166 F 
ATOM     15  F   UNL     1      38.651 -23.609 -11.855  0.00  0.00    -0.166 F 
ATOM     16  C   UNL     1      38.055 -24.539 -12.655  0.00  0.00    +0.420 C 
ENDBRANCH   9  16
BRANCH  11  19
ATOM     17  O   UNL     1      36.552 -23.615 -10.084  0.00  0.00    -0.126 OA
ATOM     18  O   UNL     1      35.320 -25.420 -10.303  0.00  0.00    -0.126 OA
ATOM     19  N   UNL     1      35.845 -24.385 -10.777  0.00  0.00    +0.058 N 
ENDBRANCH  11  19
ENDBRANCH   4   7
ENDBRANCH   1   5
BRANCH   1  20
ATOM     20  O   UNL     1      32.694 -22.073 -18.693  0.00  0.00    -0.375 OA
ATOM     21  H   UNL     1      32.791 -21.154 -18.393  0.00  0.00    +0.211 HD
ENDBRANCH   1  20
BRANCH   1  22
ATOM     22  C   UNL     1      35.068 -21.877 -18.591  0.00  0.00    +0.241 C 
BRANCH  22  23
ATOM     23  O   UNL     1      35.334 -21.719 -19.982  0.00  0.00    -0.472 OA
BRANCH  23  24
ATOM     24  C   UNL     1      35.154 -20.465 -20.504  0.00  0.00    +0.139 C 
ATOM     25  C   UNL     1      36.260 -19.670 -20.808  0.00  0.00    +0.038 C 
ATOM     26  C   UNL     1      33.866 -19.983 -20.731  0.00  0.00    +0.038 C 
ATOM     27  C   UNL     1      34.788 -17.911 -21.565  0.00  0.00    +0.051 C 
ATOM     28  C   UNL     1      36.076 -18.394 -21.337  0.00  0.00    +0.018 C 
ATOM     29  C   UNL     1      33.681 -18.706 -21.261  0.00  0.00    +0.018 C 
BRANCH  27  31
ATOM     30  O   UNL     1      34.810 -15.218 -20.218  0.00  0.00    -0.275 OA
ATOM     31  N   UNL     1      34.604 -16.633 -22.093  0.00  0.00    -0.284 N 
ATOM     32  C   UNL     1      34.623 -15.407 -21.416  0.00  0.00    +0.227 C 
ATOM     33  C   UNL     1      34.383 -14.248 -22.351  0.00  0.00    +0.095 C 
ATOM     34  H   UNL     1      34.442 -16.587 -23.063  0.00  0.00    +0.155 HD
ENDBRANCH  27  31
ENDBRANCH  23  24
ENDBRANCH  22  23
ENDBRANCH   1  22
TORSDOF 9
ENDMDL
