MODEL 1
REMARK VINA RESULT:      -6.5      0.000      0.000
REMARK  Name = 46906075
REMARK  6 active torsions:
REMARK  status: ('A' for Active; 'I' for Inactive)
REMARK    1  A    between atoms: C_1  and  C_2
REMARK    2  A    between atoms: C_1  and  C_11
REMARK    3  A    between atoms: C_2  and  CA_3
REMARK    4  A    between atoms: CA_3  and  N_4
REMARK    5  A    between atoms: CA_3  and  C_10
REMARK    6  A    between atoms: C_11  and  N_12
REMARK                            x       y       z     vdW  Elec       q    Type
REMARK                         _______ _______ _______ _____ _____    ______ ____
ROOT
ATOM      1  C   UNL     1      32.110 -23.467 -16.294  0.00  0.00    +0.022 C 
ENDROOT
BRANCH   1   2
ATOM      2  C   UNL     1      30.825 -22.676 -16.585  0.00  0.00    -0.009 C 
BRANCH   2   3
ATOM      3  CA  UNL     1      29.539 -23.358 -16.100  0.00  0.00    +0.040 C 
BRANCH   3   4
ATOM      4  N   UNL     1      29.838 -24.815 -15.928  0.00  0.00    +0.389 N 
ATOM      5  H1  UNL     1      30.306 -25.166 -16.764  0.00  0.00    -0.088 HD
ATOM      6  H2  UNL     1      28.967 -25.327 -15.786  0.00  0.00    -0.088 HD
ATOM      7  H3  UNL     1      30.445 -24.945 -15.120  0.00  0.00    -0.088 HD
ENDBRANCH   3   4
BRANCH   3  10
ATOM      8  O   UNL     1      27.920 -21.855 -16.983  0.00  0.00    -0.248 OA
ATOM      9  OXT UNL     1      27.756 -24.072 -17.490  0.00  0.00    -0.248 OA
ATOM     10  C   UNL     1      28.276 -23.065 -16.931  0.00  0.00    +0.345 C 
ENDBRANCH   3  10
ENDBRANCH   2   3
ENDBRANCH   1   2
BRANCH   1  11
ATOM     11  C   UNL     1      33.164 -23.290 -17.385  0.00  0.00    +0.100 C 
BRANCH  11  12
ATOM     12  N   UNL     1      32.695 -22.389 -18.411  0.00  0.00    -0.347 N 
ATOM     13  N   UNL     1      32.770 -20.890 -20.125  0.00  0.00    -0.371 N 
ATOM     14  N   UNL     1      34.812 -21.724 -19.188  0.00  0.00    -0.345 N 
ATOM     15  C   UNL     1      33.515 -21.657 -19.254  0.00  0.00    +0.170 C 
ATOM     16  C   UNL     1      35.572 -20.908 -20.126  0.00  0.00    +0.124 C 
ATOM     17  H   UNL     1      31.721 -22.289 -18.519  0.00  0.00    +0.163 HD
ATOM     18  H   UNL     1      31.787 -20.917 -20.088  0.00  0.00    +0.159 HD
ATOM     19  H   UNL     1      33.221 -20.317 -20.786  0.00  0.00    +0.159 HD
ATOM     20  H   UNL     1      35.263 -22.302 -18.531  0.00  0.00    +0.163 HD
ENDBRANCH  11  12
ENDBRANCH   1  11
TORSDOF 6
ENDMDL
MODEL 2
REMARK VINA RESULT:      -6.2      4.312      6.231
REMARK  Name = 46906075
REMARK  6 active torsions:
REMARK  status: ('A' for Active; 'I' for Inactive)
REMARK    1  A    between atoms: C_1  and  C_2
REMARK    2  A    between atoms: C_1  and  C_11
REMARK    3  A    between atoms: C_2  and  CA_3
REMARK    4  A    between atoms: CA_3  and  N_4
REMARK    5  A    between atoms: CA_3  and  C_10
REMARK    6  A    between atoms: C_11  and  N_12
REMARK                            x       y       z     vdW  Elec       q    Type
REMARK                         _______ _______ _______ _____ _____    ______ ____
ROOT
ATOM      1  C   UNL     1      34.816 -19.679 -21.323  0.00  0.00    +0.022 C 
ENDROOT
BRANCH   1   2
ATOM      2  C   UNL     1      34.931 -20.695 -20.176  0.00  0.00    -0.009 C 
BRANCH   2   3
ATOM      3  CA  UNL     1      33.628 -21.442 -19.859  0.00  0.00    +0.040 C 
BRANCH   3   4
ATOM      4  N   UNL     1      32.522 -20.432 -19.843  0.00  0.00    +0.389 N 
ATOM      5  H1  UNL     1      32.627 -19.827 -19.028  0.00  0.00    -0.088 HD
ATOM      6  H2  UNL     1      31.623 -20.913 -19.795  0.00  0.00    -0.088 HD
ATOM      7  H3  UNL     1      32.562 -19.869 -20.692  0.00  0.00    -0.088 HD
ENDBRANCH   3   4
BRANCH   3  10
ATOM      8  O   UNL     1      32.548 -22.669 -18.131  0.00  0.00    -0.248 OA
ATOM      9  OXT UNL     1      34.825 -22.711 -18.256  0.00  0.00    -0.248 OA
ATOM     10  C   UNL     1      33.669 -22.356 -18.622  0.00  0.00    +0.345 C 
ENDBRANCH   3  10
ENDBRANCH   2   3
ENDBRANCH   1   2
BRANCH   1  11
ATOM     11  C   UNL     1      35.869 -18.577 -21.235  0.00  0.00    +0.100 C 
BRANCH  11  12
ATOM     12  N   UNL     1      35.305 -17.371 -20.678  0.00  0.00    -0.347 N 
ATOM     13  N   UNL     1      34.385 -15.287 -20.603  0.00  0.00    -0.371 N 
ATOM     14  N   UNL     1      34.947 -16.260 -22.719  0.00  0.00    -0.345 N 
ATOM     15  C   UNL     1      34.875 -16.284 -21.421  0.00  0.00    +0.170 C 
ATOM     16  C   UNL     1      34.464 -15.063 -23.395  0.00  0.00    +0.124 C 
ATOM     17  H   UNL     1      35.219 -17.318 -19.698  0.00  0.00    +0.163 HD
ATOM     18  H   UNL     1      34.377 -15.412 -19.626  0.00  0.00    +0.159 HD
ATOM     19  H   UNL     1      34.043 -14.452 -20.995  0.00  0.00    +0.159 HD
ATOM     20  H   UNL     1      35.313 -17.022 -23.226  0.00  0.00    +0.163 HD
ENDBRANCH  11  12
ENDBRANCH   1  11
TORSDOF 6
ENDMDL
MODEL 3
REMARK VINA RESULT:      -6.2      3.827      4.167
REMARK  Name = 46906075
REMARK  6 active torsions:
REMARK  status: ('A' for Active; 'I' for Inactive)
REMARK    1  A    between atoms: C_1  and  C_2
REMARK    2  A    between atoms: C_1  and  C_11
REMARK    3  A    between atoms: C_2  and  CA_3
REMARK    4  A    between atoms: CA_3  and  N_4
REMARK    5  A    between atoms: CA_3  and  C_10
REMARK    6  A    between atoms: C_11  and  N_12
REMARK                            x       y       z     vdW  Elec       q    Type
REMARK                         _______ _______ _______ _____ _____    ______ ____
ROOT
ATOM      1  C   UNL     1      31.359 -22.837 -14.697  0.00  0.00    +0.022 C 
ENDROOT
BRANCH   1   2
ATOM      2  C   UNL     1      30.532 -23.154 -15.952  0.00  0.00    -0.009 C 
BRANCH   2   3
ATOM      3  CA  UNL     1      29.030 -23.334 -15.692  0.00  0.00    +0.040 C 
BRANCH   3   4
ATOM      4  N   UNL     1      28.830 -24.714 -15.144  0.00  0.00    +0.389 N 
ATOM      5  H1  UNL     1      29.702 -25.043 -14.728  0.00  0.00    -0.088 HD
ATOM      6  H2  UNL     1      28.555 -25.343 -15.899  0.00  0.00    -0.088 HD
ATOM      7  H3  UNL     1      28.100 -24.695 -14.433  0.00  0.00    -0.088 HD
ENDBRANCH   3   4
BRANCH   3  10
ATOM      8  O   UNL     1      27.844 -21.753 -17.015  0.00  0.00    -0.248 OA
ATOM      9  OXT UNL     1      27.730 -23.961 -17.572  0.00  0.00    -0.248 OA
ATOM     10  C   UNL     1      28.104 -22.980 -16.869  0.00  0.00    +0.345 C 
ENDBRANCH   3  10
ENDBRANCH   2   3
ENDBRANCH   1   2
BRANCH   1  11
ATOM     11  C   UNL     1      32.268 -23.993 -14.289  0.00  0.00    +0.100 C 
BRANCH  11  12
ATOM     12  N   UNL     1      33.459 -23.504 -13.636  0.00  0.00    -0.347 N 
ATOM     13  N   UNL     1      35.657 -23.346 -13.056  0.00  0.00    -0.371 N 
ATOM     14  N   UNL     1      34.959 -25.033 -14.608  0.00  0.00    -0.345 N 
ATOM     15  C   UNL     1      34.729 -24.028 -13.814  0.00  0.00    +0.170 C 
ATOM     16  C   UNL     1      36.335 -25.499 -14.716  0.00  0.00    +0.124 C 
ATOM     17  H   UNL     1      33.362 -22.742 -13.020  0.00  0.00    +0.163 HD
ATOM     18  H   UNL     1      35.372 -22.594 -12.487  0.00  0.00    +0.159 HD
ATOM     19  H   UNL     1      36.605 -23.609 -13.083  0.00  0.00    +0.159 HD
ATOM     20  H   UNL     1      34.232 -25.462 -15.115  0.00  0.00    +0.163 HD
ENDBRANCH  11  12
ENDBRANCH   1  11
TORSDOF 6
ENDMDL
MODEL 4
REMARK VINA RESULT:      -6.2      7.649      8.976
REMARK  Name = 46906075
REMARK  6 active torsions:
REMARK  status: ('A' for Active; 'I' for Inactive)
REMARK    1  A    between atoms: C_1  and  C_2
REMARK    2  A    between atoms: C_1  and  C_11
REMARK    3  A    between atoms: C_2  and  CA_3
REMARK    4  A    between atoms: CA_3  and  N_4
REMARK    5  A    between atoms: CA_3  and  C_10
REMARK    6  A    between atoms: C_11  and  N_12
REMARK                            x       y       z     vdW  Elec       q    Type
REMARK                         _______ _______ _______ _____ _____    ______ ____
ROOT
ATOM      1  C   UNL     1      38.097 -24.143 -11.875  0.00  0.00    +0.022 C 
ENDROOT
BRANCH   1   2
ATOM      2  C   UNL     1      38.112 -25.361 -12.812  0.00  0.00    -0.009 C 
BRANCH   2   3
ATOM      3  CA  UNL     1      38.677 -25.076 -14.210  0.00  0.00    +0.040 C 
BRANCH   3   4
ATOM      4  N   UNL     1      37.693 -25.602 -15.209  0.00  0.00    +0.389 N 
ATOM      5  H1  UNL     1      36.873 -25.963 -14.721  0.00  0.00    -0.088 HD
ATOM      6  H2  UNL     1      38.124 -26.352 -15.750  0.00  0.00    -0.088 HD
ATOM      7  H3  UNL     1      37.410 -24.850 -15.837  0.00  0.00    -0.088 HD
ENDBRANCH   3   4
BRANCH   3  10
ATOM      8  O   UNL     1      40.282 -26.763 -14.699  0.00  0.00    -0.248 OA
ATOM      9  OXT UNL     1      40.995 -24.619 -14.392  0.00  0.00    -0.248 OA
ATOM     10  C   UNL     1      40.126 -25.535 -14.449  0.00  0.00    +0.345 C 
ENDBRANCH   3  10
ENDBRANCH   2   3
ENDBRANCH   1   2
BRANCH   1  11
ATOM     11  C   UNL     1      36.908 -23.221 -12.135  0.00  0.00    +0.100 C 
BRANCH  11  12
ATOM     12  N   UNL     1      35.700 -23.986 -12.335  0.00  0.00    -0.347 N 
ATOM     13  N   UNL     1      33.816 -24.764 -13.354  0.00  0.00    -0.371 N 
ATOM     14  N   UNL     1      35.172 -23.126 -14.458  0.00  0.00    -0.345 N 
ATOM     15  C   UNL     1      34.896 -23.913 -13.460  0.00  0.00    +0.170 C 
ATOM     16  C   UNL     1      34.254 -23.133 -15.589  0.00  0.00    +0.124 C 
ATOM     17  H   UNL     1      35.428 -24.605 -11.618  0.00  0.00    +0.163 HD
ATOM     18  H   UNL     1      33.704 -25.319 -12.548  0.00  0.00    +0.159 HD
ATOM     19  H   UNL     1      33.157 -24.818 -14.083  0.00  0.00    +0.159 HD
ATOM     20  H   UNL     1      35.970 -22.549 -14.451  0.00  0.00    +0.163 HD
ENDBRANCH  11  12
ENDBRANCH   1  11
TORSDOF 6
ENDMDL
MODEL 5
REMARK VINA RESULT:      -6.1      5.091      7.114
REMARK  Name = 46906075
REMARK  6 active torsions:
REMARK  status: ('A' for Active; 'I' for Inactive)
REMARK    1  A    between atoms: C_1  and  C_2
REMARK    2  A    between atoms: C_1  and  C_11
REMARK    3  A    between atoms: C_2  and  CA_3
REMARK    4  A    between atoms: CA_3  and  N_4
REMARK    5  A    between atoms: CA_3  and  C_10
REMARK    6  A    between atoms: C_11  and  N_12
REMARK                            x       y       z     vdW  Elec       q    Type
REMARK                         _______ _______ _______ _____ _____    ______ ____
ROOT
ATOM      1  C   UNL     1      34.763 -19.411 -22.304  0.00  0.00    +0.022 C 
ENDROOT
BRANCH   1   2
ATOM      2  C   UNL     1      34.210 -19.439 -20.871  0.00  0.00    -0.009 C 
BRANCH   2   3
ATOM      3  CA  UNL     1      34.052 -20.847 -20.281  0.00  0.00    +0.040 C 
BRANCH   3   4
ATOM      4  N   UNL     1      32.757 -20.879 -19.530  0.00  0.00    +0.389 N 
ATOM      5  H1  UNL     1      32.352 -21.813 -19.592  0.00  0.00    -0.088 HD
ATOM      6  H2  UNL     1      32.111 -20.201 -19.937  0.00  0.00    -0.088 HD
ATOM      7  H3  UNL     1      32.924 -20.645 -18.552  0.00  0.00    -0.088 HD
ENDBRANCH   3   4
BRANCH   3  10
ATOM      8  O   UNL     1      36.241 -20.586 -19.387  0.00  0.00    -0.248 OA
ATOM      9  OXT UNL     1      35.115 -22.530 -18.995  0.00  0.00    -0.248 OA
ATOM     10  C   UNL     1      35.259 -21.374 -19.484  0.00  0.00    +0.345 C 
ENDBRANCH   3  10
ENDBRANCH   2   3
ENDBRANCH   1   2
BRANCH   1  11
ATOM     11  C   UNL     1      35.917 -18.424 -22.466  0.00  0.00    +0.100 C 
BRANCH  11  12
ATOM     12  N   UNL     1      35.488 -17.246 -23.183  0.00  0.00    -0.347 N 
ATOM     13  N   UNL     1      34.652 -15.157 -23.539  0.00  0.00    -0.371 N 
ATOM     14  N   UNL     1      34.819 -16.002 -21.303  0.00  0.00    -0.345 N 
ATOM     15  C   UNL     1      34.968 -16.107 -22.591  0.00  0.00    +0.170 C 
ATOM     16  C   UNL     1      34.261 -14.757 -20.793  0.00  0.00    +0.124 C 
ATOM     17  H   UNL     1      35.572 -17.254 -24.164  0.00  0.00    +0.163 HD
ATOM     18  H   UNL     1      34.808 -15.342 -24.493  0.00  0.00    +0.159 HD
ATOM     19  H   UNL     1      34.272 -14.292 -23.262  0.00  0.00    +0.159 HD
ATOM     20  H   UNL     1      35.073 -16.735 -20.696  0.00  0.00    +0.163 HD
ENDBRANCH  11  12
ENDBRANCH   1  11
TORSDOF 6
ENDMDL
MODEL 6
REMARK VINA RESULT:      -6.1      8.201     10.163
REMARK  Name = 46906075
REMARK  6 active torsions:
REMARK  status: ('A' for Active; 'I' for Inactive)
REMARK    1  A    between atoms: C_1  and  C_2
REMARK    2  A    between atoms: C_1  and  C_11
REMARK    3  A    between atoms: C_2  and  CA_3
REMARK    4  A    between atoms: CA_3  and  N_4
REMARK    5  A    between atoms: CA_3  and  C_10
REMARK    6  A    between atoms: C_11  and  N_12
REMARK                            x       y       z     vdW  Elec       q    Type
REMARK                         _______ _______ _______ _____ _____    ______ ____
ROOT
ATOM      1  C   UNL     1      33.188 -14.951 -20.627  0.00  0.00    +0.022 C 
ENDROOT
BRANCH   1   2
ATOM      2  C   UNL     1      34.598 -15.495 -20.905  0.00  0.00    -0.009 C 
BRANCH   2   3
ATOM      3  CA  UNL     1      34.622 -16.858 -21.610  0.00  0.00    +0.040 C 
BRANCH   3   4
ATOM      4  N   UNL     1      35.379 -17.806 -20.733  0.00  0.00    +0.389 N 
ATOM      5  H1  UNL     1      35.340 -17.480 -19.767  0.00  0.00    -0.088 HD
ATOM      6  H2  UNL     1      36.352 -17.849 -21.037  0.00  0.00    -0.088 HD
ATOM      7  H3  UNL     1      34.962 -18.735 -20.795  0.00  0.00    -0.088 HD
ENDBRANCH   3   4
BRANCH   3  10
ATOM      8  O   UNL     1      35.135 -17.963 -23.654  0.00  0.00    -0.248 OA
ATOM      9  OXT UNL     1      35.354 -15.695 -23.541  0.00  0.00    -0.248 OA
ATOM     10  C   UNL     1      35.092 -16.840 -23.076  0.00  0.00    +0.345 C 
ENDBRANCH   3  10
ENDBRANCH   2   3
ENDBRANCH   1   2
BRANCH   1  11
ATOM     11  C   UNL     1      32.476 -14.495 -21.899  0.00  0.00    +0.100 C 
BRANCH  11  12
ATOM     12  N   UNL     1      33.205 -13.425 -22.538  0.00  0.00    -0.347 N 
ATOM     13  N   UNL     1      34.120 -12.172 -24.207  0.00  0.00    -0.371 N 
ATOM     14  N   UNL     1      32.887 -14.154 -24.751  0.00  0.00    -0.345 N 
ATOM     15  C   UNL     1      33.380 -13.296 -23.906  0.00  0.00    +0.170 C 
ATOM     16  C   UNL     1      33.135 -13.916 -26.167  0.00  0.00    +0.124 C 
ATOM     17  H   UNL     1      33.606 -12.737 -21.959  0.00  0.00    +0.163 HD
ATOM     18  H   UNL     1      34.445 -11.588 -23.484  0.00  0.00    +0.159 HD
ATOM     19  H   UNL     1      34.323 -11.952 -25.145  0.00  0.00    +0.159 HD
ATOM     20  H   UNL     1      32.367 -14.933 -24.446  0.00  0.00    +0.163 HD
ENDBRANCH  11  12
ENDBRANCH   1  11
TORSDOF 6
ENDMDL
MODEL 7
REMARK VINA RESULT:      -6.1      6.974      7.879
REMARK  Name = 46906075
REMARK  6 active torsions:
REMARK  status: ('A' for Active; 'I' for Inactive)
REMARK    1  A    between atoms: C_1  and  C_2
REMARK    2  A    between atoms: C_1  and  C_11
REMARK    3  A    between atoms: C_2  and  CA_3
REMARK    4  A    between atoms: CA_3  and  N_4
REMARK    5  A    between atoms: CA_3  and  C_10
REMARK    6  A    between atoms: C_11  and  N_12
REMARK                            x       y       z     vdW  Elec       q    Type
REMARK                         _______ _______ _______ _____ _____    ______ ____
ROOT
ATOM      1  C   UNL     1      35.429 -23.136 -14.553  0.00  0.00    +0.022 C 
ENDROOT
BRANCH   1   2
ATOM      2  C   UNL     1      34.900 -23.978 -13.382  0.00  0.00    -0.009 C 
BRANCH   2   3
ATOM      3  CA  UNL     1      35.587 -23.697 -12.038  0.00  0.00    +0.040 C 
BRANCH   3   4
ATOM      4  N   UNL     1      36.827 -22.908 -12.323  0.00  0.00    +0.389 N 
ATOM      5  H1  UNL     1      36.648 -22.260 -13.091  0.00  0.00    -0.088 HD
ATOM      6  H2  UNL     1      37.582 -23.543 -12.582  0.00  0.00    -0.088 HD
ATOM      7  H3  UNL     1      37.094 -22.382 -11.491  0.00  0.00    -0.088 HD
ENDBRANCH   3   4
BRANCH   3  10
ATOM      8  O   UNL     1      36.501 -25.856 -11.635  0.00  0.00    -0.248 OA
ATOM      9  OXT UNL     1      35.297 -24.843  -9.984  0.00  0.00    -0.248 OA
ATOM     10  C   UNL     1      35.810 -24.924 -11.136  0.00  0.00    +0.345 C 
ENDBRANCH   3  10
ENDBRANCH   2   3
ENDBRANCH   1   2
BRANCH   1  11
ATOM     11  C   UNL     1      36.291 -23.950 -15.515  0.00  0.00    +0.100 C 
BRANCH  11  12
ATOM     12  N   UNL     1      36.619 -25.236 -14.947  0.00  0.00    -0.347 N 
ATOM     13  N   UNL     1      37.892 -26.975 -14.208  0.00  0.00    -0.371 N 
ATOM     14  N   UNL     1      38.955 -25.031 -15.120  0.00  0.00    -0.345 N 
ATOM     15  C   UNL     1      37.906 -25.718 -14.774  0.00  0.00    +0.170 C 
ATOM     16  C   UNL     1      40.259 -25.640 -14.890  0.00  0.00    +0.124 C 
ATOM     17  H   UNL     1      35.873 -25.812 -14.661  0.00  0.00    +0.163 HD
ATOM     18  H   UNL     1      37.035 -27.405 -13.984  0.00  0.00    +0.159 HD
ATOM     19  H   UNL     1      38.739 -27.443 -14.025  0.00  0.00    +0.159 HD
ATOM     20  H   UNL     1      38.872 -24.135 -15.520  0.00  0.00    +0.163 HD
ENDBRANCH  11  12
ENDBRANCH   1  11
TORSDOF 6
ENDMDL
MODEL 8
REMARK VINA RESULT:      -6.0      7.116      8.644
REMARK  Name = 46906075
REMARK  6 active torsions:
REMARK  status: ('A' for Active; 'I' for Inactive)
REMARK    1  A    between atoms: C_1  and  C_2
REMARK    2  A    between atoms: C_1  and  C_11
REMARK    3  A    between atoms: C_2  and  CA_3
REMARK    4  A    between atoms: CA_3  and  N_4
REMARK    5  A    between atoms: CA_3  and  C_10
REMARK    6  A    between atoms: C_11  and  N_12
REMARK                            x       y       z     vdW  Elec       q    Type
REMARK                         _______ _______ _______ _____ _____    ______ ____
ROOT
ATOM      1  C   UNL     1      36.996 -23.587 -14.086  0.00  0.00    +0.022 C 
ENDROOT
BRANCH   1   2
ATOM      2  C   UNL     1      37.977 -24.649 -13.566  0.00  0.00    -0.009 C 
BRANCH   2   3
ATOM      3  CA  UNL     1      38.568 -25.553 -14.656  0.00  0.00    +0.040 C 
BRANCH   3   4
ATOM      4  N   UNL     1      38.085 -26.947 -14.397  0.00  0.00    +0.389 N 
ATOM      5  H1  UNL     1      37.111 -27.028 -14.692  0.00  0.00    -0.088 HD
ATOM      6  H2  UNL     1      38.156 -27.152 -13.400  0.00  0.00    -0.088 HD
ATOM      7  H3  UNL     1      38.655 -27.608 -14.923  0.00  0.00    -0.088 HD
ENDBRANCH   3   4
BRANCH   3  10
ATOM      8  O   UNL     1      40.560 -26.071 -15.849  0.00  0.00    -0.248 OA
ATOM      9  OXT UNL     1      40.690 -24.701 -14.031  0.00  0.00    -0.248 OA
ATOM     10  C   UNL     1      40.089 -25.440 -14.862  0.00  0.00    +0.345 C 
ENDBRANCH   3  10
ENDBRANCH   2   3
ENDBRANCH   1   2
BRANCH   1  11
ATOM     11  C   UNL     1      35.991 -24.159 -15.083  0.00  0.00    +0.100 C 
BRANCH  11  12
ATOM     12  N   UNL     1      34.912 -24.829 -14.396  0.00  0.00    -0.347 N 
ATOM     13  N   UNL     1      32.828 -25.194 -13.550  0.00  0.00    -0.371 N 
ATOM     14  N   UNL     1      33.286 -23.167 -14.743  0.00  0.00    -0.345 N 
ATOM     15  C   UNL     1      33.631 -24.322 -14.254  0.00  0.00    +0.170 C 
ATOM     16  C   UNL     1      31.910 -22.736 -14.531  0.00  0.00    +0.124 C 
ATOM     17  H   UNL     1      35.101 -25.711 -14.001  0.00  0.00    +0.163 HD
ATOM     18  H   UNL     1      33.195 -26.049 -13.225  0.00  0.00    +0.159 HD
ATOM     19  H   UNL     1      31.888 -24.965 -13.373  0.00  0.00    +0.159 HD
ATOM     20  H   UNL     1      33.928 -22.606 -15.236  0.00  0.00    +0.163 HD
ENDBRANCH  11  12
ENDBRANCH   1  11
TORSDOF 6
ENDMDL
MODEL 9
REMARK VINA RESULT:      -6.0      6.117      9.008
REMARK  Name = 46906075
REMARK  6 active torsions:
REMARK  status: ('A' for Active; 'I' for Inactive)
REMARK    1  A    between atoms: C_1  and  C_2
REMARK    2  A    between atoms: C_1  and  C_11
REMARK    3  A    between atoms: C_2  and  CA_3
REMARK    4  A    between atoms: CA_3  and  N_4
REMARK    5  A    between atoms: CA_3  and  C_10
REMARK    6  A    between atoms: C_11  and  N_12
REMARK                            x       y       z     vdW  Elec       q    Type
REMARK                         _______ _______ _______ _____ _____    ______ ____
ROOT
ATOM      1  C   UNL     1      34.467 -16.978 -24.717  0.00  0.00    +0.022 C 
ENDROOT
BRANCH   1   2
ATOM      2  C   UNL     1      34.958 -15.839 -23.810  0.00  0.00    -0.009 C 
BRANCH   2   3
ATOM      3  CA  UNL     1      33.836 -14.989 -23.199  0.00  0.00    +0.040 C 
BRANCH   3   4
ATOM      4  N   UNL     1      34.215 -13.551 -23.372  0.00  0.00    +0.389 N 
ATOM      5  H1  UNL     1      34.766 -13.246 -22.569  0.00  0.00    -0.088 HD
ATOM      6  H2  UNL     1      33.370 -12.982 -23.440  0.00  0.00    -0.088 HD
ATOM      7  H3  UNL     1      34.767 -13.444 -24.223  0.00  0.00    -0.088 HD
ENDBRANCH   3   4
BRANCH   3  10
ATOM      8  O   UNL     1      32.194 -15.235 -21.495  0.00  0.00    -0.248 OA
ATOM      9  OXT UNL     1      34.357 -15.791 -21.030  0.00  0.00    -0.248 OA
ATOM     10  C   UNL     1      33.421 -15.366 -21.765  0.00  0.00    +0.345 C 
ENDBRANCH   3  10
ENDBRANCH   2   3
ENDBRANCH   1   2
BRANCH   1  11
ATOM     11  C   UNL     1      34.785 -18.358 -24.147  0.00  0.00    +0.100 C 
BRANCH  11  12
ATOM     12  N   UNL     1      35.439 -18.245 -22.865  0.00  0.00    -0.347 N 
ATOM     13  N   UNL     1      35.856 -18.579 -20.650  0.00  0.00    -0.371 N 
ATOM     14  N   UNL     1      33.987 -19.665 -21.682  0.00  0.00    -0.345 N 
ATOM     15  C   UNL     1      35.027 -18.886 -21.708  0.00  0.00    +0.170 C 
ATOM     16  C   UNL     1      33.648 -20.286 -20.408  0.00  0.00    +0.124 C 
ATOM     17  H   UNL     1      36.237 -17.670 -22.810  0.00  0.00    +0.163 HD
ATOM     18  H   UNL     1      36.622 -17.973 -20.783  0.00  0.00    +0.159 HD
ATOM     19  H   UNL     1      35.685 -18.965 -19.761  0.00  0.00    +0.159 HD
ATOM     20  H   UNL     1      33.449 -19.830 -22.490  0.00  0.00    +0.163 HD
ENDBRANCH  11  12
ENDBRANCH   1  11
TORSDOF 6
ENDMDL
