MODEL 1
REMARK VINA RESULT:      -8.9      0.000      0.000
REMARK  Name = 69259387
REMARK  2 active torsions:
REMARK  status: ('A' for Active; 'I' for Inactive)
REMARK    1  A    between atoms: C_5  and  O_21
REMARK    2  A    between atoms: C_20  and  O_23
REMARK                            x       y       z     vdW  Elec       q    Type
REMARK                         _______ _______ _______ _____ _____    ______ ____
ROOT
ATOM      1  C   UNL     1      32.002 -23.789 -14.559  0.00  0.00    +0.023 C 
ATOM      2  C   UNL     1      33.005 -23.612 -15.719  0.00  0.00    +0.002 C 
ATOM      3  C   UNL     1      34.420 -23.261 -15.243  0.00  0.00    +0.001 C 
ATOM      4  C   UNL     1      34.938 -24.401 -14.309  0.00  0.00    +0.003 C 
ATOM      5  C   UNL     1      30.677 -24.010 -15.354  0.00  0.00    +0.088 C 
ATOM      6  C   UNL     1      36.409 -24.151 -13.801  0.00  0.00    +0.015 C 
ATOM      7  C   UNL     1      32.494 -24.955 -13.687  0.00  0.00    +0.002 C 
ATOM      8  C   UNL     1      33.928 -24.724 -13.175  0.00  0.00    +0.000 C 
ATOM      9  C   UNL     1      32.293 -22.647 -16.661  0.00  0.00    +0.002 C 
ATOM     10  C   UNL     1      30.802 -23.009 -16.535  0.00  0.00    +0.027 C 
ATOM     11  C   UNL     1      35.378 -23.066 -16.427  0.00  0.00    +0.004 C 
ATOM     12  C   UNL     1      37.303 -23.815 -15.002  0.00  0.00    -0.047 C 
ATOM     13  C   UNL     1      31.860 -22.522 -13.664  0.00  0.00    +0.002 C 
ATOM     14  C   UNL     1      36.794 -22.760 -15.952  0.00  0.00    +0.022 C 
ATOM     15  C   UNL     1      36.914 -25.441 -13.083  0.00  0.00    +0.007 C 
ATOM     16  C   UNL     1      30.453 -25.436 -15.873  0.00  0.00    +0.029 C 
ATOM     17  C   UNL     1      36.482 -22.973 -12.801  0.00  0.00    +0.004 C 
ATOM     18  C   UNL     1      38.432 -25.491 -12.951  0.00  0.00    +0.034 C 
ATOM     19  C   UNL     1      38.487 -24.416 -15.227  0.00  0.00    -0.006 C 
ATOM     20  C   UNL     1      39.096 -25.446 -14.323  0.00  0.00    +0.132 C 
ENDROOT
BRANCH   5  21
ATOM     21  O   UNL     1      29.541 -23.681 -14.558  0.00  0.00    -0.387 OA
ATOM     22  H   UNL     1      28.733 -23.793 -15.085  0.00  0.00    +0.210 HD
ENDBRANCH   5  21
BRANCH  20  23
ATOM     23  O   UNL     1      40.480 -25.164 -14.133  0.00  0.00    -0.380 OA
ATOM     24  H   UNL     1      40.833 -25.735 -13.433  0.00  0.00    +0.211 HD
ENDBRANCH  20  23
TORSDOF 2
ENDMDL
MODEL 2
REMARK VINA RESULT:      -8.0      3.289      6.343
REMARK  Name = 69259387
REMARK  2 active torsions:
REMARK  status: ('A' for Active; 'I' for Inactive)
REMARK    1  A    between atoms: C_5  and  O_21
REMARK    2  A    between atoms: C_20  and  O_23
REMARK                            x       y       z     vdW  Elec       q    Type
REMARK                         _______ _______ _______ _____ _____    ______ ____
ROOT
ATOM      1  C   UNL     1      35.444 -24.211 -14.910  0.00  0.00    +0.023 C 
ATOM      2  C   UNL     1      36.353 -23.120 -15.515  0.00  0.00    +0.002 C 
ATOM      3  C   UNL     1      36.139 -22.927 -17.021  0.00  0.00    +0.001 C 
ATOM      4  C   UNL     1      34.651 -22.528 -17.275  0.00  0.00    +0.003 C 
ATOM      5  C   UNL     1      35.974 -24.247 -13.442  0.00  0.00    +0.088 C 
ATOM      6  C   UNL     1      34.341 -22.263 -18.798  0.00  0.00    +0.015 C 
ATOM      7  C   UNL     1      33.985 -23.772 -15.112  0.00  0.00    +0.002 C 
ATOM      8  C   UNL     1      33.664 -23.516 -16.597  0.00  0.00    +0.000 C 
ATOM      9  C   UNL     1      37.744 -23.501 -15.020  0.00  0.00    +0.002 C 
ATOM     10  C   UNL     1      37.510 -24.091 -13.617  0.00  0.00    +0.027 C 
ATOM     11  C   UNL     1      37.081 -21.854 -17.589  0.00  0.00    +0.004 C 
ATOM     12  C   UNL     1      35.395 -21.300 -19.362  0.00  0.00    -0.047 C 
ATOM     13  C   UNL     1      35.638 -25.612 -15.563  0.00  0.00    +0.002 C 
ATOM     14  C   UNL     1      36.838 -21.631 -19.076  0.00  0.00    +0.022 C 
ATOM     15  C   UNL     1      32.913 -21.647 -18.917  0.00  0.00    +0.007 C 
ATOM     16  C   UNL     1      35.420 -23.157 -12.516  0.00  0.00    +0.029 C 
ATOM     17  C   UNL     1      34.384 -23.565 -19.631  0.00  0.00    +0.004 C 
ATOM     18  C   UNL     1      32.679 -20.944 -20.249  0.00  0.00    +0.034 C 
ATOM     19  C   UNL     1      35.079 -20.203 -20.076  0.00  0.00    -0.006 C 
ATOM     20  C   UNL     1      33.680 -19.810 -20.445  0.00  0.00    +0.132 C 
ENDROOT
BRANCH   5  21
ATOM     21  O   UNL     1      35.682 -25.498 -12.823  0.00  0.00    -0.387 OA
ATOM     22  H   UNL     1      34.781 -25.772 -13.057  0.00  0.00    +0.210 HD
ENDBRANCH   5  21
BRANCH  20  23
ATOM     23  O   UNL     1      33.634 -19.415 -21.814  0.00  0.00    -0.380 OA
ATOM     24  H   UNL     1      33.138 -20.075 -22.324  0.00  0.00    +0.211 HD
ENDBRANCH  20  23
TORSDOF 2
ENDMDL
MODEL 3
REMARK VINA RESULT:      -7.7     19.808     22.064
REMARK  Name = 69259387
REMARK  2 active torsions:
REMARK  status: ('A' for Active; 'I' for Inactive)
REMARK    1  A    between atoms: C_5  and  O_21
REMARK    2  A    between atoms: C_20  and  O_23
REMARK                            x       y       z     vdW  Elec       q    Type
REMARK                         _______ _______ _______ _____ _____    ______ ____
ROOT
ATOM      1  C   UNL     1      33.397  -4.154 -27.116  0.00  0.00    +0.023 C 
ATOM      2  C   UNL     1      32.724  -3.502 -25.888  0.00  0.00    +0.002 C 
ATOM      3  C   UNL     1      32.006  -4.515 -24.987  0.00  0.00    +0.001 C 
ATOM      4  C   UNL     1      33.043  -5.568 -24.483  0.00  0.00    +0.003 C 
ATOM      5  C   UNL     1      33.915  -2.888 -27.868  0.00  0.00    +0.088 C 
ATOM      6  C   UNL     1      32.407  -6.631 -23.509  0.00  0.00    +0.015 C 
ATOM      7  C   UNL     1      34.457  -5.140 -26.601  0.00  0.00    +0.002 C 
ATOM      8  C   UNL     1      33.850  -6.192 -25.652  0.00  0.00    +0.000 C 
ATOM      9  C   UNL     1      31.913  -2.360 -26.492  0.00  0.00    +0.002 C 
ATOM     10  C   UNL     1      32.759  -1.867 -27.681  0.00  0.00    +0.027 C 
ATOM     11  C   UNL     1      31.328  -3.823 -23.796  0.00  0.00    +0.004 C 
ATOM     12  C   UNL     1      31.615  -5.899 -22.417  0.00  0.00    -0.047 C 
ATOM     13  C   UNL     1      32.400  -4.925 -28.031  0.00  0.00    +0.002 C 
ATOM     14  C   UNL     1      30.652  -4.833 -22.877  0.00  0.00    +0.022 C 
ATOM     15  C   UNL     1      33.554  -7.482 -22.880  0.00  0.00    +0.007 C 
ATOM     16  C   UNL     1      35.237  -2.310 -27.347  0.00  0.00    +0.029 C 
ATOM     17  C   UNL     1      31.439  -7.585 -24.248  0.00  0.00    +0.004 C 
ATOM     18  C   UNL     1      33.123  -8.217 -21.616  0.00  0.00    +0.034 C 
ATOM     19  C   UNL     1      31.752  -6.168 -21.105  0.00  0.00    -0.006 C 
ATOM     20  C   UNL     1      32.651  -7.232 -20.551  0.00  0.00    +0.132 C 
ENDROOT
BRANCH   5  21
ATOM     21  O   UNL     1      34.104  -3.158 -29.255  0.00  0.00    -0.387 OA
ATOM     22  H   UNL     1      33.733  -4.029 -29.468  0.00  0.00    +0.210 HD
ENDBRANCH   5  21
BRANCH  20  23
ATOM     23  O   UNL     1      31.964  -7.971 -19.544  0.00  0.00    -0.380 OA
ATOM     24  H   UNL     1      32.551  -8.105 -18.784  0.00  0.00    +0.211 HD
ENDBRANCH  20  23
TORSDOF 2
ENDMDL
MODEL 4
REMARK VINA RESULT:      -7.2      1.422      6.485
REMARK  Name = 69259387
REMARK  2 active torsions:
REMARK  status: ('A' for Active; 'I' for Inactive)
REMARK    1  A    between atoms: C_5  and  O_21
REMARK    2  A    between atoms: C_20  and  O_23
REMARK                            x       y       z     vdW  Elec       q    Type
REMARK                         _______ _______ _______ _____ _____    ______ ____
ROOT
ATOM      1  C   UNL     1      36.083 -24.388 -13.368  0.00  0.00    +0.023 C 
ATOM      2  C   UNL     1      35.894 -23.586 -14.673  0.00  0.00    +0.002 C 
ATOM      3  C   UNL     1      34.580 -23.911 -15.394  0.00  0.00    +0.001 C 
ATOM      4  C   UNL     1      33.386 -23.592 -14.440  0.00  0.00    +0.003 C 
ATOM      5  C   UNL     1      37.519 -23.934 -12.955  0.00  0.00    +0.088 C 
ATOM      6  C   UNL     1      31.984 -23.854 -15.110  0.00  0.00    +0.015 C 
ATOM      7  C   UNL     1      34.934 -24.014 -12.417  0.00  0.00    +0.002 C 
ATOM      8  C   UNL     1      33.555 -24.271 -13.054  0.00  0.00    +0.000 C 
ATOM      9  C   UNL     1      37.207 -23.804 -15.418  0.00  0.00    +0.002 C 
ATOM     10  C   UNL     1      38.275 -23.878 -14.310  0.00  0.00    +0.027 C 
ATOM     11  C   UNL     1      34.445 -23.114 -16.700  0.00  0.00    +0.004 C 
ATOM     12  C   UNL     1      31.946 -23.161 -16.479  0.00  0.00    -0.047 C 
ATOM     13  C   UNL     1      36.072 -25.931 -13.582  0.00  0.00    +0.002 C 
ATOM     14  C   UNL     1      33.120 -23.405 -17.395  0.00  0.00    +0.022 C 
ATOM     15  C   UNL     1      30.870 -23.286 -14.176  0.00  0.00    +0.007 C 
ATOM     16  C   UNL     1      37.598 -22.584 -12.233  0.00  0.00    +0.029 C 
ATOM     17  C   UNL     1      31.719 -25.363 -15.326  0.00  0.00    +0.004 C 
ATOM     18  C   UNL     1      29.544 -23.073 -14.896  0.00  0.00    +0.034 C 
ATOM     19  C   UNL     1      30.933 -22.366 -16.872  0.00  0.00    -0.006 C 
ATOM     20  C   UNL     1      29.707 -22.093 -16.053  0.00  0.00    +0.132 C 
ENDROOT
BRANCH   5  21
ATOM     21  O   UNL     1      38.132 -24.894 -12.097  0.00  0.00    -0.387 OA
ATOM     22  H   UNL     1      38.003 -24.631 -11.172  0.00  0.00    +0.210 HD
ENDBRANCH   5  21
BRANCH  20  23
ATOM     23  O   UNL     1      28.546 -22.186 -16.875  0.00  0.00    -0.380 OA
ATOM     24  H   UNL     1      27.915 -22.803 -16.473  0.00  0.00    +0.211 HD
ENDBRANCH  20  23
TORSDOF 2
ENDMDL
MODEL 5
REMARK VINA RESULT:      -7.1     10.622     13.148
REMARK  Name = 69259387
REMARK  2 active torsions:
REMARK  status: ('A' for Active; 'I' for Inactive)
REMARK    1  A    between atoms: C_5  and  O_21
REMARK    2  A    between atoms: C_20  and  O_23
REMARK                            x       y       z     vdW  Elec       q    Type
REMARK                         _______ _______ _______ _____ _____    ______ ____
ROOT
ATOM      1  C   UNL     1      34.597 -17.726 -21.643  0.00  0.00    +0.023 C 
ATOM      2  C   UNL     1      34.728 -17.474 -23.160  0.00  0.00    +0.002 C 
ATOM      3  C   UNL     1      33.869 -16.303 -23.653  0.00  0.00    +0.001 C 
ATOM      4  C   UNL     1      34.300 -15.006 -22.897  0.00  0.00    +0.003 C 
ATOM      5  C   UNL     1      35.467 -19.012 -21.486  0.00  0.00    +0.088 C 
ATOM      6  C   UNL     1      33.501 -13.732 -23.369  0.00  0.00    +0.015 C 
ATOM      7  C   UNL     1      35.084 -16.463 -20.915  0.00  0.00    +0.002 C 
ATOM      8  C   UNL     1      34.307 -15.208 -21.358  0.00  0.00    +0.000 C 
ATOM      9  C   UNL     1      34.498 -18.853 -23.770  0.00  0.00    +0.002 C 
ATOM     10  C   UNL     1      35.112 -19.835 -22.755  0.00  0.00    +0.027 C 
ATOM     11  C   UNL     1      34.007 -16.105 -25.170  0.00  0.00    +0.004 C 
ATOM     12  C   UNL     1      33.541 -13.655 -24.901  0.00  0.00    -0.047 C 
ATOM     13  C   UNL     1      33.138 -18.031 -21.190  0.00  0.00    +0.002 C 
ATOM     14  C   UNL     1      33.188 -14.914 -25.652  0.00  0.00    +0.022 C 
ATOM     15  C   UNL     1      34.161 -12.467 -22.737  0.00  0.00    +0.007 C 
ATOM     16  C   UNL     1      36.979 -18.775 -21.399  0.00  0.00    +0.029 C 
ATOM     17  C   UNL     1      32.019 -13.783 -22.927  0.00  0.00    +0.004 C 
ATOM     18  C   UNL     1      33.777 -11.177 -23.454  0.00  0.00    +0.034 C 
ATOM     19  C   UNL     1      33.873 -12.535 -25.571  0.00  0.00    -0.006 C 
ATOM     20  C   UNL     1      34.200 -11.226 -24.918  0.00  0.00    +0.132 C 
ENDROOT
BRANCH   5  21
ATOM     21  O   UNL     1      35.098 -19.740 -20.318  0.00  0.00    -0.387 OA
ATOM     22  H   UNL     1      35.027 -20.684 -20.533  0.00  0.00    +0.210 HD
ENDBRANCH   5  21
BRANCH  20  23
ATOM     23  O   UNL     1      33.538 -10.166 -25.602  0.00  0.00    -0.380 OA
ATOM     24  H   UNL     1      33.820  -9.315 -25.231  0.00  0.00    +0.211 HD
ENDBRANCH  20  23
TORSDOF 2
ENDMDL
MODEL 6
REMARK VINA RESULT:      -6.7     13.367     15.643
REMARK  Name = 69259387
REMARK  2 active torsions:
REMARK  status: ('A' for Active; 'I' for Inactive)
REMARK    1  A    between atoms: C_5  and  O_21
REMARK    2  A    between atoms: C_20  and  O_23
REMARK                            x       y       z     vdW  Elec       q    Type
REMARK                         _______ _______ _______ _____ _____    ______ ____
ROOT
ATOM      1  C   UNL     1      33.059  -9.050 -23.656  0.00  0.00    +0.023 C 
ATOM      2  C   UNL     1      32.797  -9.601 -22.238  0.00  0.00    +0.002 C 
ATOM      3  C   UNL     1      32.363 -11.072 -22.235  0.00  0.00    +0.001 C 
ATOM      4  C   UNL     1      33.484 -11.932 -22.901  0.00  0.00    +0.003 C 
ATOM      5  C   UNL     1      33.352  -7.551 -23.334  0.00  0.00    +0.088 C 
ATOM      6  C   UNL     1      33.149 -13.472 -22.905  0.00  0.00    +0.015 C 
ATOM      7  C   UNL     1      34.207  -9.867 -24.272  0.00  0.00    +0.002 C 
ATOM      8  C   UNL     1      33.892 -11.375 -24.291  0.00  0.00    +0.000 C 
ATOM      9  C   UNL     1      31.863  -8.565 -21.622  0.00  0.00    +0.002 C 
ATOM     10  C   UNL     1      32.323  -7.222 -22.218  0.00  0.00    +0.027 C 
ATOM     11  C   UNL     1      32.084 -11.572 -20.810  0.00  0.00    +0.004 C 
ATOM     12  C   UNL     1      32.733 -13.898 -21.491  0.00  0.00    -0.047 C 
ATOM     13  C   UNL     1      31.821  -9.143 -24.597  0.00  0.00    +0.002 C 
ATOM     14  C   UNL     1      31.696 -13.045 -20.803  0.00  0.00    +0.022 C 
ATOM     15  C   UNL     1      34.416 -14.257 -23.366  0.00  0.00    +0.007 C 
ATOM     16  C   UNL     1      34.779  -7.247 -22.863  0.00  0.00    +0.029 C 
ATOM     17  C   UNL     1      31.987 -13.808 -23.870  0.00  0.00    +0.004 C 
ATOM     18  C   UNL     1      34.369 -15.733 -22.988  0.00  0.00    +0.034 C 
ATOM     19  C   UNL     1      33.252 -14.971 -20.865  0.00  0.00    -0.006 C 
ATOM     20  C   UNL     1      34.256 -15.902 -21.476  0.00  0.00    +0.132 C 
ENDROOT
BRANCH   5  21
ATOM     21  O   UNL     1      33.112  -6.726 -24.473  0.00  0.00    -0.387 OA
ATOM     22  H   UNL     1      33.200  -7.257 -25.281  0.00  0.00    +0.210 HD
ENDBRANCH   5  21
BRANCH  20  23
ATOM     23  O   UNL     1      33.888 -17.253 -21.211  0.00  0.00    -0.380 OA
ATOM     24  H   UNL     1      33.696 -17.356 -20.266  0.00  0.00    +0.211 HD
ENDBRANCH  20  23
TORSDOF 2
ENDMDL
MODEL 7
REMARK VINA RESULT:      -6.6     19.082     21.286
REMARK  Name = 69259387
REMARK  2 active torsions:
REMARK  status: ('A' for Active; 'I' for Inactive)
REMARK    1  A    between atoms: C_5  and  O_21
REMARK    2  A    between atoms: C_20  and  O_23
REMARK                            x       y       z     vdW  Elec       q    Type
REMARK                         _______ _______ _______ _____ _____    ______ ____
ROOT
ATOM      1  C   UNL     1      32.480  -3.790 -26.371  0.00  0.00    +0.023 C 
ATOM      2  C   UNL     1      33.497  -4.950 -26.438  0.00  0.00    +0.002 C 
ATOM      3  C   UNL     1      33.614  -5.725 -25.119  0.00  0.00    +0.001 C 
ATOM      4  C   UNL     1      32.215  -6.314 -24.753  0.00  0.00    +0.003 C 
ATOM      5  C   UNL     1      32.681  -3.148 -27.780  0.00  0.00    +0.088 C 
ATOM      6  C   UNL     1      32.242  -7.169 -23.429  0.00  0.00    +0.015 C 
ATOM      7  C   UNL     1      31.099  -4.395 -26.071  0.00  0.00    +0.002 C 
ATOM      8  C   UNL     1      31.106  -5.229 -24.776  0.00  0.00    +0.000 C 
ATOM      9  C   UNL     1      34.749  -4.292 -27.009  0.00  0.00    +0.002 C 
ATOM     10  C   UNL     1      34.218  -3.230 -27.990  0.00  0.00    +0.027 C 
ATOM     11  C   UNL     1      34.655  -6.850 -25.220  0.00  0.00    +0.004 C 
ATOM     12  C   UNL     1      33.391  -8.183 -23.511  0.00  0.00    -0.047 C 
ATOM     13  C   UNL     1      32.812  -2.738 -25.272  0.00  0.00    +0.002 C 
ATOM     14  C   UNL     1      34.740  -7.647 -23.924  0.00  0.00    +0.022 C 
ATOM     15  C   UNL     1      30.872  -7.902 -23.280  0.00  0.00    +0.007 C 
ATOM     16  C   UNL     1      31.939  -3.842 -28.929  0.00  0.00    +0.029 C 
ATOM     17  C   UNL     1      32.465  -6.289 -22.176  0.00  0.00    +0.004 C 
ATOM     18  C   UNL     1      30.932  -9.080 -22.314  0.00  0.00    +0.034 C 
ATOM     19  C   UNL     1      33.237  -9.492 -23.238  0.00  0.00    -0.006 C 
ATOM     20  C   UNL     1      31.950 -10.113 -22.783  0.00  0.00    +0.132 C 
ENDROOT
BRANCH   5  21
ATOM     21  O   UNL     1      32.263  -1.786 -27.785  0.00  0.00    -0.387 OA
ATOM     22  H   UNL     1      32.317  -1.427 -26.885  0.00  0.00    +0.210 HD
ENDBRANCH   5  21
BRANCH  20  23
ATOM     23  O   UNL     1      32.200 -11.006 -21.701  0.00  0.00    -0.380 OA
ATOM     24  H   UNL     1      31.694 -10.722 -20.924  0.00  0.00    +0.211 HD
ENDBRANCH  20  23
TORSDOF 2
ENDMDL
MODEL 8
REMARK VINA RESULT:      -6.5      3.514      5.843
REMARK  Name = 69259387
REMARK  2 active torsions:
REMARK  status: ('A' for Active; 'I' for Inactive)
REMARK    1  A    between atoms: C_5  and  O_21
REMARK    2  A    between atoms: C_20  and  O_23
REMARK                            x       y       z     vdW  Elec       q    Type
REMARK                         _______ _______ _______ _____ _____    ______ ____
ROOT
ATOM      1  C   UNL     1      33.499 -23.913 -15.123  0.00  0.00    +0.023 C 
ATOM      2  C   UNL     1      34.744 -23.019 -15.309  0.00  0.00    +0.002 C 
ATOM      3  C   UNL     1      35.159 -22.863 -16.777  0.00  0.00    +0.001 C 
ATOM      4  C   UNL     1      33.974 -22.232 -17.574  0.00  0.00    +0.003 C 
ATOM      5  C   UNL     1      33.413 -23.969 -13.565  0.00  0.00    +0.088 C 
ATOM      6  C   UNL     1      34.320 -21.990 -19.093  0.00  0.00    +0.015 C 
ATOM      7  C   UNL     1      32.328 -23.244 -15.862  0.00  0.00    +0.002 C 
ATOM      8  C   UNL     1      32.647 -23.007 -17.350  0.00  0.00    +0.000 C 
ATOM      9  C   UNL     1      35.752 -23.604 -14.325  0.00  0.00    +0.002 C 
ATOM     10  C   UNL     1      34.901 -24.081 -13.133  0.00  0.00    +0.027 C 
ATOM     11  C   UNL     1      36.416 -21.991 -16.915  0.00  0.00    +0.004 C 
ATOM     12  C   UNL     1      35.658 -21.245 -19.187  0.00  0.00    -0.047 C 
ATOM     13  C   UNL     1      33.682 -25.355 -15.682  0.00  0.00    +0.002 C 
ATOM     14  C   UNL     1      36.803 -21.800 -18.376  0.00  0.00    +0.022 C 
ATOM     15  C   UNL     1      33.175 -21.149 -19.738  0.00  0.00    +0.007 C 
ATOM     16  C   UNL     1      32.745 -22.759 -12.901  0.00  0.00    +0.029 C 
ATOM     17  C   UNL     1      34.452 -23.319 -19.874  0.00  0.00    +0.004 C 
ATOM     18  C   UNL     1      33.594 -20.480 -21.043  0.00  0.00    +0.034 C 
ATOM     19  C   UNL     1      35.835 -20.145 -19.945  0.00  0.00    -0.006 C 
ATOM     20  C   UNL     1      34.774 -19.541 -20.814  0.00  0.00    +0.132 C 
ENDROOT
BRANCH   5  21
ATOM     21  O   UNL     1      32.694 -25.122 -13.134  0.00  0.00    -0.387 OA
ATOM     22  H   UNL     1      32.878 -25.284 -12.194  0.00  0.00    +0.210 HD
ENDBRANCH   5  21
BRANCH  20  23
ATOM     23  O   UNL     1      35.323 -19.208 -22.087  0.00  0.00    -0.380 OA
ATOM     24  H   UNL     1      36.234 -19.536 -22.142  0.00  0.00    +0.211 HD
ENDBRANCH  20  23
TORSDOF 2
ENDMDL
MODEL 9
REMARK VINA RESULT:      -6.0      1.238      6.803
REMARK  Name = 69259387
REMARK  2 active torsions:
REMARK  status: ('A' for Active; 'I' for Inactive)
REMARK    1  A    between atoms: C_5  and  O_21
REMARK    2  A    between atoms: C_20  and  O_23
REMARK                            x       y       z     vdW  Elec       q    Type
REMARK                         _______ _______ _______ _____ _____    ______ ____
ROOT
ATOM      1  C   UNL     1      36.151 -24.001 -14.477  0.00  0.00    +0.023 C 
ATOM      2  C   UNL     1      35.089 -24.891 -13.795  0.00  0.00    +0.002 C 
ATOM      3  C   UNL     1      33.708 -24.228 -13.720  0.00  0.00    +0.001 C 
ATOM      4  C   UNL     1      33.224 -23.900 -15.168  0.00  0.00    +0.003 C 
ATOM      5  C   UNL     1      37.427 -24.881 -14.291  0.00  0.00    +0.088 C 
ATOM      6  C   UNL     1      31.787 -23.253 -15.198  0.00  0.00    +0.015 C 
ATOM      7  C   UNL     1      35.689 -23.741 -15.920  0.00  0.00    +0.002 C 
ATOM      8  C   UNL     1      34.288 -23.102 -15.967  0.00  0.00    +0.000 C 
ATOM      9  C   UNL     1      35.764 -25.318 -12.496  0.00  0.00    +0.002 C 
ATOM     10  C   UNL     1      37.254 -25.457 -12.859  0.00  0.00    +0.027 C 
ATOM     11  C   UNL     1      32.690 -25.133 -13.010  0.00  0.00    +0.004 C 
ATOM     12  C   UNL     1      30.834 -24.111 -14.355  0.00  0.00    -0.047 C 
ATOM     13  C   UNL     1      36.361 -22.631 -13.766  0.00  0.00    +0.002 C 
ATOM     14  C   UNL     1      31.307 -24.493 -12.974  0.00  0.00    +0.022 C 
ATOM     15  C   UNL     1      31.301 -23.186 -16.680  0.00  0.00    +0.007 C 
ATOM     16  C   UNL     1      37.600 -26.012 -15.313  0.00  0.00    +0.029 C 
ATOM     17  C   UNL     1      31.786 -21.820 -14.617  0.00  0.00    +0.004 C 
ATOM     18  C   UNL     1      29.792 -23.008 -16.801  0.00  0.00    +0.034 C 
ATOM     19  C   UNL     1      29.630 -24.523 -14.797  0.00  0.00    -0.006 C 
ATOM     20  C   UNL     1      29.055 -24.165 -16.134  0.00  0.00    +0.132 C 
ENDROOT
BRANCH   5  21
ATOM     21  O   UNL     1      38.610 -24.088 -14.355  0.00  0.00    -0.387 OA
ATOM     22  H   UNL     1      38.455 -23.240 -13.907  0.00  0.00    +0.210 HD
ENDBRANCH   5  21
BRANCH  20  23
ATOM     23  O   UNL     1      27.688 -23.789 -15.987  0.00  0.00    -0.380 OA
ATOM     24  H   UNL     1      27.119 -24.496 -16.330  0.00  0.00    +0.211 HD
ENDBRANCH  20  23
TORSDOF 2
ENDMDL
