MODEL 1
REMARK VINA RESULT:     -11.5      0.000      0.000
REMARK  Name = 46937120
REMARK  6 active torsions:
REMARK  status: ('A' for Active; 'I' for Inactive)
REMARK    1  A    between atoms: N_2  and  C_6
REMARK    2  A    between atoms: C_3  and  C_25
REMARK    3  A    between atoms: C_9  and  C_12
REMARK    4  A    between atoms: C_12  and  O_13
REMARK    5  A    between atoms: O_13  and  C_15
REMARK    6  A    between atoms: C_21  and  N_28
REMARK                            x       y       z     vdW  Elec       q    Type
REMARK                         _______ _______ _______ _____ _____    ______ ____
ROOT
ATOM      1  O   UNL     1      32.725 -19.502 -21.333  0.00  0.00    -0.270 OA
ATOM      2  N   UNL     1      34.834 -18.752 -22.062  0.00  0.00    -0.281 N 
ATOM      3  C   UNL     1      33.956 -19.501 -21.291  0.00  0.00    +0.245 C 
ATOM      4  H   UNL     1      35.794 -18.888 -21.884  0.00  0.00    +0.155 HD
ENDROOT
BRANCH   2   6
ATOM      5 CL   UNL     1      33.505 -14.857 -26.333  0.00  0.00    -0.082 Cl
ATOM      6  C   UNL     1      34.515 -17.815 -23.075  0.00  0.00    +0.050 C 
ATOM      7  C   UNL     1      34.229 -16.492 -22.737  0.00  0.00    +0.015 C 
ATOM      8  C   UNL     1      34.489 -18.215 -24.411  0.00  0.00    +0.016 C 
ATOM      9  C   UNL     1      33.916 -15.569 -23.736  0.00  0.00    +0.033 C 
ATOM     10  C   UNL     1      34.176 -17.293 -25.409  0.00  0.00    +0.012 C 
ATOM     11  C   UNL     1      33.890 -15.969 -25.072  0.00  0.00    +0.057 C 
BRANCH   9  12
ATOM     12  C   UNL     1      33.614 -14.162 -23.332  0.00  0.00    +0.233 C 
BRANCH  12  13
ATOM     13  O   UNL     1      32.682 -14.170 -22.260  0.00  0.00    -0.469 OA
BRANCH  13  15
ATOM     14  N   UNL     1      31.770 -10.627 -22.225  0.00  0.00    -0.239 NA
ATOM     15  C   UNL     1      32.274 -12.951 -21.786  0.00  0.00    +0.158 C 
ATOM     16  C   UNL     1      31.959 -12.772 -20.443  0.00  0.00    +0.040 C 
ATOM     17  C   UNL     1      32.164 -11.857 -22.628  0.00  0.00    +0.136 C 
ATOM     18  C   UNL     1      31.550 -11.523 -19.990  0.00  0.00    +0.024 C 
ATOM     19  C   UNL     1      31.473 -10.492 -20.913  0.00  0.00    +0.099 C 
ENDBRANCH  13  15
ENDBRANCH  12  13
ENDBRANCH   9  12
ENDBRANCH   2   6
BRANCH   3  25
ATOM     20  F   UNL     1      37.466 -22.082 -20.049  0.00  0.00    -0.233 F 
ATOM     21  C   UNL     1      34.699 -22.406 -18.846  0.00  0.00    -0.050 C 
ATOM     22  C   UNL     1      35.982 -21.806 -18.253  0.00  0.00    +0.019 C 
ATOM     23  C   UNL     1      33.840 -21.308 -19.498  0.00  0.00    +0.010 C 
ATOM     24  C   UNL     1      36.811 -21.116 -19.341  0.00  0.00    +0.181 C 
ATOM     25  C   UNL     1      34.654 -20.368 -20.338  0.00  0.00    +0.028 C 
ATOM     26  C   UNL     1      35.991 -20.286 -20.283  0.00  0.00    +0.009 C 
BRANCH  21  28
ATOM     27  O   UNL     1      32.512 -23.176 -15.348  0.00  0.00    -0.358 OA
ATOM     28  N   UNL     1      33.942 -23.102 -17.808  0.00  0.00    +0.392 N 
ATOM     29  C   UNL     1      34.634 -23.017 -16.513  0.00  0.00    -0.045 C 
ATOM     30  C   UNL     1      32.587 -22.549 -17.691  0.00  0.00    -0.045 C 
ATOM     31  C   UNL     1      31.820 -23.282 -16.593  0.00  0.00    +0.119 C 
ATOM     32  C   UNL     1      33.819 -23.741 -15.444  0.00  0.00    +0.119 C 
ATOM     33  H   UNL     1      33.872 -24.083 -18.077  0.00  0.00    -0.079 HD
ENDBRANCH  21  28
ENDBRANCH   3  25
TORSDOF 6
ENDMDL
MODEL 2
REMARK VINA RESULT:     -11.5      3.726     10.785
REMARK  Name = 46937120
REMARK  6 active torsions:
REMARK  status: ('A' for Active; 'I' for Inactive)
REMARK    1  A    between atoms: N_2  and  C_6
REMARK    2  A    between atoms: C_3  and  C_25
REMARK    3  A    between atoms: C_9  and  C_12
REMARK    4  A    between atoms: C_12  and  O_13
REMARK    5  A    between atoms: O_13  and  C_15
REMARK    6  A    between atoms: C_21  and  N_28
REMARK                            x       y       z     vdW  Elec       q    Type
REMARK                         _______ _______ _______ _____ _____    ______ ____
ROOT
ATOM      1  O   UNL     1      32.155 -13.580 -22.933  0.00  0.00    -0.270 OA
ATOM      2  N   UNL     1      34.242 -13.895 -23.975  0.00  0.00    -0.281 N 
ATOM      3  C   UNL     1      33.179 -13.158 -23.472  0.00  0.00    +0.245 C 
ATOM      4  H   UNL     1      34.980 -13.377 -24.373  0.00  0.00    +0.155 HD
ENDROOT
BRANCH   2   6
ATOM      5 CL   UNL     1      34.865 -19.793 -24.055  0.00  0.00    -0.082 Cl
ATOM      6  C   UNL     1      34.393 -15.304 -23.985  0.00  0.00    +0.050 C 
ATOM      7  C   UNL     1      34.695 -15.980 -22.803  0.00  0.00    +0.015 C 
ATOM      8  C   UNL     1      34.239 -16.013 -25.176  0.00  0.00    +0.016 C 
ATOM      9  C   UNL     1      34.843 -17.368 -22.813  0.00  0.00    +0.033 C 
ATOM     10  C   UNL     1      34.387 -17.400 -25.185  0.00  0.00    +0.012 C 
ATOM     11  C   UNL     1      34.688 -18.078 -24.004  0.00  0.00    +0.057 C 
BRANCH   9  12
ATOM     12  C   UNL     1      35.167 -18.056 -21.527  0.00  0.00    +0.233 C 
BRANCH  12  13
ATOM     13  O   UNL     1      33.994 -18.672 -21.014  0.00  0.00    -0.469 OA
BRANCH  13  15
ATOM     14  N   UNL     1      33.111 -21.900 -19.535  0.00  0.00    -0.239 NA
ATOM     15  C   UNL     1      34.140 -19.920 -20.466  0.00  0.00    +0.158 C 
ATOM     16  C   UNL     1      35.399 -20.477 -20.275  0.00  0.00    +0.040 C 
ATOM     17  C   UNL     1      33.037 -20.665 -20.083  0.00  0.00    +0.136 C 
ATOM     18  C   UNL     1      35.516 -21.744 -19.715  0.00  0.00    +0.024 C 
ATOM     19  C   UNL     1      34.352 -22.408 -19.365  0.00  0.00    +0.099 C 
ENDBRANCH  13  15
ENDBRANCH  12  13
ENDBRANCH   9  12
ENDBRANCH   2   6
BRANCH   3  25
ATOM     20  F   UNL     1      35.762  -9.535 -24.324  0.00  0.00    -0.233 F 
ATOM     21  C   UNL     1      33.162  -9.353 -22.771  0.00  0.00    -0.050 C 
ATOM     22  C   UNL     1      33.503  -8.915 -24.201  0.00  0.00    +0.019 C 
ATOM     23  C   UNL     1      32.589 -10.782 -22.765  0.00  0.00    +0.010 C 
ATOM     24  C   UNL     1      34.535  -9.859 -24.827  0.00  0.00    +0.181 C 
ATOM     25  C   UNL     1      33.373 -11.716 -23.640  0.00  0.00    +0.028 C 
ATOM     26  C   UNL     1      34.260 -11.309 -24.559  0.00  0.00    +0.009 C 
BRANCH  21  28
ATOM     27  O   UNL     1      31.423  -5.814 -21.336  0.00  0.00    -0.358 OA
ATOM     28  N   UNL     1      32.214  -8.418 -22.170  0.00  0.00    +0.392 N 
ATOM     29  C   UNL     1      32.794  -7.783 -20.978  0.00  0.00    -0.045 C 
ATOM     30  C   UNL     1      31.807  -7.391 -23.139  0.00  0.00    -0.045 C 
ATOM     31  C   UNL     1      30.829  -6.419 -22.485  0.00  0.00    +0.119 C 
ATOM     32  C   UNL     1      31.791  -6.803 -20.375  0.00  0.00    +0.119 C 
ATOM     33  H   UNL     1      31.388  -8.946 -21.888  0.00  0.00    -0.079 HD
ENDBRANCH  21  28
ENDBRANCH   3  25
TORSDOF 6
ENDMDL
MODEL 3
REMARK VINA RESULT:     -11.4      3.692     11.059
REMARK  Name = 46937120
REMARK  6 active torsions:
REMARK  status: ('A' for Active; 'I' for Inactive)
REMARK    1  A    between atoms: N_2  and  C_6
REMARK    2  A    between atoms: C_3  and  C_25
REMARK    3  A    between atoms: C_9  and  C_12
REMARK    4  A    between atoms: C_12  and  O_13
REMARK    5  A    between atoms: O_13  and  C_15
REMARK    6  A    between atoms: C_21  and  N_28
REMARK                            x       y       z     vdW  Elec       q    Type
REMARK                         _______ _______ _______ _____ _____    ______ ____
ROOT
ATOM      1  O   UNL     1      33.809 -12.570 -24.553  0.00  0.00    -0.270 OA
ATOM      2  N   UNL     1      33.167 -14.052 -22.840  0.00  0.00    -0.281 N 
ATOM      3  C   UNL     1      33.265 -12.822 -23.476  0.00  0.00    +0.245 C 
ATOM      4  H   UNL     1      32.690 -14.059 -21.978  0.00  0.00    +0.155 HD
ENDROOT
BRANCH   2   6
ATOM      5 CL   UNL     1      35.261 -19.268 -24.735  0.00  0.00    -0.082 Cl
ATOM      6  C   UNL     1      33.669 -15.301 -23.284  0.00  0.00    +0.050 C 
ATOM      7  C   UNL     1      34.083 -16.255 -22.355  0.00  0.00    +0.015 C 
ATOM      8  C   UNL     1      33.747 -15.575 -24.649  0.00  0.00    +0.016 C 
ATOM      9  C   UNL     1      34.577 -17.485 -22.792  0.00  0.00    +0.033 C 
ATOM     10  C   UNL     1      34.240 -16.804 -25.086  0.00  0.00    +0.012 C 
ATOM     11  C   UNL     1      34.654 -17.760 -24.158  0.00  0.00    +0.057 C 
BRANCH   9  12
ATOM     12  C   UNL     1      35.012 -18.480 -21.766  0.00  0.00    +0.233 C 
BRANCH  12  13
ATOM     13  O   UNL     1      33.869 -19.011 -21.111  0.00  0.00    -0.469 OA
BRANCH  13  15
ATOM     14  N   UNL     1      33.068 -22.001 -19.161  0.00  0.00    -0.239 NA
ATOM     15  C   UNL     1      34.045 -20.171 -20.402  0.00  0.00    +0.158 C 
ATOM     16  C   UNL     1      35.314 -20.698 -20.193  0.00  0.00    +0.040 C 
ATOM     17  C   UNL     1      32.964 -20.855 -19.871  0.00  0.00    +0.136 C 
ATOM     18  C   UNL     1      35.462 -21.875 -19.468  0.00  0.00    +0.024 C 
ATOM     19  C   UNL     1      34.318 -22.483 -18.978  0.00  0.00    +0.099 C 
ENDBRANCH  13  15
ENDBRANCH  12  13
ENDBRANCH   9  12
ENDBRANCH   2   6
BRANCH   3  25
ATOM     20  F   UNL     1      29.972 -11.217 -20.813  0.00  0.00    -0.233 F 
ATOM     21  C   UNL     1      31.656  -9.419 -22.586  0.00  0.00    -0.050 C 
ATOM     22  C   UNL     1      31.670  -9.617 -21.064  0.00  0.00    +0.019 C 
ATOM     23  C   UNL     1      32.675 -10.353 -23.263  0.00  0.00    +0.010 C 
ATOM     24  C   UNL     1      31.324 -11.065 -20.702  0.00  0.00    +0.181 C 
ATOM     25  C   UNL     1      32.623 -11.749 -22.714  0.00  0.00    +0.028 C 
ATOM     26  C   UNL     1      32.006 -12.079 -21.571  0.00  0.00    +0.009 C 
BRANCH  21  28
ATOM     27  O   UNL     1      31.173  -5.303 -23.245  0.00  0.00    -0.358 OA
ATOM     28  N   UNL     1      31.940  -8.024 -22.915  0.00  0.00    +0.392 N 
ATOM     29  C   UNL     1      31.134  -7.586 -24.064  0.00  0.00    -0.045 C 
ATOM     30  C   UNL     1      31.684  -7.153 -21.761  0.00  0.00    -0.045 C 
ATOM     31  C   UNL     1      31.974  -5.701 -22.132  0.00  0.00    +0.119 C 
ATOM     32  C   UNL     1      31.439  -6.125 -24.382  0.00  0.00    +0.119 C 
ATOM     33  H   UNL     1      32.927  -7.956 -23.164  0.00  0.00    -0.079 HD
ENDBRANCH  21  28
ENDBRANCH   3  25
TORSDOF 6
ENDMDL
MODEL 4
REMARK VINA RESULT:     -11.2      4.543     11.938
REMARK  Name = 46937120
REMARK  6 active torsions:
REMARK  status: ('A' for Active; 'I' for Inactive)
REMARK    1  A    between atoms: N_2  and  C_6
REMARK    2  A    between atoms: C_3  and  C_25
REMARK    3  A    between atoms: C_9  and  C_12
REMARK    4  A    between atoms: C_12  and  O_13
REMARK    5  A    between atoms: O_13  and  C_15
REMARK    6  A    between atoms: C_21  and  N_28
REMARK                            x       y       z     vdW  Elec       q    Type
REMARK                         _______ _______ _______ _____ _____    ______ ____
ROOT
ATOM      1  O   UNL     1      31.145 -11.968 -21.973  0.00  0.00    -0.270 OA
ATOM      2  N   UNL     1      33.106 -11.737 -23.254  0.00  0.00    -0.281 N 
ATOM      3  C   UNL     1      32.058 -11.298 -22.457  0.00  0.00    +0.245 C 
ATOM      4  H   UNL     1      33.746 -11.048 -23.549  0.00  0.00    +0.155 HD
ENDROOT
BRANCH   2   6
ATOM      5 CL   UNL     1      34.173 -17.258 -25.141  0.00  0.00    -0.082 Cl
ATOM      6  C   UNL     1      33.365 -13.057 -23.696  0.00  0.00    +0.050 C 
ATOM      7  C   UNL     1      34.004 -13.963 -22.850  0.00  0.00    +0.015 C 
ATOM      8  C   UNL     1      32.980 -13.452 -24.978  0.00  0.00    +0.016 C 
ATOM      9  C   UNL     1      34.259 -15.264 -23.286  0.00  0.00    +0.033 C 
ATOM     10  C   UNL     1      33.234 -14.752 -25.413  0.00  0.00    +0.012 C 
ATOM     11  C   UNL     1      33.873 -15.659 -24.567  0.00  0.00    +0.057 C 
BRANCH   9  12
ATOM     12  C   UNL     1      34.947 -16.204 -22.349  0.00  0.00    +0.233 C 
BRANCH  12  13
ATOM     13  O   UNL     1      34.007 -17.149 -21.857  0.00  0.00    -0.469 OA
BRANCH  13  15
ATOM     14  N   UNL     1      36.440 -19.541 -20.536  0.00  0.00    -0.239 NA
ATOM     15  C   UNL     1      34.515 -18.293 -21.297  0.00  0.00    +0.158 C 
ATOM     16  C   UNL     1      33.680 -19.342 -20.928  0.00  0.00    +0.040 C 
ATOM     17  C   UNL     1      35.875 -18.440 -21.082  0.00  0.00    +0.136 C 
ATOM     18  C   UNL     1      34.224 -20.491 -20.364  0.00  0.00    +0.024 C 
ATOM     19  C   UNL     1      35.597 -20.540 -20.191  0.00  0.00    +0.099 C 
ENDBRANCH  13  15
ENDBRANCH  12  13
ENDBRANCH   9  12
ENDBRANCH   2   6
BRANCH   3  25
ATOM     20  F   UNL     1      31.439  -7.660 -19.829  0.00  0.00    -0.233 F 
ATOM     21  C   UNL     1      31.534  -7.486 -22.857  0.00  0.00    -0.050 C 
ATOM     22  C   UNL     1      32.562  -7.061 -21.800  0.00  0.00    +0.019 C 
ATOM     23  C   UNL     1      31.816  -8.920 -23.340  0.00  0.00    +0.010 C 
ATOM     24  C   UNL     1      32.519  -8.002 -20.591  0.00  0.00    +0.181 C 
ATOM     25  C   UNL     1      32.116  -9.856 -22.205  0.00  0.00    +0.028 C 
ATOM     26  C   UNL     1      32.420  -9.451 -20.964  0.00  0.00    +0.009 C 
BRANCH  21  28
ATOM     27  O   UNL     1      32.334  -4.116 -25.226  0.00  0.00    -0.358 OA
ATOM     28  N   UNL     1      31.552  -6.553 -23.982  0.00  0.00    +0.392 N 
ATOM     29  C   UNL     1      30.949  -5.268 -23.602  0.00  0.00    -0.045 C 
ATOM     30  C   UNL     1      32.924  -6.342 -24.463  0.00  0.00    -0.045 C 
ATOM     31  C   UNL     1      32.919  -5.356 -25.628  0.00  0.00    +0.119 C 
ATOM     32  C   UNL     1      30.990  -4.307 -24.787  0.00  0.00    +0.119 C 
ATOM     33  H   UNL     1      31.001  -6.962 -24.736  0.00  0.00    -0.079 HD
ENDBRANCH  21  28
ENDBRANCH   3  25
TORSDOF 6
ENDMDL
MODEL 5
REMARK VINA RESULT:     -11.2      2.395      3.396
REMARK  Name = 46937120
REMARK  6 active torsions:
REMARK  status: ('A' for Active; 'I' for Inactive)
REMARK    1  A    between atoms: N_2  and  C_6
REMARK    2  A    between atoms: C_3  and  C_25
REMARK    3  A    between atoms: C_9  and  C_12
REMARK    4  A    between atoms: C_12  and  O_13
REMARK    5  A    between atoms: O_13  and  C_15
REMARK    6  A    between atoms: C_21  and  N_28
REMARK                            x       y       z     vdW  Elec       q    Type
REMARK                         _______ _______ _______ _____ _____    ______ ____
ROOT
ATOM      1  O   UNL     1      36.579 -21.109 -20.055  0.00  0.00    -0.270 OA
ATOM      2  N   UNL     1      34.400 -20.271 -20.359  0.00  0.00    -0.281 N 
ATOM      3  C   UNL     1      35.382 -21.054 -19.768  0.00  0.00    +0.245 C 
ATOM      4  H   UNL     1      33.491 -20.363 -19.990  0.00  0.00    +0.155 HD
ENDROOT
BRANCH   2   6
ATOM      5 CL   UNL     1      35.030 -16.468 -24.867  0.00  0.00    -0.082 Cl
ATOM      6  C   UNL     1      34.549 -19.355 -21.430  0.00  0.00    +0.050 C 
ATOM      7  C   UNL     1      34.463 -17.984 -21.191  0.00  0.00    +0.015 C 
ATOM      8  C   UNL     1      34.782 -19.826 -22.722  0.00  0.00    +0.016 C 
ATOM      9  C   UNL     1      34.611 -17.082 -22.245  0.00  0.00    +0.033 C 
ATOM     10  C   UNL     1      34.929 -18.925 -23.776  0.00  0.00    +0.012 C 
ATOM     11  C   UNL     1      34.845 -17.553 -23.538  0.00  0.00    +0.057 C 
BRANCH   9  12
ATOM     12  C   UNL     1      34.511 -15.621 -21.949  0.00  0.00    +0.233 C 
BRANCH  12  13
ATOM     13  O   UNL     1      33.193 -15.173 -22.229  0.00  0.00    -0.469 OA
BRANCH  13  15
ATOM     14  N   UNL     1      31.960 -11.728 -22.206  0.00  0.00    -0.239 NA
ATOM     15  C   UNL     1      33.048 -13.855 -22.577  0.00  0.00    +0.158 C 
ATOM     16  C   UNL     1      33.794 -13.301 -23.611  0.00  0.00    +0.040 C 
ATOM     17  C   UNL     1      32.153 -13.034 -21.912  0.00  0.00    +0.136 C 
ATOM     18  C   UNL     1      33.625 -11.961 -23.943  0.00  0.00    +0.024 C 
ATOM     19  C   UNL     1      32.704 -11.225 -23.217  0.00  0.00    +0.099 C 
ENDBRANCH  13  15
ENDBRANCH  12  13
ENDBRANCH   9  12
ENDBRANCH   2   6
BRANCH   3  25
ATOM     20  F   UNL     1      32.051 -22.392 -17.005  0.00  0.00    -0.233 F 
ATOM     21  C   UNL     1      34.984 -22.749 -16.313  0.00  0.00    -0.050 C 
ATOM     22  C   UNL     1      33.929 -23.775 -16.748  0.00  0.00    +0.019 C 
ATOM     23  C   UNL     1      35.759 -22.219 -17.533  0.00  0.00    +0.010 C 
ATOM     24  C   UNL     1      32.931 -23.147 -17.726  0.00  0.00    +0.181 C 
ATOM     25  C   UNL     1      34.854 -21.884 -18.683  0.00  0.00    +0.028 C 
ATOM     26  C   UNL     1      33.578 -22.286 -18.770  0.00  0.00    +0.009 C 
BRANCH  21  28
ATOM     27  O   UNL     1      37.846 -25.272 -14.566  0.00  0.00    -0.358 OA
ATOM     28  N   UNL     1      35.900 -23.347 -15.344  0.00  0.00    +0.392 N 
ATOM     29  C   UNL     1      35.533 -24.744 -15.075  0.00  0.00    -0.045 C 
ATOM     30  C   UNL     1      37.287 -23.273 -15.822  0.00  0.00    -0.045 C 
ATOM     31  C   UNL     1      38.222 -23.914 -14.800  0.00  0.00    +0.119 C 
ATOM     32  C   UNL     1      36.510 -25.350 -14.070  0.00  0.00    +0.119 C 
ATOM     33  H   UNL     1      35.825 -22.817 -14.475  0.00  0.00    -0.079 HD
ENDBRANCH  21  28
ENDBRANCH   3  25
TORSDOF 6
ENDMDL
MODEL 6
REMARK VINA RESULT:     -11.0      1.842      2.639
REMARK  Name = 46937120
REMARK  6 active torsions:
REMARK  status: ('A' for Active; 'I' for Inactive)
REMARK    1  A    between atoms: N_2  and  C_6
REMARK    2  A    between atoms: C_3  and  C_25
REMARK    3  A    between atoms: C_9  and  C_12
REMARK    4  A    between atoms: C_12  and  O_13
REMARK    5  A    between atoms: O_13  and  C_15
REMARK    6  A    between atoms: C_21  and  N_28
REMARK                            x       y       z     vdW  Elec       q    Type
REMARK                         _______ _______ _______ _____ _____    ______ ____
ROOT
ATOM      1  O   UNL     1      36.931 -21.516 -20.487  0.00  0.00    -0.270 OA
ATOM      2  N   UNL     1      35.111 -20.098 -20.018  0.00  0.00    -0.281 N 
ATOM      3  C   UNL     1      36.032 -21.102 -19.753  0.00  0.00    +0.245 C 
ATOM      4  H   UNL     1      34.462 -19.903 -19.303  0.00  0.00    +0.155 HD
ENDROOT
BRANCH   2   6
ATOM      5 CL   UNL     1      34.614 -16.875 -24.972  0.00  0.00    -0.082 Cl
ATOM      6  C   UNL     1      34.991 -19.320 -21.196  0.00  0.00    +0.050 C 
ATOM      7  C   UNL     1      34.887 -17.932 -21.108  0.00  0.00    +0.015 C 
ATOM      8  C   UNL     1      34.979 -19.942 -22.444  0.00  0.00    +0.016 C 
ATOM      9  C   UNL     1      34.770 -17.166 -22.268  0.00  0.00    +0.033 C 
ATOM     10  C   UNL     1      34.863 -19.177 -23.604  0.00  0.00    +0.012 C 
ATOM     11  C   UNL     1      34.759 -17.789 -23.516  0.00  0.00    +0.057 C 
BRANCH   9  12
ATOM     12  C   UNL     1      34.659 -15.682 -22.130  0.00  0.00    +0.233 C 
BRANCH  12  13
ATOM     13  O   UNL     1      33.331 -15.280 -22.434  0.00  0.00    -0.469 OA
BRANCH  13  15
ATOM     14  N   UNL     1      31.976 -11.888 -22.215  0.00  0.00    -0.239 NA
ATOM     15  C   UNL     1      33.134 -13.952 -22.710  0.00  0.00    +0.158 C 
ATOM     16  C   UNL     1      33.848 -13.317 -23.721  0.00  0.00    +0.040 C 
ATOM     17  C   UNL     1      32.218 -13.200 -21.993  0.00  0.00    +0.136 C 
ATOM     18  C   UNL     1      33.626 -11.968 -23.979  0.00  0.00    +0.024 C 
ATOM     19  C   UNL     1      32.688 -11.306 -23.206  0.00  0.00    +0.099 C 
ENDBRANCH  13  15
ENDBRANCH  12  13
ENDBRANCH   9  12
ENDBRANCH   2   6
BRANCH   3  25
ATOM     20  F   UNL     1      37.532 -23.383 -16.138  0.00  0.00    -0.233 F 
ATOM     21  C   UNL     1      34.586 -23.197 -16.840  0.00  0.00    -0.050 C 
ATOM     22  C   UNL     1      35.392 -22.517 -15.725  0.00  0.00    +0.019 C 
ATOM     23  C   UNL     1      34.519 -22.295 -18.086  0.00  0.00    +0.010 C 
ATOM     24  C   UNL     1      36.820 -22.220 -16.191  0.00  0.00    +0.181 C 
ATOM     25  C   UNL     1      35.849 -21.687 -18.422  0.00  0.00    +0.028 C 
ATOM     26  C   UNL     1      36.892 -21.661 -17.581  0.00  0.00    +0.009 C 
BRANCH  21  28
ATOM     27  O   UNL     1      30.771 -22.833 -15.131  0.00  0.00    -0.358 OA
ATOM     28  N   UNL     1      33.241 -23.518 -16.366  0.00  0.00    +0.392 N 
ATOM     29  C   UNL     1      33.138 -23.314 -14.914  0.00  0.00    -0.045 C 
ATOM     30  C   UNL     1      32.235 -22.704 -17.061  0.00  0.00    -0.045 C 
ATOM     31  C   UNL     1      30.841 -23.047 -16.541  0.00  0.00    +0.119 C 
ATOM     32  C   UNL     1      31.723 -23.645 -14.446  0.00  0.00    +0.119 C 
ATOM     33  H   UNL     1      33.064 -24.501 -16.572  0.00  0.00    -0.079 HD
ENDBRANCH  21  28
ENDBRANCH   3  25
TORSDOF 6
ENDMDL
MODEL 7
REMARK VINA RESULT:     -11.0      3.468     10.219
REMARK  Name = 46937120
REMARK  6 active torsions:
REMARK  status: ('A' for Active; 'I' for Inactive)
REMARK    1  A    between atoms: N_2  and  C_6
REMARK    2  A    between atoms: C_3  and  C_25
REMARK    3  A    between atoms: C_9  and  C_12
REMARK    4  A    between atoms: C_12  and  O_13
REMARK    5  A    between atoms: O_13  and  C_15
REMARK    6  A    between atoms: C_21  and  N_28
REMARK                            x       y       z     vdW  Elec       q    Type
REMARK                         _______ _______ _______ _____ _____    ______ ____
ROOT
ATOM      1  O   UNL     1      35.348 -17.045 -20.520  0.00  0.00    -0.270 OA
ATOM      2  N   UNL     1      33.984 -18.623 -21.612  0.00  0.00    -0.281 N 
ATOM      3  C   UNL     1      34.629 -17.404 -21.454  0.00  0.00    +0.245 C 
ATOM      4  H   UNL     1      33.448 -18.727 -22.432  0.00  0.00    +0.155 HD
ENDROOT
BRANCH   2   6
ATOM      5 CL   UNL     1      34.026 -23.280 -17.940  0.00  0.00    -0.082 Cl
ATOM      6  C   UNL     1      34.004 -19.735 -20.735  0.00  0.00    +0.050 C 
ATOM      7  C   UNL     1      35.217 -20.212 -20.241  0.00  0.00    +0.015 C 
ATOM      8  C   UNL     1      32.809 -20.352 -20.365  0.00  0.00    +0.016 C 
ATOM      9  C   UNL     1      35.237 -21.307 -19.376  0.00  0.00    +0.033 C 
ATOM     10  C   UNL     1      32.828 -21.446 -19.500  0.00  0.00    +0.012 C 
ATOM     11  C   UNL     1      34.041 -21.923 -19.005  0.00  0.00    +0.057 C 
BRANCH   9  12
ATOM     12  C   UNL     1      36.557 -21.788 -18.870  0.00  0.00    +0.233 C 
BRANCH  12  13
ATOM     13  O   UNL     1      36.825 -21.189 -17.609  0.00  0.00    -0.469 OA
BRANCH  13  15
ATOM     14  N   UNL     1      38.261 -23.562 -15.224  0.00  0.00    -0.239 NA
ATOM     15  C   UNL     1      36.923 -22.031 -16.533  0.00  0.00    +0.158 C 
ATOM     16  C   UNL     1      35.848 -22.226 -15.673  0.00  0.00    +0.040 C 
ATOM     17  C   UNL     1      38.097 -22.716 -16.266  0.00  0.00    +0.136 C 
ATOM     18  C   UNL     1      35.976 -23.088 -14.590  0.00  0.00    +0.024 C 
ATOM     19  C   UNL     1      37.192 -23.726 -14.411  0.00  0.00    +0.099 C 
ENDBRANCH  13  15
ENDBRANCH  12  13
ENDBRANCH   9  12
ENDBRANCH   2   6
BRANCH   3  25
ATOM     20  F   UNL     1      35.128 -16.115 -25.768  0.00  0.00    -0.233 F 
ATOM     21  C   UNL     1      34.399 -14.167 -23.559  0.00  0.00    -0.050 C 
ATOM     22  C   UNL     1      33.546 -14.759 -24.690  0.00  0.00    +0.019 C 
ATOM     23  C   UNL     1      34.276 -15.021 -22.285  0.00  0.00    +0.010 C 
ATOM     24  C   UNL     1      33.993 -16.188 -25.014  0.00  0.00    +0.181 C 
ATOM     25  C   UNL     1      34.375 -16.491 -22.571  0.00  0.00    +0.028 C 
ATOM     26  C   UNL     1      34.263 -17.022 -23.797  0.00  0.00    +0.009 C 
BRANCH  21  28
ATOM     27  O   UNL     1      32.322 -10.524 -23.710  0.00  0.00    -0.358 OA
ATOM     28  N   UNL     1      33.995 -12.788 -23.293  0.00  0.00    +0.392 N 
ATOM     29  C   UNL     1      34.095 -11.972 -24.512  0.00  0.00    -0.045 C 
ATOM     30  C   UNL     1      32.625 -12.737 -22.765  0.00  0.00    -0.045 C 
ATOM     31  C   UNL     1      32.221 -11.288 -22.508  0.00  0.00    +0.119 C 
ATOM     32  C   UNL     1      33.657 -10.540 -24.212  0.00  0.00    +0.119 C 
ATOM     33  H   UNL     1      34.629 -12.406 -22.592  0.00  0.00    -0.079 HD
ENDBRANCH  21  28
ENDBRANCH   3  25
TORSDOF 6
ENDMDL
MODEL 8
REMARK VINA RESULT:     -10.8      3.616      9.867
REMARK  Name = 46937120
REMARK  6 active torsions:
REMARK  status: ('A' for Active; 'I' for Inactive)
REMARK    1  A    between atoms: N_2  and  C_6
REMARK    2  A    between atoms: C_3  and  C_25
REMARK    3  A    between atoms: C_9  and  C_12
REMARK    4  A    between atoms: C_12  and  O_13
REMARK    5  A    between atoms: O_13  and  C_15
REMARK    6  A    between atoms: C_21  and  N_28
REMARK                            x       y       z     vdW  Elec       q    Type
REMARK                         _______ _______ _______ _____ _____    ______ ____
ROOT
ATOM      1  O   UNL     1      36.096 -18.419 -20.403  0.00  0.00    -0.270 OA
ATOM      2  N   UNL     1      34.949 -20.435 -20.807  0.00  0.00    -0.281 N 
ATOM      3  C   UNL     1      35.421 -19.166 -21.113  0.00  0.00    +0.245 C 
ATOM      4  H   UNL     1      34.422 -20.884 -21.508  0.00  0.00    +0.155 HD
ENDROOT
BRANCH   2   6
ATOM      5 CL   UNL     1      35.771 -23.473 -15.780  0.00  0.00    -0.082 Cl
ATOM      6  C   UNL     1      35.136 -21.164 -19.607  0.00  0.00    +0.050 C 
ATOM      7  C   UNL     1      34.092 -21.927 -19.084  0.00  0.00    +0.015 C 
ATOM      8  C   UNL     1      36.365 -21.119 -18.948  0.00  0.00    +0.016 C 
ATOM      9  C   UNL     1      34.277 -22.645 -17.902  0.00  0.00    +0.033 C 
ATOM     10  C   UNL     1      36.550 -21.837 -17.767  0.00  0.00    +0.012 C 
ATOM     11  C   UNL     1      35.506 -22.600 -17.244  0.00  0.00    +0.057 C 
BRANCH   9  12
ATOM     12  C   UNL     1      33.133 -23.449 -17.374  0.00  0.00    +0.233 C 
BRANCH  12  13
ATOM     13  O   UNL     1      31.989 -22.617 -17.254  0.00  0.00    -0.469 OA
BRANCH  13  15
ATOM     14  N   UNL     1      30.099 -24.726 -14.938  0.00  0.00    -0.239 NA
ATOM     15  C   UNL     1      30.932 -23.117 -16.538  0.00  0.00    +0.158 C 
ATOM     16  C   UNL     1      29.660 -22.569 -16.660  0.00  0.00    +0.040 C 
ATOM     17  C   UNL     1      31.098 -24.184 -15.672  0.00  0.00    +0.136 C 
ATOM     18  C   UNL     1      28.607 -23.098 -15.922  0.00  0.00    +0.024 C 
ATOM     19  C   UNL     1      28.876 -24.167 -15.083  0.00  0.00    +0.099 C 
ENDBRANCH  13  15
ENDBRANCH  12  13
ENDBRANCH   9  12
ENDBRANCH   2   6
BRANCH   3  25
ATOM     20  F   UNL     1      35.322 -19.669 -25.614  0.00  0.00    -0.233 F 
ATOM     21  C   UNL     1      34.951 -16.975 -24.267  0.00  0.00    -0.050 C 
ATOM     22  C   UNL     1      33.936 -17.892 -24.961  0.00  0.00    +0.019 C 
ATOM     23  C   UNL     1      34.997 -17.265 -22.756  0.00  0.00    +0.010 C 
ATOM     24  C   UNL     1      34.305 -19.365 -24.756  0.00  0.00    +0.181 C 
ATOM     25  C   UNL     1      35.027 -18.735 -22.457  0.00  0.00    +0.028 C 
ATOM     26  C   UNL     1      34.730 -19.685 -23.354  0.00  0.00    +0.009 C 
BRANCH  21  28
ATOM     27  O   UNL     1      32.837 -13.354 -24.423  0.00  0.00    -0.358 OA
ATOM     28  N   UNL     1      34.615 -15.574 -24.511  0.00  0.00    +0.392 N 
ATOM     29  C   UNL     1      33.475 -15.465 -25.432  0.00  0.00    -0.045 C 
ATOM     30  C   UNL     1      34.312 -14.883 -23.251  0.00  0.00    -0.045 C 
ATOM     31  C   UNL     1      33.951 -13.426 -23.532  0.00  0.00    +0.119 C 
ATOM     32  C   UNL     1      33.136 -13.995 -25.663  0.00  0.00    +0.119 C 
ATOM     33  H   UNL     1      35.426 -15.128 -24.941  0.00  0.00    -0.079 HD
ENDBRANCH  21  28
ENDBRANCH   3  25
TORSDOF 6
ENDMDL
MODEL 9
REMARK VINA RESULT:     -10.7      3.268      9.950
REMARK  Name = 46937120
REMARK  6 active torsions:
REMARK  status: ('A' for Active; 'I' for Inactive)
REMARK    1  A    between atoms: N_2  and  C_6
REMARK    2  A    between atoms: C_3  and  C_25
REMARK    3  A    between atoms: C_9  and  C_12
REMARK    4  A    between atoms: C_12  and  O_13
REMARK    5  A    between atoms: O_13  and  C_15
REMARK    6  A    between atoms: C_21  and  N_28
REMARK                            x       y       z     vdW  Elec       q    Type
REMARK                         _______ _______ _______ _____ _____    ______ ____
ROOT
ATOM      1  O   UNL     1      35.109 -18.215 -24.633  0.00  0.00    -0.270 OA
ATOM      2  N   UNL     1      34.586 -17.450 -22.468  0.00  0.00    -0.281 N 
ATOM      3  C   UNL     1      34.644 -17.381 -23.854  0.00  0.00    +0.245 C 
ATOM      4  H   UNL     1      34.174 -16.680 -22.012  0.00  0.00    +0.155 HD
ENDROOT
BRANCH   2   6
ATOM      5 CL   UNL     1      36.568 -21.814 -18.974  0.00  0.00    -0.082 Cl
ATOM      6  C   UNL     1      35.050 -18.495 -21.632  0.00  0.00    +0.050 C 
ATOM      7  C   UNL     1      34.143 -19.388 -21.063  0.00  0.00    +0.015 C 
ATOM      8  C   UNL     1      36.415 -18.631 -21.379  0.00  0.00    +0.016 C 
ATOM      9  C   UNL     1      34.600 -20.417 -20.240  0.00  0.00    +0.033 C 
ATOM     10  C   UNL     1      36.872 -19.660 -20.557  0.00  0.00    +0.012 C 
ATOM     11  C   UNL     1      35.966 -20.554 -19.988  0.00  0.00    +0.057 C 
BRANCH   9  12
ATOM     12  C   UNL     1      33.596 -21.352 -19.648  0.00  0.00    +0.233 C 
BRANCH  12  13
ATOM     13  O   UNL     1      34.269 -22.347 -18.890  0.00  0.00    -0.469 OA
BRANCH  13  15
ATOM     14  N   UNL     1      33.914 -23.533 -15.447  0.00  0.00    -0.239 NA
ATOM     15  C   UNL     1      33.675 -22.740 -17.718  0.00  0.00    +0.158 C 
ATOM     16  C   UNL     1      32.292 -22.755 -17.586  0.00  0.00    +0.040 C 
ATOM     17  C   UNL     1      34.435 -23.134 -16.629  0.00  0.00    +0.136 C 
ATOM     18  C   UNL     1      31.717 -23.160 -16.386  0.00  0.00    +0.024 C 
ATOM     19  C   UNL     1      32.564 -23.536 -15.356  0.00  0.00    +0.099 C 
ENDBRANCH  13  15
ENDBRANCH  12  13
ENDBRANCH   9  12
ENDBRANCH   2   6
BRANCH   3  25
ATOM     20  F   UNL     1      33.861 -14.410 -27.182  0.00  0.00    -0.233 F 
ATOM     21  C   UNL     1      33.754 -13.637 -24.250  0.00  0.00    -0.050 C 
ATOM     22  C   UNL     1      32.627 -13.837 -25.271  0.00  0.00    +0.019 C 
ATOM     23  C   UNL     1      34.020 -14.940 -23.475  0.00  0.00    +0.010 C 
ATOM     24  C   UNL     1      32.990 -14.938 -26.273  0.00  0.00    +0.181 C 
ATOM     25  C   UNL     1      34.062 -16.141 -24.374  0.00  0.00    +0.028 C 
ATOM     26  C   UNL     1      33.614 -16.144 -25.637  0.00  0.00    +0.009 C 
BRANCH  21  28
ATOM     27  O   UNL     1      31.720 -10.459 -22.415  0.00  0.00    -0.358 OA
ATOM     28  N   UNL     1      33.416 -12.553 -23.331  0.00  0.00    +0.392 N 
ATOM     29  C   UNL     1      33.317 -11.274 -24.049  0.00  0.00    -0.045 C 
ATOM     30  C   UNL     1      32.156 -12.836 -22.631  0.00  0.00    -0.045 C 
ATOM     31  C   UNL     1      31.816 -11.685 -21.688  0.00  0.00    +0.119 C 
ATOM     32  C   UNL     1      32.951 -10.160 -23.071  0.00  0.00    +0.119 C 
ATOM     33  H   UNL     1      34.164 -12.482 -22.641  0.00  0.00    -0.079 HD
ENDBRANCH  21  28
ENDBRANCH   3  25
TORSDOF 6
ENDMDL
