MODEL 1
REMARK VINA RESULT:     -11.0      0.000      0.000
REMARK  Name = 6425761
REMARK  6 active torsions:
REMARK  status: ('A' for Active; 'I' for Inactive)
REMARK    1  A    between atoms: N_1  and  C_19
REMARK    2  A    between atoms: C_2  and  N_9
REMARK    3  A    between atoms: N_9  and  C_11
REMARK    4  A    between atoms: C_10  and  C_17
REMARK    5  A    between atoms: C_19  and  C_20
REMARK    6  A    between atoms: C_20  and  C_22
REMARK                            x       y       z     vdW  Elec       q    Type
REMARK                         _______ _______ _______ _____ _____    ______ ____
ROOT
ATOM      1  N   UNL     1      34.772 -18.245 -21.829  0.00  0.00    +0.387 N 
ATOM      2  C   UNL     1      34.574 -15.804 -23.431  0.00  0.00    +0.076 C 
ATOM      3  C   UNL     1      33.984 -15.907 -22.024  0.00  0.00    -0.003 C 
ATOM      4  C   UNL     1      34.672 -17.192 -24.065  0.00  0.00    -0.003 C 
ATOM      5  C   UNL     1      34.744 -16.928 -21.176  0.00  0.00    -0.076 C 
ATOM      6  C   UNL     1      35.411 -18.169 -23.149  0.00  0.00    -0.076 C 
ATOM      7  H   UNL     1      33.807 -18.550 -21.964  0.00  0.00    -0.080 HD
ENDROOT
BRANCH   2   9
ATOM      8  O   UNL     1      33.760 -16.217 -26.228  0.00  0.00    -0.275 OA
ATOM      9  N   UNL     1      33.794 -14.911 -24.250  0.00  0.00    -0.260 N 
ATOM     10  C   UNL     1      33.447 -15.200 -25.604  0.00  0.00    +0.229 C 
BRANCH   9  11
ATOM     11  C   UNL     1      33.336 -13.652 -23.668  0.00  0.00    +0.054 C 
ATOM     12  C   UNL     1      33.951 -12.507 -24.078  0.00  0.00    +0.015 C 
ATOM     13  C   UNL     1      32.327 -13.708 -22.753  0.00  0.00    +0.015 C 
ATOM     14  C   UNL     1      33.515 -11.304 -23.522  0.00  0.00    +0.001 C 
ATOM     15  C   UNL     1      31.891 -12.505 -22.197  0.00  0.00    +0.001 C 
ATOM     16  C   UNL     1      32.486 -11.304 -22.581  0.00  0.00    +0.000 C 
ENDBRANCH   9  11
BRANCH  10  17
ATOM     17  C   UNL     1      32.656 -14.105 -26.314  0.00  0.00    +0.086 C 
ATOM     18  C   UNL     1      33.439 -13.447 -27.439  0.00  0.00    +0.010 C 
ENDBRANCH  10  17
ENDBRANCH   2   9
BRANCH   1  19
ATOM     19  C   UNL     1      35.458 -19.221 -20.984  0.00  0.00    -0.073 C 
BRANCH  19  20
ATOM     20  C   UNL     1      34.617 -20.494 -20.762  0.00  0.00    +0.002 C 
ATOM     21  C   UNL     1      33.109 -20.212 -20.726  0.00  0.00    +0.003 C 
BRANCH  20  22
ATOM     22  C   UNL     1      35.059 -21.214 -19.497  0.00  0.00    -0.025 C 
ATOM     23  C   UNL     1      34.147 -21.998 -18.822  0.00  0.00    -0.004 C 
ATOM     24  C   UNL     1      36.360 -21.062 -19.063  0.00  0.00    -0.004 C 
ATOM     25  C   UNL     1      34.552 -22.659 -17.663  0.00  0.00    -0.000 C 
ATOM     26  C   UNL     1      36.766 -21.723 -17.903  0.00  0.00    -0.000 C 
ATOM     27  C   UNL     1      35.862 -22.522 -17.203  0.00  0.00    -0.000 C 
ENDBRANCH  20  22
ENDBRANCH  19  20
ENDBRANCH   1  19
TORSDOF 6
ENDMDL
MODEL 2
REMARK VINA RESULT:     -10.9      3.361      6.150
REMARK  Name = 6425761
REMARK  6 active torsions:
REMARK  status: ('A' for Active; 'I' for Inactive)
REMARK    1  A    between atoms: N_1  and  C_19
REMARK    2  A    between atoms: C_2  and  N_9
REMARK    3  A    between atoms: N_9  and  C_11
REMARK    4  A    between atoms: C_10  and  C_17
REMARK    5  A    between atoms: C_19  and  C_20
REMARK    6  A    between atoms: C_20  and  C_22
REMARK                            x       y       z     vdW  Elec       q    Type
REMARK                         _______ _______ _______ _____ _____    ______ ____
ROOT
ATOM      1  N   UNL     1      32.928 -13.278 -22.341  0.00  0.00    +0.387 N 
ATOM      2  C   UNL     1      32.751 -10.520 -23.302  0.00  0.00    +0.076 C 
ATOM      3  C   UNL     1      33.781 -11.510 -23.847  0.00  0.00    -0.003 C 
ATOM      4  C   UNL     1      32.330 -10.922 -21.887  0.00  0.00    -0.003 C 
ATOM      5  C   UNL     1      33.283 -12.951 -23.729  0.00  0.00    -0.076 C 
ATOM      6  C   UNL     1      31.879 -12.382 -21.836  0.00  0.00    -0.076 C 
ATOM      7  H   UNL     1      33.759 -13.147 -21.764  0.00  0.00    -0.080 HD
ENDROOT
BRANCH   2   9
ATOM      8  O   UNL     1      35.266  -9.607 -24.526  0.00  0.00    -0.275 OA
ATOM      9  N   UNL     1      33.267  -9.175 -23.328  0.00  0.00    -0.260 N 
ATOM     10  C   UNL     1      34.503  -8.827 -23.950  0.00  0.00    +0.229 C 
BRANCH   9  11
ATOM     11  C   UNL     1      32.488  -8.117 -22.688  0.00  0.00    +0.054 C 
ATOM     12  C   UNL     1      31.454  -7.579 -23.394  0.00  0.00    +0.015 C 
ATOM     13  C   UNL     1      32.849  -7.741 -21.428  0.00  0.00    +0.015 C 
ATOM     14  C   UNL     1      30.710  -6.570 -22.784  0.00  0.00    +0.001 C 
ATOM     15  C   UNL     1      32.105  -6.731 -20.818  0.00  0.00    +0.001 C 
ATOM     16  C   UNL     1      31.036  -6.146 -21.496  0.00  0.00    +0.000 C 
ENDBRANCH   9  11
BRANCH  10  17
ATOM     17  C   UNL     1      34.895  -7.357 -23.827  0.00  0.00    +0.086 C 
ATOM     18  C   UNL     1      34.538  -6.547 -25.064  0.00  0.00    +0.010 C 
ENDBRANCH  10  17
ENDBRANCH   2   9
BRANCH   1  19
ATOM     19  C   UNL     1      32.502 -14.674 -22.237  0.00  0.00    -0.073 C 
BRANCH  19  20
ATOM     20  C   UNL     1      33.449 -15.509 -21.353  0.00  0.00    +0.002 C 
ATOM     21  C   UNL     1      34.527 -14.658 -20.667  0.00  0.00    +0.003 C 
BRANCH  20  22
ATOM     22  C   UNL     1      34.084 -16.631 -22.161  0.00  0.00    -0.025 C 
ATOM     23  C   UNL     1      34.407 -17.811 -21.523  0.00  0.00    -0.004 C 
ATOM     24  C   UNL     1      34.318 -16.436 -23.507  0.00  0.00    -0.004 C 
ATOM     25  C   UNL     1      34.988 -18.841 -22.263  0.00  0.00    -0.000 C 
ATOM     26  C   UNL     1      34.899 -17.465 -24.247  0.00  0.00    -0.000 C 
ATOM     27  C   UNL     1      35.235 -18.668 -23.625  0.00  0.00    -0.000 C 
ENDBRANCH  20  22
ENDBRANCH  19  20
ENDBRANCH   1  19
TORSDOF 6
ENDMDL
MODEL 3
REMARK VINA RESULT:     -10.7      1.561      2.958
REMARK  Name = 6425761
REMARK  6 active torsions:
REMARK  status: ('A' for Active; 'I' for Inactive)
REMARK    1  A    between atoms: N_1  and  C_19
REMARK    2  A    between atoms: C_2  and  N_9
REMARK    3  A    between atoms: N_9  and  C_11
REMARK    4  A    between atoms: C_10  and  C_17
REMARK    5  A    between atoms: C_19  and  C_20
REMARK    6  A    between atoms: C_20  and  C_22
REMARK                            x       y       z     vdW  Elec       q    Type
REMARK                         _______ _______ _______ _____ _____    ______ ____
ROOT
ATOM      1  N   UNL     1      34.693 -17.664 -21.596  0.00  0.00    +0.387 N 
ATOM      2  C   UNL     1      34.340 -14.878 -22.415  0.00  0.00    +0.076 C 
ATOM      3  C   UNL     1      34.084 -15.346 -20.982  0.00  0.00    -0.003 C 
ATOM      4  C   UNL     1      34.170 -16.043 -23.390  0.00  0.00    -0.003 C 
ATOM      5  C   UNL     1      34.930 -16.573 -20.640  0.00  0.00    -0.076 C 
ATOM      6  C   UNL     1      35.014 -17.247 -22.968  0.00  0.00    -0.076 C 
ATOM      7  H   UNL     1      33.701 -17.902 -21.564  0.00  0.00    -0.080 HD
ENDROOT
BRANCH   2   9
ATOM      8  O   UNL     1      32.430 -13.503 -20.648  0.00  0.00    -0.275 OA
ATOM      9  N   UNL     1      33.470 -13.781 -22.760  0.00  0.00    -0.260 N 
ATOM     10  C   UNL     1      32.573 -13.177 -21.830  0.00  0.00    +0.229 C 
BRANCH   9  11
ATOM     11  C   UNL     1      33.509 -13.264 -24.126  0.00  0.00    +0.054 C 
ATOM     12  C   UNL     1      32.990 -14.049 -25.113  0.00  0.00    +0.015 C 
ATOM     13  C   UNL     1      34.063 -12.034 -24.321  0.00  0.00    +0.015 C 
ATOM     14  C   UNL     1      33.027 -13.557 -26.417  0.00  0.00    +0.001 C 
ATOM     15  C   UNL     1      34.100 -11.542 -25.626  0.00  0.00    +0.001 C 
ATOM     16  C   UNL     1      33.583 -12.303 -26.673  0.00  0.00    +0.000 C 
ENDBRANCH   9  11
BRANCH  10  17
ATOM     17  C   UNL     1      31.705 -12.060 -22.404  0.00  0.00    +0.086 C 
ATOM     18  C   UNL     1      30.964 -11.278 -21.330  0.00  0.00    +0.010 C 
ENDBRANCH  10  17
ENDBRANCH   2   9
BRANCH   1  19
ATOM     19  C   UNL     1      35.470 -18.847 -21.226  0.00  0.00    -0.073 C 
BRANCH  19  20
ATOM     20  C   UNL     1      34.590 -20.107 -21.099  0.00  0.00    +0.002 C 
ATOM     21  C   UNL     1      33.090 -19.784 -21.064  0.00  0.00    +0.003 C 
BRANCH  20  22
ATOM     22  C   UNL     1      34.993 -20.919 -19.877  0.00  0.00    -0.025 C 
ATOM     23  C   UNL     1      36.297 -20.849 -19.431  0.00  0.00    -0.004 C 
ATOM     24  C   UNL     1      34.044 -21.701 -19.252  0.00  0.00    -0.004 C 
ATOM     25  C   UNL     1      36.667 -21.593 -18.310  0.00  0.00    -0.000 C 
ATOM     26  C   UNL     1      34.414 -22.445 -18.132  0.00  0.00    -0.000 C 
ATOM     27  C   UNL     1      35.726 -22.392 -17.661  0.00  0.00    -0.000 C 
ENDBRANCH  20  22
ENDBRANCH  19  20
ENDBRANCH   1  19
TORSDOF 6
ENDMDL
MODEL 4
REMARK VINA RESULT:     -10.6      2.112      8.696
REMARK  Name = 6425761
REMARK  6 active torsions:
REMARK  status: ('A' for Active; 'I' for Inactive)
REMARK    1  A    between atoms: N_1  and  C_19
REMARK    2  A    between atoms: C_2  and  N_9
REMARK    3  A    between atoms: N_9  and  C_11
REMARK    4  A    between atoms: C_10  and  C_17
REMARK    5  A    between atoms: C_19  and  C_20
REMARK    6  A    between atoms: C_20  and  C_22
REMARK                            x       y       z     vdW  Elec       q    Type
REMARK                         _______ _______ _______ _____ _____    ______ ____
ROOT
ATOM      1  N   UNL     1      32.789 -14.255 -21.072  0.00  0.00    +0.387 N 
ATOM      2  C   UNL     1      34.100 -16.871 -21.048  0.00  0.00    +0.076 C 
ATOM      3  C   UNL     1      34.781 -15.622 -21.607  0.00  0.00    -0.003 C 
ATOM      4  C   UNL     1      32.580 -16.720 -21.117  0.00  0.00    -0.003 C 
ATOM      5  C   UNL     1      34.249 -14.353 -20.940  0.00  0.00    -0.076 C 
ATOM      6  C   UNL     1      32.122 -15.414 -20.464  0.00  0.00    -0.076 C 
ATOM      7  H   UNL     1      32.562 -14.249 -22.067  0.00  0.00    -0.080 HD
ENDROOT
BRANCH   2   9
ATOM      8  O   UNL     1      34.491 -17.172 -23.949  0.00  0.00    -0.275 OA
ATOM      9  N   UNL     1      34.537 -18.052 -21.749  0.00  0.00    -0.260 N 
ATOM     10  C   UNL     1      34.698 -18.102 -23.165  0.00  0.00    +0.229 C 
BRANCH   9  11
ATOM     11  C   UNL     1      34.830 -19.255 -20.971  0.00  0.00    +0.054 C 
ATOM     12  C   UNL     1      33.777 -20.036 -20.599  0.00  0.00    +0.015 C 
ATOM     13  C   UNL     1      36.134 -19.511 -20.671  0.00  0.00    +0.015 C 
ATOM     14  C   UNL     1      34.055 -21.184 -19.857  0.00  0.00    +0.001 C 
ATOM     15  C   UNL     1      36.412 -20.659 -19.929  0.00  0.00    +0.001 C 
ATOM     16  C   UNL     1      35.373 -21.495 -19.522  0.00  0.00    +0.000 C 
ENDBRANCH   9  11
BRANCH  10  17
ATOM     17  C   UNL     1      35.125 -19.459 -23.718  0.00  0.00    +0.086 C 
ATOM     18  C   UNL     1      34.582 -19.724 -25.114  0.00  0.00    +0.010 C 
ENDBRANCH  10  17
ENDBRANCH   2   9
BRANCH   1  19
ATOM     19  C   UNL     1      32.302 -13.013 -20.473  0.00  0.00    -0.073 C 
BRANCH  19  20
ATOM     20  C   UNL     1      31.639 -12.085 -21.511  0.00  0.00    +0.002 C 
ATOM     21  C   UNL     1      32.127 -12.349 -22.941  0.00  0.00    +0.003 C 
BRANCH  20  22
ATOM     22  C   UNL     1      31.845 -10.626 -21.132  0.00  0.00    -0.025 C 
ATOM     23  C   UNL     1      32.180  -9.722 -22.120  0.00  0.00    -0.004 C 
ATOM     24  C   UNL     1      31.691 -10.250 -19.814  0.00  0.00    -0.004 C 
ATOM     25  C   UNL     1      32.369  -8.384 -21.774  0.00  0.00    -0.000 C 
ATOM     26  C   UNL     1      31.879  -8.912 -19.468  0.00  0.00    -0.000 C 
ATOM     27  C   UNL     1      32.218  -7.978 -20.447  0.00  0.00    -0.000 C 
ENDBRANCH  20  22
ENDBRANCH  19  20
ENDBRANCH   1  19
TORSDOF 6
ENDMDL
MODEL 5
REMARK VINA RESULT:     -10.5      2.035      3.868
REMARK  Name = 6425761
REMARK  6 active torsions:
REMARK  status: ('A' for Active; 'I' for Inactive)
REMARK    1  A    between atoms: N_1  and  C_19
REMARK    2  A    between atoms: C_2  and  N_9
REMARK    3  A    between atoms: N_9  and  C_11
REMARK    4  A    between atoms: C_10  and  C_17
REMARK    5  A    between atoms: C_19  and  C_20
REMARK    6  A    between atoms: C_20  and  C_22
REMARK                            x       y       z     vdW  Elec       q    Type
REMARK                         _______ _______ _______ _____ _____    ______ ____
ROOT
ATOM      1  N   UNL     1      34.808 -16.287 -23.298  0.00  0.00    +0.387 N 
ATOM      2  C   UNL     1      33.149 -13.880 -23.180  0.00  0.00    +0.076 C 
ATOM      3  C   UNL     1      33.560 -14.523 -24.505  0.00  0.00    -0.003 C 
ATOM      4  C   UNL     1      34.158 -14.231 -22.086  0.00  0.00    -0.003 C 
ATOM      5  C   UNL     1      33.806 -16.024 -24.341  0.00  0.00    -0.076 C 
ATOM      6  C   UNL     1      34.382 -15.742 -22.002  0.00  0.00    -0.076 C 
ATOM      7  H   UNL     1      35.673 -15.818 -23.567  0.00  0.00    -0.080 HD
ENDROOT
BRANCH   2   9
ATOM      8  O   UNL     1      31.391 -12.099 -21.630  0.00  0.00    -0.275 OA
ATOM      9  N   UNL     1      33.012 -12.452 -23.323  0.00  0.00    -0.260 N 
ATOM     10  C   UNL     1      32.129 -11.670 -22.521  0.00  0.00    +0.229 C 
BRANCH   9  11
ATOM     11  C   UNL     1      33.817 -11.774 -24.337  0.00  0.00    +0.054 C 
ATOM     12  C   UNL     1      33.710 -12.212 -25.624  0.00  0.00    +0.015 C 
ATOM     13  C   UNL     1      34.621 -10.752 -23.927  0.00  0.00    +0.015 C 
ATOM     14  C   UNL     1      34.478 -11.565 -26.593  0.00  0.00    +0.001 C 
ATOM     15  C   UNL     1      35.388 -10.106 -24.896  0.00  0.00    +0.001 C 
ATOM     16  C   UNL     1      35.317 -10.513 -26.228  0.00  0.00    +0.000 C 
ENDBRANCH   9  11
BRANCH  10  17
ATOM     17  C   UNL     1      32.097 -10.183 -22.861  0.00  0.00    +0.086 C 
ATOM     18  C   UNL     1      31.959  -9.299 -21.630  0.00  0.00    +0.010 C 
ENDBRANCH  10  17
ENDBRANCH   2   9
BRANCH   1  19
ATOM     19  C   UNL     1      35.068 -17.722 -23.188  0.00  0.00    -0.073 C 
BRANCH  19  20
ATOM     20  C   UNL     1      35.744 -18.092 -21.853  0.00  0.00    +0.002 C 
ATOM     21  C   UNL     1      37.204 -18.530 -22.025  0.00  0.00    +0.003 C 
BRANCH  20  22
ATOM     22  C   UNL     1      34.943 -19.164 -21.128  0.00  0.00    -0.025 C 
ATOM     23  C   UNL     1      33.565 -19.108 -21.167  0.00  0.00    -0.004 C 
ATOM     24  C   UNL     1      35.619 -20.161 -20.455  0.00  0.00    -0.004 C 
ATOM     25  C   UNL     1      32.831 -20.091 -20.503  0.00  0.00    -0.000 C 
ATOM     26  C   UNL     1      34.885 -21.144 -19.791  0.00  0.00    -0.000 C 
ATOM     27  C   UNL     1      33.491 -21.109 -19.815  0.00  0.00    -0.000 C 
ENDBRANCH  20  22
ENDBRANCH  19  20
ENDBRANCH   1  19
TORSDOF 6
ENDMDL
MODEL 6
REMARK VINA RESULT:     -10.4      2.626      4.672
REMARK  Name = 6425761
REMARK  6 active torsions:
REMARK  status: ('A' for Active; 'I' for Inactive)
REMARK    1  A    between atoms: N_1  and  C_19
REMARK    2  A    between atoms: C_2  and  N_9
REMARK    3  A    between atoms: N_9  and  C_11
REMARK    4  A    between atoms: C_10  and  C_17
REMARK    5  A    between atoms: C_19  and  C_20
REMARK    6  A    between atoms: C_20  and  C_22
REMARK                            x       y       z     vdW  Elec       q    Type
REMARK                         _______ _______ _______ _____ _____    ______ ____
ROOT
ATOM      1  N   UNL     1      34.140 -22.102 -19.627  0.00  0.00    +0.387 N 
ATOM      2  C   UNL     1      34.251 -19.312 -20.501  0.00  0.00    +0.076 C 
ATOM      3  C   UNL     1      32.970 -20.142 -20.581  0.00  0.00    -0.003 C 
ATOM      4  C   UNL     1      35.476 -20.228 -20.532  0.00  0.00    -0.003 C 
ATOM      5  C   UNL     1      32.953 -21.242 -19.519  0.00  0.00    -0.076 C 
ATOM      6  C   UNL     1      35.376 -21.324 -19.470  0.00  0.00    -0.076 C 
ATOM      7  H   UNL     1      34.145 -22.516 -20.560  0.00  0.00    -0.080 HD
ENDROOT
BRANCH   2   9
ATOM      8  O   UNL     1      35.018 -19.784 -23.302  0.00  0.00    -0.275 OA
ATOM      9  N   UNL     1      34.302 -18.341 -21.564  0.00  0.00    -0.260 N 
ATOM     10  C   UNL     1      34.688 -18.666 -22.898  0.00  0.00    +0.229 C 
BRANCH   9  11
ATOM     11  C   UNL     1      33.940 -16.957 -21.261  0.00  0.00    +0.054 C 
ATOM     12  C   UNL     1      34.954 -16.078 -21.023  0.00  0.00    +0.015 C 
ATOM     13  C   UNL     1      32.614 -16.642 -21.236  0.00  0.00    +0.015 C 
ATOM     14  C   UNL     1      34.610 -14.758 -20.733  0.00  0.00    +0.001 C 
ATOM     15  C   UNL     1      32.270 -15.321 -20.946  0.00  0.00    +0.001 C 
ATOM     16  C   UNL     1      33.268 -14.380 -20.694  0.00  0.00    +0.000 C 
ENDBRANCH   9  11
BRANCH  10  17
ATOM     17  C   UNL     1      34.721 -17.486 -23.865  0.00  0.00    +0.086 C 
ATOM     18  C   UNL     1      34.333 -17.874 -25.284  0.00  0.00    +0.010 C 
ENDBRANCH  10  17
ENDBRANCH   2   9
BRANCH   1  19
ATOM     19  C   UNL     1      34.084 -23.179 -18.638  0.00  0.00    -0.073 C 
BRANCH  19  20
ATOM     20  C   UNL     1      34.239 -22.655 -17.196  0.00  0.00    +0.002 C 
ATOM     21  C   UNL     1      35.625 -22.945 -16.603  0.00  0.00    +0.003 C 
BRANCH  20  22
ATOM     22  C   UNL     1      33.144 -23.217 -16.302  0.00  0.00    -0.025 C 
ATOM     23  C   UNL     1      33.496 -23.796 -15.100  0.00  0.00    -0.004 C 
ATOM     24  C   UNL     1      31.831 -23.131 -16.720  0.00  0.00    -0.004 C 
ATOM     25  C   UNL     1      32.492 -24.311 -14.280  0.00  0.00    -0.000 C 
ATOM     26  C   UNL     1      30.828 -23.646 -15.900  0.00  0.00    -0.000 C 
ATOM     27  C   UNL     1      31.157 -24.236 -14.680  0.00  0.00    -0.000 C 
ENDBRANCH  20  22
ENDBRANCH  19  20
ENDBRANCH   1  19
TORSDOF 6
ENDMDL
MODEL 7
REMARK VINA RESULT:     -10.3      3.603      6.721
REMARK  Name = 6425761
REMARK  6 active torsions:
REMARK  status: ('A' for Active; 'I' for Inactive)
REMARK    1  A    between atoms: N_1  and  C_19
REMARK    2  A    between atoms: C_2  and  N_9
REMARK    3  A    between atoms: N_9  and  C_11
REMARK    4  A    between atoms: C_10  and  C_17
REMARK    5  A    between atoms: C_19  and  C_20
REMARK    6  A    between atoms: C_20  and  C_22
REMARK                            x       y       z     vdW  Elec       q    Type
REMARK                         _______ _______ _______ _____ _____    ______ ____
ROOT
ATOM      1  N   UNL     1      32.941 -13.063 -22.883  0.00  0.00    +0.387 N 
ATOM      2  C   UNL     1      32.382 -10.192 -22.963  0.00  0.00    +0.076 C 
ATOM      3  C   UNL     1      33.616 -10.802 -23.627  0.00  0.00    -0.003 C 
ATOM      4  C   UNL     1      31.901 -11.087 -21.819  0.00  0.00    -0.003 C 
ATOM      5  C   UNL     1      33.367 -12.255 -24.035  0.00  0.00    -0.076 C 
ATOM      6  C   UNL     1      31.709 -12.530 -22.288  0.00  0.00    -0.076 C 
ATOM      7  H   UNL     1      33.676 -13.018 -22.177  0.00  0.00    -0.080 HD
ENDROOT
BRANCH   2   9
ATOM      8  O   UNL     1      32.351  -9.240 -20.178  0.00  0.00    -0.275 OA
ATOM      9  N   UNL     1      32.656  -8.856 -22.497  0.00  0.00    -0.260 N 
ATOM     10  C   UNL     1      32.617  -8.488 -21.119  0.00  0.00    +0.229 C 
BRANCH   9  11
ATOM     11  C   UNL     1      32.990  -7.830 -23.483  0.00  0.00    +0.054 C 
ATOM     12  C   UNL     1      34.307  -7.654 -23.789  0.00  0.00    +0.015 C 
ATOM     13  C   UNL     1      31.963  -7.119 -24.027  0.00  0.00    +0.015 C 
ATOM     14  C   UNL     1      34.627  -6.675 -24.730  0.00  0.00    +0.001 C 
ATOM     15  C   UNL     1      32.283  -6.140 -24.968  0.00  0.00    +0.001 C 
ATOM     16  C   UNL     1      33.614  -5.918 -25.318  0.00  0.00    +0.000 C 
ENDBRANCH   9  11
BRANCH  10  17
ATOM     17  C   UNL     1      32.892  -7.013 -20.838  0.00  0.00    +0.086 C 
ATOM     18  C   UNL     1      31.620  -6.194 -20.686  0.00  0.00    +0.010 C 
ENDBRANCH  10  17
ENDBRANCH   2   9
BRANCH   1  19
ATOM     19  C   UNL     1      32.756 -14.459 -23.278  0.00  0.00    -0.073 C 
BRANCH  19  20
ATOM     20  C   UNL     1      34.009 -15.043 -23.960  0.00  0.00    +0.002 C 
ATOM     21  C   UNL     1      33.750 -15.482 -25.408  0.00  0.00    +0.003 C 
BRANCH  20  22
ATOM     22  C   UNL     1      34.575 -16.195 -23.143  0.00  0.00    -0.025 C 
ATOM     23  C   UNL     1      34.630 -16.074 -21.769  0.00  0.00    -0.004 C 
ATOM     24  C   UNL     1      35.015 -17.327 -23.798  0.00  0.00    -0.004 C 
ATOM     25  C   UNL     1      35.148 -17.129 -21.019  0.00  0.00    -0.000 C 
ATOM     26  C   UNL     1      35.533 -18.382 -23.048  0.00  0.00    -0.000 C 
ATOM     27  C   UNL     1      35.600 -18.284 -21.658  0.00  0.00    -0.000 C 
ENDBRANCH  20  22
ENDBRANCH  19  20
ENDBRANCH   1  19
TORSDOF 6
ENDMDL
MODEL 8
REMARK VINA RESULT:     -10.3      1.478      2.401
REMARK  Name = 6425761
REMARK  6 active torsions:
REMARK  status: ('A' for Active; 'I' for Inactive)
REMARK    1  A    between atoms: N_1  and  C_19
REMARK    2  A    between atoms: C_2  and  N_9
REMARK    3  A    between atoms: N_9  and  C_11
REMARK    4  A    between atoms: C_10  and  C_17
REMARK    5  A    between atoms: C_19  and  C_20
REMARK    6  A    between atoms: C_20  and  C_22
REMARK                            x       y       z     vdW  Elec       q    Type
REMARK                         _______ _______ _______ _____ _____    ______ ____
ROOT
ATOM      1  N   UNL     1      35.303 -19.789 -21.021  0.00  0.00    +0.387 N 
ATOM      2  C   UNL     1      35.094 -17.557 -22.902  0.00  0.00    +0.076 C 
ATOM      3  C   UNL     1      35.433 -17.351 -21.425  0.00  0.00    -0.003 C 
ATOM      4  C   UNL     1      34.313 -18.859 -23.087  0.00  0.00    -0.003 C 
ATOM      5  C   UNL     1      36.123 -18.582 -20.836  0.00  0.00    -0.076 C 
ATOM      6  C   UNL     1      35.041 -20.040 -22.444  0.00  0.00    -0.076 C 
ATOM      7  H   UNL     1      34.407 -19.634 -20.558  0.00  0.00    -0.080 HD
ENDROOT
BRANCH   2   9
ATOM      8  O   UNL     1      34.662 -16.874 -25.731  0.00  0.00    -0.275 OA
ATOM      9  N   UNL     1      34.360 -16.432 -23.422  0.00  0.00    -0.260 N 
ATOM     10  C   UNL     1      34.204 -16.182 -24.818  0.00  0.00    +0.229 C 
BRANCH   9  11
ATOM     11  C   UNL     1      33.748 -15.502 -22.475  0.00  0.00    +0.054 C 
ATOM     12  C   UNL     1      32.791 -15.992 -21.639  0.00  0.00    +0.015 C 
ATOM     13  C   UNL     1      34.175 -14.207 -22.495  0.00  0.00    +0.015 C 
ATOM     14  C   UNL     1      32.205 -15.106 -20.735  0.00  0.00    +0.001 C 
ATOM     15  C   UNL     1      33.589 -13.321 -21.591  0.00  0.00    +0.001 C 
ATOM     16  C   UNL     1      32.605 -13.770 -20.712  0.00  0.00    +0.000 C 
ENDBRANCH   9  11
BRANCH  10  17
ATOM     17  C   UNL     1      33.432 -14.912 -25.163  0.00  0.00    +0.086 C 
ATOM     18  C   UNL     1      32.957 -14.884 -26.608  0.00  0.00    +0.010 C 
ENDBRANCH  10  17
ENDBRANCH   2   9
BRANCH   1  19
ATOM     19  C   UNL     1      35.953 -20.948 -20.408  0.00  0.00    -0.073 C 
BRANCH  19  20
ATOM     20  C   UNL     1      34.956 -21.834 -19.636  0.00  0.00    +0.002 C 
ATOM     21  C   UNL     1      33.539 -21.248 -19.604  0.00  0.00    +0.003 C 
BRANCH  20  22
ATOM     22  C   UNL     1      35.460 -22.101 -18.225  0.00  0.00    -0.025 C 
ATOM     23  C   UNL     1      36.717 -21.658 -17.871  0.00  0.00    -0.004 C 
ATOM     24  C   UNL     1      34.644 -22.779 -17.342  0.00  0.00    -0.004 C 
ATOM     25  C   UNL     1      37.179 -21.902 -16.578  0.00  0.00    -0.000 C 
ATOM     26  C   UNL     1      35.106 -23.023 -16.049  0.00  0.00    -0.000 C 
ATOM     27  C   UNL     1      36.374 -22.585 -15.666  0.00  0.00    -0.000 C 
ENDBRANCH  20  22
ENDBRANCH  19  20
ENDBRANCH   1  19
TORSDOF 6
ENDMDL
MODEL 9
REMARK VINA RESULT:     -10.3      3.697      6.834
REMARK  Name = 6425761
REMARK  6 active torsions:
REMARK  status: ('A' for Active; 'I' for Inactive)
REMARK    1  A    between atoms: N_1  and  C_19
REMARK    2  A    between atoms: C_2  and  N_9
REMARK    3  A    between atoms: N_9  and  C_11
REMARK    4  A    between atoms: C_10  and  C_17
REMARK    5  A    between atoms: C_19  and  C_20
REMARK    6  A    between atoms: C_20  and  C_22
REMARK                            x       y       z     vdW  Elec       q    Type
REMARK                         _______ _______ _______ _____ _____    ______ ____
ROOT
ATOM      1  N   UNL     1      33.631 -12.864 -23.326  0.00  0.00    +0.387 N 
ATOM      2  C   UNL     1      32.391 -10.214 -23.314  0.00  0.00    +0.076 C 
ATOM      3  C   UNL     1      33.804 -10.451 -23.847  0.00  0.00    -0.003 C 
ATOM      4  C   UNL     1      32.022 -11.293 -22.295  0.00  0.00    -0.003 C 
ATOM      5  C   UNL     1      33.970 -11.881 -24.364  0.00  0.00    -0.076 C 
ATOM      6  C   UNL     1      32.246 -12.695 -22.866  0.00  0.00    -0.076 C 
ATOM      7  H   UNL     1      34.249 -12.706 -22.529  0.00  0.00    -0.080 HD
ENDROOT
BRANCH   2   9
ATOM      8  O   UNL     1      31.828  -9.542 -20.505  0.00  0.00    -0.275 OA
ATOM      9  N   UNL     1      32.272  -8.897 -22.742  0.00  0.00    -0.260 N 
ATOM     10  C   UNL     1      31.996  -8.669 -21.361  0.00  0.00    +0.229 C 
BRANCH   9  11
ATOM     11  C   UNL     1      32.442  -7.739 -23.618  0.00  0.00    +0.054 C 
ATOM     12  C   UNL     1      31.316  -7.113 -24.063  0.00  0.00    +0.015 C 
ATOM     13  C   UNL     1      33.715  -7.366 -23.932  0.00  0.00    +0.015 C 
ATOM     14  C   UNL     1      31.478  -6.009 -24.899  0.00  0.00    +0.001 C 
ATOM     15  C   UNL     1      33.877  -6.262 -24.768  0.00  0.00    +0.001 C 
ATOM     16  C   UNL     1      32.758  -5.584 -25.252  0.00  0.00    +0.000 C 
ENDBRANCH   9  11
BRANCH  10  17
ATOM     17  C   UNL     1      31.863  -7.202 -20.963  0.00  0.00    +0.086 C 
ATOM     18  C   UNL     1      32.897  -6.774 -19.934  0.00  0.00    +0.010 C 
ENDBRANCH  10  17
ENDBRANCH   2   9
BRANCH   1  19
ATOM     19  C   UNL     1      33.843 -14.225 -23.820  0.00  0.00    -0.073 C 
BRANCH  19  20
ATOM     20  C   UNL     1      33.809 -15.269 -22.686  0.00  0.00    +0.002 C 
ATOM     21  C   UNL     1      34.660 -14.861 -21.476  0.00  0.00    +0.003 C 
BRANCH  20  22
ATOM     22  C   UNL     1      34.233 -16.635 -23.205  0.00  0.00    -0.025 C 
ATOM     23  C   UNL     1      34.240 -16.858 -24.566  0.00  0.00    -0.004 C 
ATOM     24  C   UNL     1      34.598 -17.610 -22.298  0.00  0.00    -0.004 C 
ATOM     25  C   UNL     1      34.629 -18.110 -25.042  0.00  0.00    -0.000 C 
ATOM     26  C   UNL     1      34.987 -18.862 -22.775  0.00  0.00    -0.000 C 
ATOM     27  C   UNL     1      35.002 -19.113 -24.147  0.00  0.00    -0.000 C 
ENDBRANCH  20  22
ENDBRANCH  19  20
ENDBRANCH   1  19
TORSDOF 6
ENDMDL
