MODEL 1
REMARK VINA RESULT:     -10.1      0.000      0.000
REMARK  Name = 23643565
REMARK  4 active torsions:
REMARK  status: ('A' for Active; 'I' for Inactive)
REMARK    1  A    between atoms: N_2  and  C_8
REMARK    2  A    between atoms: N_2  and  C_23
REMARK    3  A    between atoms: C_23  and  C_24
REMARK    4  A    between atoms: C_24  and  N_26
REMARK                            x       y       z     vdW  Elec       q    Type
REMARK                         _______ _______ _______ _____ _____    ______ ____
ROOT
ATOM      1  O   UNL     1      33.071 -22.278 -19.429  0.00  0.00    -0.209 OA
ATOM      2  N   UNL     1      34.303 -18.699 -23.072  0.00  0.00    -0.305 N 
ATOM      3  N   UNL     1      36.376 -18.012 -22.669  0.00  0.00    -0.305 N 
ATOM      4  N   UNL     1      36.807 -21.005 -18.749  0.00  0.00    -0.275 N 
ATOM      5  N   UNL     1      34.968 -22.392 -18.151  0.00  0.00    -0.302 NA
ATOM      6  N   UNL     1      36.973 -22.401 -16.938  0.00  0.00    -0.320 N 
ATOM      7  C   UNL     1      35.331 -17.883 -23.453  0.00  0.00    +0.208 C 
ATOM      8  C   UNL     1      34.713 -19.401 -21.967  0.00  0.00    +0.061 C 
ATOM      9  C   UNL     1      36.010 -18.955 -21.736  0.00  0.00    +0.061 C 
ATOM     10  C   UNL     1      36.127 -20.449 -19.838  0.00  0.00    +0.064 C 
ATOM     11  C   UNL     1      34.815 -20.874 -20.103  0.00  0.00    +0.110 C 
ATOM     12  C   UNL     1      34.074 -20.359 -21.177  0.00  0.00    +0.030 C 
ATOM     13  C   UNL     1      36.736 -19.484 -20.655  0.00  0.00    +0.031 C 
ATOM     14  C   UNL     1      34.217 -21.901 -19.204  0.00  0.00    +0.208 C 
ATOM     15  C   UNL     1      36.184 -21.950 -17.966  0.00  0.00    +0.248 C 
ATOM     16  H   UNL     1      33.425 -18.770 -23.511  0.00  0.00    +0.150 HD
ATOM     17  H   UNL     1      37.237 -17.538 -22.735  0.00  0.00    +0.150 HD
ATOM     18  H   UNL     1      37.727 -20.721 -18.546  0.00  0.00    +0.156 HD
ATOM     19  H   UNL     1      37.885 -22.049 -16.825  0.00  0.00    +0.146 HD
ATOM     20  H   UNL     1      36.628 -23.079 -16.314  0.00  0.00    +0.146 HD
ENDROOT
BRANCH   7  21
ATOM     21  N   UNL     1      35.151 -17.089 -24.531  0.00  0.00    -0.269 NA
ATOM     22  H   UNL     1      35.791 -17.177 -25.275  0.00  0.00    +0.126 HD
BRANCH  21  23
ATOM     23  C   UNL     1      34.075 -16.108 -24.676  0.00  0.00    +0.048 C 
BRANCH  23  24
ATOM     24  C   UNL     1      34.418 -14.852 -23.886  0.00  0.00    -0.060 C 
BRANCH  24  26
ATOM     25  O   UNL     1      32.450 -13.332 -20.504  0.00  0.00    -0.358 OA
ATOM     26  N   UNL     1      33.393 -14.589 -22.877  0.00  0.00    +0.391 N 
ATOM     27  C   UNL     1      33.039 -13.164 -22.852  0.00  0.00    -0.045 C 
ATOM     28  C   UNL     1      33.847 -15.019 -21.547  0.00  0.00    -0.045 C 
ATOM     29  C   UNL     1      31.978 -12.912 -21.784  0.00  0.00    +0.119 C 
ATOM     30  C   UNL     1      32.766 -14.724 -20.511  0.00  0.00    +0.119 C 
ATOM     31  H   UNL     1      32.564 -15.128 -23.127  0.00  0.00    -0.079 HD
ENDBRANCH  24  26
ENDBRANCH  23  24
ENDBRANCH  21  23
ENDBRANCH   7  21
TORSDOF 4
ENDMDL
MODEL 2
REMARK VINA RESULT:     -10.1      1.289      2.099
REMARK  Name = 23643565
REMARK  4 active torsions:
REMARK  status: ('A' for Active; 'I' for Inactive)
REMARK    1  A    between atoms: N_2  and  C_8
REMARK    2  A    between atoms: N_2  and  C_23
REMARK    3  A    between atoms: C_23  and  C_24
REMARK    4  A    between atoms: C_24  and  N_26
REMARK                            x       y       z     vdW  Elec       q    Type
REMARK                         _______ _______ _______ _____ _____    ______ ____
ROOT
ATOM      1  O   UNL     1      36.898 -22.083 -18.151  0.00  0.00    -0.209 OA
ATOM      2  N   UNL     1      36.054 -18.776 -22.145  0.00  0.00    -0.305 N 
ATOM      3  N   UNL     1      33.868 -18.736 -22.538  0.00  0.00    -0.305 N 
ATOM      4  N   UNL     1      32.965 -21.972 -18.902  0.00  0.00    -0.275 N 
ATOM      5  N   UNL     1      34.792 -22.815 -17.630  0.00  0.00    -0.302 NA
ATOM      6  N   UNL     1      32.582 -23.473 -17.211  0.00  0.00    -0.320 N 
ATOM      7  C   UNL     1      35.038 -18.265 -22.904  0.00  0.00    +0.208 C 
ATOM      8  C   UNL     1      35.502 -19.635 -21.230  0.00  0.00    +0.061 C 
ATOM      9  C   UNL     1      34.137 -19.593 -21.495  0.00  0.00    +0.061 C 
ATOM     10  C   UNL     1      33.794 -21.176 -19.699  0.00  0.00    +0.064 C 
ATOM     11  C   UNL     1      35.178 -21.193 -19.462  0.00  0.00    +0.110 C 
ATOM     12  C   UNL     1      36.068 -20.421 -20.224  0.00  0.00    +0.030 C 
ATOM     13  C   UNL     1      33.262 -20.373 -20.720  0.00  0.00    +0.031 C 
ATOM     14  C   UNL     1      35.690 -22.063 -18.366  0.00  0.00    +0.208 C 
ATOM     15  C   UNL     1      33.516 -22.748 -17.908  0.00  0.00    +0.248 C 
ATOM     16  H   UNL     1      37.011 -18.566 -22.240  0.00  0.00    +0.150 HD
ATOM     17  H   UNL     1      32.989 -18.523 -22.926  0.00  0.00    +0.150 HD
ATOM     18  H   UNL     1      31.993 -21.975 -19.051  0.00  0.00    +0.156 HD
ATOM     19  H   UNL     1      31.628 -23.401 -17.445  0.00  0.00    +0.146 HD
ATOM     20  H   UNL     1      32.865 -24.064 -16.478  0.00  0.00    +0.146 HD
ENDROOT
BRANCH   7  21
ATOM     21  N   UNL     1      35.349 -17.387 -23.882  0.00  0.00    -0.269 NA
ATOM     22  H   UNL     1      36.269 -17.403 -24.234  0.00  0.00    +0.126 HD
BRANCH  21  23
ATOM     23  C   UNL     1      34.420 -16.413 -24.457  0.00  0.00    +0.048 C 
BRANCH  23  24
ATOM     24  C   UNL     1      34.640 -15.052 -23.810  0.00  0.00    -0.060 C 
BRANCH  24  26
ATOM     25  O   UNL     1      32.488 -13.388 -20.614  0.00  0.00    -0.358 OA
ATOM     26  N   UNL     1      33.566 -14.759 -22.863  0.00  0.00    +0.391 N 
ATOM     27  C   UNL     1      33.172 -13.346 -22.941  0.00  0.00    -0.045 C 
ATOM     28  C   UNL     1      33.974 -15.093 -21.491  0.00  0.00    -0.045 C 
ATOM     29  C   UNL     1      32.060 -13.061 -21.936  0.00  0.00    +0.119 C 
ATOM     30  C   UNL     1      32.842 -14.767 -20.521  0.00  0.00    +0.119 C 
ATOM     31  H   UNL     1      32.763 -15.336 -23.113  0.00  0.00    -0.079 HD
ENDBRANCH  24  26
ENDBRANCH  23  24
ENDBRANCH  21  23
ENDBRANCH   7  21
TORSDOF 4
ENDMDL
MODEL 3
REMARK VINA RESULT:     -10.0      3.615      8.555
REMARK  Name = 23643565
REMARK  4 active torsions:
REMARK  status: ('A' for Active; 'I' for Inactive)
REMARK    1  A    between atoms: N_2  and  C_8
REMARK    2  A    between atoms: N_2  and  C_23
REMARK    3  A    between atoms: C_23  and  C_24
REMARK    4  A    between atoms: C_24  and  N_26
REMARK                            x       y       z     vdW  Elec       q    Type
REMARK                         _______ _______ _______ _____ _____    ______ ____
ROOT
ATOM      1  O   UNL     1      37.866 -19.046 -21.324  0.00  0.00    -0.209 OA
ATOM      2  N   UNL     1      35.073 -22.405 -18.406  0.00  0.00    -0.305 N 
ATOM      3  N   UNL     1      32.928 -22.100 -18.894  0.00  0.00    -0.305 N 
ATOM      4  N   UNL     1      33.983 -18.540 -22.167  0.00  0.00    -0.275 N 
ATOM      5  N   UNL     1      36.258 -17.939 -22.522  0.00  0.00    -0.302 NA
ATOM      6  N   UNL     1      34.506 -16.894 -23.675  0.00  0.00    -0.320 N 
ATOM      7  C   UNL     1      33.782 -22.783 -18.167  0.00  0.00    +0.208 C 
ATOM      8  C   UNL     1      35.050 -21.410 -19.349  0.00  0.00    +0.061 C 
ATOM      9  C   UNL     1      33.700 -21.239 -19.638  0.00  0.00    +0.061 C 
ATOM     10  C   UNL     1      34.313 -19.512 -21.217  0.00  0.00    +0.064 C 
ATOM     11  C   UNL     1      35.665 -19.714 -20.898  0.00  0.00    +0.110 C 
ATOM     12  C   UNL     1      36.068 -20.670 -19.954  0.00  0.00    +0.030 C 
ATOM     13  C   UNL     1      33.317 -20.275 -20.587  0.00  0.00    +0.031 C 
ATOM     14  C   UNL     1      36.682 -18.875 -21.596  0.00  0.00    +0.208 C 
ATOM     15  C   UNL     1      34.981 -17.807 -22.768  0.00  0.00    +0.248 C 
ATOM     16  H   UNL     1      35.876 -22.778 -17.976  0.00  0.00    +0.150 HD
ATOM     17  H   UNL     1      31.947 -22.187 -18.904  0.00  0.00    +0.150 HD
ATOM     18  H   UNL     1      33.042 -18.382 -22.405  0.00  0.00    +0.156 HD
ATOM     19  H   UNL     1      33.538 -16.819 -23.838  0.00  0.00    +0.146 HD
ATOM     20  H   UNL     1      35.134 -16.314 -24.164  0.00  0.00    +0.146 HD
ENDROOT
BRANCH   7  21
ATOM     21  N   UNL     1      33.559 -23.761 -17.261  0.00  0.00    -0.269 NA
ATOM     22  H   UNL     1      33.131 -24.589 -17.578  0.00  0.00    +0.126 HD
BRANCH  21  23
ATOM     23  C   UNL     1      33.907 -23.679 -15.842  0.00  0.00    +0.048 C 
BRANCH  23  24
ATOM     24  C   UNL     1      32.707 -23.178 -15.049  0.00  0.00    -0.060 C 
BRANCH  24  26
ATOM     25  O   UNL     1      28.760 -24.604 -15.124  0.00  0.00    -0.358 OA
ATOM     26  N   UNL     1      31.498 -23.894 -15.448  0.00  0.00    +0.391 N 
ATOM     27  C   UNL     1      30.417 -22.954 -15.773  0.00  0.00    -0.045 C 
ATOM     28  C   UNL     1      31.062 -24.815 -14.389  0.00  0.00    -0.045 C 
ATOM     29  C   UNL     1      29.163 -23.724 -16.175  0.00  0.00    +0.119 C 
ATOM     30  C   UNL     1      29.793 -25.542 -14.824  0.00  0.00    +0.119 C 
ATOM     31  H   UNL     1      31.719 -24.439 -16.282  0.00  0.00    -0.079 HD
ENDBRANCH  24  26
ENDBRANCH  23  24
ENDBRANCH  21  23
ENDBRANCH   7  21
TORSDOF 4
ENDMDL
MODEL 4
REMARK VINA RESULT:      -9.9      3.396      6.002
REMARK  Name = 23643565
REMARK  4 active torsions:
REMARK  status: ('A' for Active; 'I' for Inactive)
REMARK    1  A    between atoms: N_2  and  C_8
REMARK    2  A    between atoms: N_2  and  C_23
REMARK    3  A    between atoms: C_23  and  C_24
REMARK    4  A    between atoms: C_24  and  N_26
REMARK                            x       y       z     vdW  Elec       q    Type
REMARK                         _______ _______ _______ _____ _____    ______ ____
ROOT
ATOM      1  O   UNL     1      34.930 -17.355 -24.635  0.00  0.00    -0.209 OA
ATOM      2  N   UNL     1      32.180 -13.257 -22.833  0.00  0.00    -0.305 N 
ATOM      3  N   UNL     1      32.364 -13.241 -20.619  0.00  0.00    -0.305 N 
ATOM      4  N   UNL     1      35.229 -17.278 -20.641  0.00  0.00    -0.275 N 
ATOM      5  N   UNL     1      35.768 -18.298 -22.723  0.00  0.00    -0.302 NA
ATOM      6  N   UNL     1      36.553 -19.150 -20.686  0.00  0.00    -0.320 N 
ATOM      7  C   UNL     1      31.843 -12.637 -21.662  0.00  0.00    +0.208 C 
ATOM      8  C   UNL     1      32.971 -14.333 -22.524  0.00  0.00    +0.061 C 
ATOM      9  C   UNL     1      33.072 -14.302 -21.137  0.00  0.00    +0.061 C 
ATOM     10  C   UNL     1      34.465 -16.276 -21.248  0.00  0.00    +0.064 C 
ATOM     11  C   UNL     1      34.339 -16.275 -22.646  0.00  0.00    +0.110 C 
ATOM     12  C   UNL     1      33.588 -15.301 -23.320  0.00  0.00    +0.030 C 
ATOM     13  C   UNL     1      33.830 -15.286 -20.480  0.00  0.00    +0.031 C 
ATOM     14  C   UNL     1      35.033 -17.349 -23.412  0.00  0.00    +0.208 C 
ATOM     15  C   UNL     1      35.840 -18.235 -21.419  0.00  0.00    +0.248 C 
ATOM     16  H   UNL     1      31.903 -12.980 -23.736  0.00  0.00    +0.150 HD
ATOM     17  H   UNL     1      32.270 -12.989 -19.672  0.00  0.00    +0.150 HD
ATOM     18  H   UNL     1      35.330 -17.298 -19.663  0.00  0.00    +0.156 HD
ATOM     19  H   UNL     1      36.588 -19.076 -19.706  0.00  0.00    +0.146 HD
ATOM     20  H   UNL     1      37.030 -19.881 -21.141  0.00  0.00    +0.146 HD
ENDROOT
BRANCH   7  21
ATOM     21  N   UNL     1      31.057 -11.540 -21.723  0.00  0.00    -0.269 NA
ATOM     22  H   UNL     1      30.090 -11.677 -21.843  0.00  0.00    +0.126 HD
BRANCH  21  23
ATOM     23  C   UNL     1      31.539 -10.161 -21.621  0.00  0.00    +0.048 C 
BRANCH  23  24
ATOM     24  C   UNL     1      31.212  -9.409 -22.905  0.00  0.00    -0.060 C 
BRANCH  24  26
ATOM     25  O   UNL     1      35.251  -8.498 -23.593  0.00  0.00    -0.358 OA
ATOM     26  N   UNL     1      32.438  -8.933 -23.541  0.00  0.00    +0.391 N 
ATOM     27  C   UNL     1      33.383 -10.040 -23.747  0.00  0.00    -0.045 C 
ATOM     28  C   UNL     1      33.068  -7.876 -22.737  0.00  0.00    -0.045 C 
ATOM     29  C   UNL     1      34.659  -9.517 -24.401  0.00  0.00    +0.119 C 
ATOM     30  C   UNL     1      34.351  -7.405 -23.415  0.00  0.00    +0.119 C 
ATOM     31  H   UNL     1      32.188  -8.544 -24.451  0.00  0.00    -0.079 HD
ENDBRANCH  24  26
ENDBRANCH  23  24
ENDBRANCH  21  23
ENDBRANCH   7  21
TORSDOF 4
ENDMDL
MODEL 5
REMARK VINA RESULT:      -9.9      3.727      9.430
REMARK  Name = 23643565
REMARK  4 active torsions:
REMARK  status: ('A' for Active; 'I' for Inactive)
REMARK    1  A    between atoms: N_2  and  C_8
REMARK    2  A    between atoms: N_2  and  C_23
REMARK    3  A    between atoms: C_23  and  C_24
REMARK    4  A    between atoms: C_24  and  N_26
REMARK                            x       y       z     vdW  Elec       q    Type
REMARK                         _______ _______ _______ _____ _____    ______ ____
ROOT
ATOM      1  O   UNL     1      37.871 -19.067 -21.248  0.00  0.00    -0.209 OA
ATOM      2  N   UNL     1      35.158 -22.381 -18.204  0.00  0.00    -0.305 N 
ATOM      3  N   UNL     1      33.014 -22.202 -18.756  0.00  0.00    -0.305 N 
ATOM      4  N   UNL     1      33.991 -18.786 -22.203  0.00  0.00    -0.275 N 
ATOM      5  N   UNL     1      36.245 -18.103 -22.541  0.00  0.00    -0.302 NA
ATOM      6  N   UNL     1      34.478 -17.205 -23.790  0.00  0.00    -0.320 N 
ATOM      7  C   UNL     1      33.879 -22.804 -17.973  0.00  0.00    +0.208 C 
ATOM      8  C   UNL     1      35.114 -21.443 -19.203  0.00  0.00    +0.061 C 
ATOM      9  C   UNL     1      33.766 -21.349 -19.531  0.00  0.00    +0.061 C 
ATOM     10  C   UNL     1      34.340 -19.688 -21.191  0.00  0.00    +0.064 C 
ATOM     11  C   UNL     1      35.692 -19.809 -20.832  0.00  0.00    +0.110 C 
ATOM     12  C   UNL     1      36.113 -20.692 -19.827  0.00  0.00    +0.030 C 
ATOM     13  C   UNL     1      33.363 -20.459 -20.541  0.00  0.00    +0.031 C 
ATOM     14  C   UNL     1      36.687 -18.966 -21.554  0.00  0.00    +0.208 C 
ATOM     15  C   UNL     1      34.970 -18.044 -22.822  0.00  0.00    +0.248 C 
ATOM     16  H   UNL     1      35.966 -22.693 -17.737  0.00  0.00    +0.150 HD
ATOM     17  H   UNL     1      32.038 -22.333 -18.783  0.00  0.00    +0.150 HD
ATOM     18  H   UNL     1      33.049 -18.685 -22.470  0.00  0.00    +0.156 HD
ATOM     19  H   UNL     1      33.512 -17.183 -23.978  0.00  0.00    +0.146 HD
ATOM     20  H   UNL     1      35.090 -16.625 -24.297  0.00  0.00    +0.146 HD
ENDROOT
BRANCH   7  21
ATOM     21  N   UNL     1      33.677 -23.738 -17.018  0.00  0.00    -0.269 NA
ATOM     22  H   UNL     1      33.150 -24.534 -17.261  0.00  0.00    +0.126 HD
BRANCH  21  23
ATOM     23  C   UNL     1      34.186 -23.656 -15.648  0.00  0.00    +0.048 C 
BRANCH  23  24
ATOM     24  C   UNL     1      35.287 -24.689 -15.448  0.00  0.00    -0.060 C 
BRANCH  24  26
ATOM     25  O   UNL     1      36.300 -25.409 -11.439  0.00  0.00    -0.358 OA
ATOM     26  N   UNL     1      35.881 -24.549 -14.120  0.00  0.00    +0.391 N 
ATOM     27  C   UNL     1      36.738 -25.701 -13.808  0.00  0.00    -0.045 C 
ATOM     28  C   UNL     1      34.838 -24.405 -13.094  0.00  0.00    -0.045 C 
ATOM     29  C   UNL     1      37.336 -25.539 -12.413  0.00  0.00    +0.119 C 
ATOM     30  C   UNL     1      35.482 -24.273 -11.717  0.00  0.00    +0.119 C 
ATOM     31  H   UNL     1      36.455 -23.706 -14.121  0.00  0.00    -0.079 HD
ENDBRANCH  24  26
ENDBRANCH  23  24
ENDBRANCH  21  23
ENDBRANCH   7  21
TORSDOF 4
ENDMDL
MODEL 6
REMARK VINA RESULT:      -9.8      3.876      6.208
REMARK  Name = 23643565
REMARK  4 active torsions:
REMARK  status: ('A' for Active; 'I' for Inactive)
REMARK    1  A    between atoms: N_2  and  C_8
REMARK    2  A    between atoms: N_2  and  C_23
REMARK    3  A    between atoms: C_23  and  C_24
REMARK    4  A    between atoms: C_24  and  N_26
REMARK                            x       y       z     vdW  Elec       q    Type
REMARK                         _______ _______ _______ _____ _____    ______ ____
ROOT
ATOM      1  O   UNL     1      35.071 -17.614 -24.663  0.00  0.00    -0.209 OA
ATOM      2  N   UNL     1      32.300 -13.443 -23.072  0.00  0.00    -0.305 N 
ATOM      3  N   UNL     1      32.451 -13.337 -20.858  0.00  0.00    -0.305 N 
ATOM      4  N   UNL     1      35.311 -17.373 -20.672  0.00  0.00    -0.275 N 
ATOM      5  N   UNL     1      35.879 -18.478 -22.702  0.00  0.00    -0.302 NA
ATOM      6  N   UNL     1      36.633 -19.247 -20.621  0.00  0.00    -0.320 N 
ATOM      7  C   UNL     1      31.946 -12.776 -21.933  0.00  0.00    +0.208 C 
ATOM      8  C   UNL     1      33.085 -14.507 -22.708  0.00  0.00    +0.061 C 
ATOM      9  C   UNL     1      33.165 -14.419 -21.322  0.00  0.00    +0.061 C 
ATOM     10  C   UNL     1      34.557 -16.396 -21.330  0.00  0.00    +0.064 C 
ATOM     11  C   UNL     1      34.452 -16.453 -22.729  0.00  0.00    +0.110 C 
ATOM     12  C   UNL     1      33.712 -15.507 -23.454  0.00  0.00    +0.030 C 
ATOM     13  C   UNL     1      33.912 -15.376 -20.614  0.00  0.00    +0.031 C 
ATOM     14  C   UNL     1      35.156 -17.558 -23.440  0.00  0.00    +0.208 C 
ATOM     15  C   UNL     1      35.932 -18.362 -21.401  0.00  0.00    +0.248 C 
ATOM     16  H   UNL     1      32.037 -13.204 -23.990  0.00  0.00    +0.150 HD
ATOM     17  H   UNL     1      32.343 -13.047 -19.924  0.00  0.00    +0.150 HD
ATOM     18  H   UNL     1      35.398 -17.353 -19.692  0.00  0.00    +0.156 HD
ATOM     19  H   UNL     1      36.654 -19.132 -19.644  0.00  0.00    +0.146 HD
ATOM     20  H   UNL     1      37.116 -19.995 -21.039  0.00  0.00    +0.146 HD
ENDROOT
BRANCH   7  21
ATOM     21  N   UNL     1      31.163 -11.681 -22.050  0.00  0.00    -0.269 NA
ATOM     22  H   UNL     1      30.256 -11.806 -22.412  0.00  0.00    +0.126 HD
BRANCH  21  23
ATOM     23  C   UNL     1      31.563 -10.324 -21.677  0.00  0.00    +0.048 C 
BRANCH  23  24
ATOM     24  C   UNL     1      32.355  -9.694 -22.815  0.00  0.00    -0.060 C 
BRANCH  24  26
ATOM     25  O   UNL     1      30.874  -5.820 -22.169  0.00  0.00    -0.358 OA
ATOM     26  N   UNL     1      32.259  -8.236 -22.756  0.00  0.00    +0.391 N 
ATOM     27  C   UNL     1      32.059  -7.782 -21.373  0.00  0.00    -0.045 C 
ATOM     28  C   UNL     1      31.165  -7.750 -23.609  0.00  0.00    -0.045 C 
ATOM     29  C   UNL     1      31.949  -6.261 -21.338  0.00  0.00    +0.119 C 
ATOM     30  C   UNL     1      31.076  -6.230 -23.521  0.00  0.00    +0.119 C 
ATOM     31  H   UNL     1      33.137  -7.851 -23.103  0.00  0.00    -0.079 HD
ENDBRANCH  24  26
ENDBRANCH  23  24
ENDBRANCH  21  23
ENDBRANCH   7  21
TORSDOF 4
ENDMDL
MODEL 7
REMARK VINA RESULT:      -9.7      2.728      4.965
REMARK  Name = 23643565
REMARK  4 active torsions:
REMARK  status: ('A' for Active; 'I' for Inactive)
REMARK    1  A    between atoms: N_2  and  C_8
REMARK    2  A    between atoms: N_2  and  C_23
REMARK    3  A    between atoms: C_23  and  C_24
REMARK    4  A    between atoms: C_24  and  N_26
REMARK                            x       y       z     vdW  Elec       q    Type
REMARK                         _______ _______ _______ _____ _____    ______ ____
ROOT
ATOM      1  O   UNL     1      34.568 -19.168 -24.701  0.00  0.00    -0.209 OA
ATOM      2  N   UNL     1      33.764 -13.978 -24.863  0.00  0.00    -0.305 N 
ATOM      3  N   UNL     1      34.129 -13.175 -22.825  0.00  0.00    -0.305 N 
ATOM      4  N   UNL     1      35.216 -17.665 -21.045  0.00  0.00    -0.275 N 
ATOM      5  N   UNL     1      35.142 -19.535 -22.515  0.00  0.00    -0.302 NA
ATOM      6  N   UNL     1      35.712 -19.758 -20.253  0.00  0.00    -0.320 N 
ATOM      7  C   UNL     1      33.792 -12.874 -24.058  0.00  0.00    +0.208 C 
ATOM      8  C   UNL     1      34.106 -15.064 -24.098  0.00  0.00    +0.061 C 
ATOM      9  C   UNL     1      34.329 -14.537 -22.831  0.00  0.00    +0.061 C 
ATOM     10  C   UNL     1      34.844 -16.767 -22.052  0.00  0.00    +0.064 C 
ATOM     11  C   UNL     1      34.609 -17.263 -23.345  0.00  0.00    +0.110 C 
ATOM     12  C   UNL     1      34.234 -16.421 -24.402  0.00  0.00    +0.030 C 
ATOM     13  C   UNL     1      34.706 -15.396 -21.784  0.00  0.00    +0.031 C 
ATOM     14  C   UNL     1      34.770 -18.727 -23.574  0.00  0.00    +0.208 C 
ATOM     15  C   UNL     1      35.344 -19.003 -21.338  0.00  0.00    +0.248 C 
ATOM     16  H   UNL     1      33.538 -13.992 -25.821  0.00  0.00    +0.150 HD
ATOM     17  H   UNL     1      34.220 -12.559 -22.062  0.00  0.00    +0.150 HD
ATOM     18  H   UNL     1      35.385 -17.339 -20.133  0.00  0.00    +0.156 HD
ATOM     19  H   UNL     1      35.857 -19.328 -19.379  0.00  0.00    +0.146 HD
ATOM     20  H   UNL     1      35.832 -20.730 -20.348  0.00  0.00    +0.146 HD
ENDROOT
BRANCH   7  21
ATOM     21  N   UNL     1      33.484 -11.677 -24.603  0.00  0.00    -0.269 NA
ATOM     22  H   UNL     1      33.054 -11.676 -25.489  0.00  0.00    +0.126 HD
BRANCH  21  23
ATOM     23  C   UNL     1      33.743 -10.381 -23.973  0.00  0.00    +0.048 C 
BRANCH  23  24
ATOM     24  C   UNL     1      32.446  -9.822 -23.403  0.00  0.00    -0.060 C 
BRANCH  24  26
ATOM     25  O   UNL     1      30.924 -10.219 -19.511  0.00  0.00    -0.358 OA
ATOM     26  N   UNL     1      32.340 -10.136 -21.979  0.00  0.00    +0.391 N 
ATOM     27  C   UNL     1      31.272 -11.116 -21.739  0.00  0.00    -0.045 C 
ATOM     28  C   UNL     1      32.093  -8.919 -21.193  0.00  0.00    -0.045 C 
ATOM     29  C   UNL     1      31.172 -11.418 -20.246  0.00  0.00    +0.119 C 
ATOM     30  C   UNL     1      31.974  -9.274 -19.714  0.00  0.00    +0.119 C 
ATOM     31  H   UNL     1      33.228 -10.541 -21.681  0.00  0.00    -0.079 HD
ENDBRANCH  24  26
ENDBRANCH  23  24
ENDBRANCH  21  23
ENDBRANCH   7  21
TORSDOF 4
ENDMDL
MODEL 8
REMARK VINA RESULT:      -9.6      1.824      8.096
REMARK  Name = 23643565
REMARK  4 active torsions:
REMARK  status: ('A' for Active; 'I' for Inactive)
REMARK    1  A    between atoms: N_2  and  C_8
REMARK    2  A    between atoms: N_2  and  C_23
REMARK    3  A    between atoms: C_23  and  C_24
REMARK    4  A    between atoms: C_24  and  N_26
REMARK                            x       y       z     vdW  Elec       q    Type
REMARK                         _______ _______ _______ _____ _____    ______ ____
ROOT
ATOM      1  O   UNL     1      32.582 -13.444 -22.191  0.00  0.00    -0.209 OA
ATOM      2  N   UNL     1      35.386 -17.602 -20.624  0.00  0.00    -0.305 N 
ATOM      3  N   UNL     1      36.028 -18.706 -22.441  0.00  0.00    -0.305 N 
ATOM      4  N   UNL     1      33.769 -15.473 -25.433  0.00  0.00    -0.275 N 
ATOM      5  N   UNL     1      32.603 -13.634 -24.473  0.00  0.00    -0.302 NA
ATOM      6  N   UNL     1      32.711 -13.958 -26.791  0.00  0.00    -0.320 N 
ATOM      7  C   UNL     1      36.066 -18.674 -21.129  0.00  0.00    +0.208 C 
ATOM      8  C   UNL     1      34.873 -16.895 -21.682  0.00  0.00    +0.061 C 
ATOM      9  C   UNL     1      35.288 -17.604 -22.804  0.00  0.00    +0.061 C 
ATOM     10  C   UNL     1      34.155 -15.974 -24.185  0.00  0.00    +0.064 C 
ATOM     11  C   UNL     1      33.755 -15.286 -23.029  0.00  0.00    +0.110 C 
ATOM     12  C   UNL     1      34.105 -15.731 -21.746  0.00  0.00    +0.030 C 
ATOM     13  C   UNL     1      34.927 -17.141 -24.082  0.00  0.00    +0.031 C 
ATOM     14  C   UNL     1      32.936 -14.052 -23.196  0.00  0.00    +0.208 C 
ATOM     15  C   UNL     1      33.012 -14.326 -25.504  0.00  0.00    +0.248 C 
ATOM     16  H   UNL     1      35.281 -17.378 -19.671  0.00  0.00    +0.150 HD
ATOM     17  H   UNL     1      36.440 -19.373 -23.037  0.00  0.00    +0.150 HD
ATOM     18  H   UNL     1      34.039 -15.940 -26.257  0.00  0.00    +0.156 HD
ATOM     19  H   UNL     1      33.034 -14.500 -27.547  0.00  0.00    +0.146 HD
ATOM     20  H   UNL     1      32.172 -13.152 -26.959  0.00  0.00    +0.146 HD
ENDROOT
BRANCH   7  21
ATOM     21  N   UNL     1      36.661 -19.521 -20.261  0.00  0.00    -0.269 NA
ATOM     22  H   UNL     1      37.312 -19.142 -19.627  0.00  0.00    +0.126 HD
BRANCH  21  23
ATOM     23  C   UNL     1      36.407 -20.961 -20.192  0.00  0.00    +0.048 C 
BRANCH  23  24
ATOM     24  C   UNL     1      34.934 -21.207 -19.893  0.00  0.00    -0.060 C 
BRANCH  24  26
ATOM     25  O   UNL     1      34.951 -23.681 -16.503  0.00  0.00    -0.358 OA
ATOM     26  N   UNL     1      34.766 -21.683 -18.522  0.00  0.00    +0.391 N 
ATOM     27  C   UNL     1      36.058 -22.071 -17.942  0.00  0.00    -0.045 C 
ATOM     28  C   UNL     1      33.832 -22.817 -18.474  0.00  0.00    -0.045 C 
ATOM     29  C   UNL     1      35.856 -22.576 -16.516  0.00  0.00    +0.119 C 
ATOM     30  C   UNL     1      33.682 -23.304 -17.036  0.00  0.00    +0.119 C 
ATOM     31  H   UNL     1      34.376 -20.918 -17.971  0.00  0.00    -0.079 HD
ENDBRANCH  24  26
ENDBRANCH  23  24
ENDBRANCH  21  23
ENDBRANCH   7  21
TORSDOF 4
ENDMDL
MODEL 9
REMARK VINA RESULT:      -9.6      3.647      5.669
REMARK  Name = 23643565
REMARK  4 active torsions:
REMARK  status: ('A' for Active; 'I' for Inactive)
REMARK    1  A    between atoms: N_2  and  C_8
REMARK    2  A    between atoms: N_2  and  C_23
REMARK    3  A    between atoms: C_23  and  C_24
REMARK    4  A    between atoms: C_24  and  N_26
REMARK                            x       y       z     vdW  Elec       q    Type
REMARK                         _______ _______ _______ _____ _____    ______ ____
ROOT
ATOM      1  O   UNL     1      34.972 -24.304 -13.659  0.00  0.00    -0.209 OA
ATOM      2  N   UNL     1      35.131 -22.118 -18.434  0.00  0.00    -0.305 N 
ATOM      3  N   UNL     1      33.044 -21.978 -19.182  0.00  0.00    -0.305 N 
ATOM      4  N   UNL     1      31.228 -24.026 -15.057  0.00  0.00    -0.275 N 
ATOM      5  N   UNL     1      32.735 -24.668 -13.330  0.00  0.00    -0.302 NA
ATOM      6  N   UNL     1      30.420 -24.979 -13.134  0.00  0.00    -0.320 N 
ATOM      7  C   UNL     1      34.305 -21.734 -19.453  0.00  0.00    +0.208 C 
ATOM      8  C   UNL     1      34.349 -22.646 -17.438  0.00  0.00    +0.061 C 
ATOM      9  C   UNL     1      33.051 -22.547 -17.929  0.00  0.00    +0.061 C 
ATOM     10  C   UNL     1      32.258 -23.554 -15.878  0.00  0.00    +0.064 C 
ATOM     11  C   UNL     1      33.581 -23.637 -15.418  0.00  0.00    +0.110 C 
ATOM     12  C   UNL     1      34.662 -23.184 -16.188  0.00  0.00    +0.030 C 
ATOM     13  C   UNL     1      31.982 -23.006 -17.141  0.00  0.00    +0.031 C 
ATOM     14  C   UNL     1      33.818 -24.228 -14.070  0.00  0.00    +0.208 C 
ATOM     15  C   UNL     1      31.529 -24.558 -13.824  0.00  0.00    +0.248 C 
ATOM     16  H   UNL     1      36.111 -22.032 -18.417  0.00  0.00    +0.150 HD
ATOM     17  H   UNL     1      32.262 -21.794 -19.751  0.00  0.00    +0.150 HD
ATOM     18  H   UNL     1      30.294 -23.977 -15.360  0.00  0.00    +0.156 HD
ATOM     19  H   UNL     1      29.526 -24.882 -13.533  0.00  0.00    +0.146 HD
ATOM     20  H   UNL     1      30.519 -25.377 -12.240  0.00  0.00    +0.146 HD
ENDROOT
BRANCH   7  21
ATOM     21  N   UNL     1      34.862 -21.182 -20.553  0.00  0.00    -0.269 NA
ATOM     22  H   UNL     1      35.215 -21.791 -21.242  0.00  0.00    +0.126 HD
BRANCH  21  23
ATOM     23  C   UNL     1      34.979 -19.743 -20.798  0.00  0.00    +0.048 C 
BRANCH  23  24
ATOM     24  C   UNL     1      34.910 -19.472 -22.295  0.00  0.00    -0.060 C 
BRANCH  24  26
ATOM     25  O   UNL     1      35.092 -15.355 -23.088  0.00  0.00    -0.358 OA
ATOM     26  N   UNL     1      34.513 -18.088 -22.544  0.00  0.00    +0.391 N 
ATOM     27  C   UNL     1      34.960 -17.647 -23.872  0.00  0.00    -0.045 C 
ATOM     28  C   UNL     1      35.055 -17.195 -21.509  0.00  0.00    -0.045 C 
ATOM     29  C   UNL     1      34.545 -16.197 -24.104  0.00  0.00    +0.119 C 
ATOM     30  C   UNL     1      34.638 -15.756 -21.796  0.00  0.00    +0.119 C 
ATOM     31  H   UNL     1      33.494 -18.044 -22.510  0.00  0.00    -0.079 HD
ENDBRANCH  24  26
ENDBRANCH  23  24
ENDBRANCH  21  23
ENDBRANCH   7  21
TORSDOF 4
ENDMDL
