MODEL 1
REMARK VINA RESULT:     -10.0      0.000      0.000
REMARK  Name = 2320
REMARK  12 active torsions:
REMARK  status: ('A' for Active; 'I' for Inactive)
REMARK    1  A    between atoms: C_1  and  N_5
REMARK    2  A    between atoms: C_2  and  S_18
REMARK    3  A    between atoms: C_2  and  C_27
REMARK    4  A    between atoms: N_5  and  C_7
REMARK    5  A    between atoms: C_7  and  C_11
REMARK    6  A    between atoms: S_18  and  C_20
REMARK    7  A    between atoms: C_20  and  C_21
REMARK    8  A    between atoms: C_27  and  C_28
REMARK    9  A    between atoms: C_28  and  O_29
REMARK   10  A    between atoms: O_29  and  P_30
REMARK   11  A    between atoms: P_30  and  O_32
REMARK   12  A    between atoms: P_30  and  O_34
REMARK                            x       y       z     vdW  Elec       q    Type
REMARK                         _______ _______ _______ _____ _____    ______ ____
ROOT
ATOM      1  C   UNL     1      34.170 -23.375 -15.521  0.00  0.00    +0.034 C 
ATOM      2  C   UNL     1      32.904 -23.439 -15.998  0.00  0.00    +0.022 C 
ATOM      3  C   UNL     1      35.222 -22.411 -15.998  0.00  0.00    +0.048 C 
ENDROOT
BRANCH   1   5
ATOM      4  O   UNL     1      34.820 -24.582 -12.231  0.00  0.00    -0.265 OA
ATOM      5  N   UNL     1      34.617 -24.225 -14.540  0.00  0.00    -0.250 N 
ATOM      6  C   UNL     1      34.467 -23.912 -13.196  0.00  0.00    +0.307 C 
BRANCH   5   7
ATOM      7  C   UNL     1      35.253 -25.470 -14.948  0.00  0.00    +0.130 C 
BRANCH   7  11
ATOM      8  N   UNL     1      38.813 -26.414 -14.037  0.00  0.00    -0.340 NA
ATOM      9  N   UNL     1      38.809 -24.218 -15.031  0.00  0.00    -0.186 NA
ATOM     10  N   UNL     1      36.781 -27.609 -13.772  0.00  0.00    -0.332 N 
ATOM     11  C   UNL     1      36.743 -25.425 -14.766  0.00  0.00    +0.062 C 
ATOM     12  C   UNL     1      37.474 -26.451 -14.203  0.00  0.00    +0.187 C 
ATOM     13  C   UNL     1      37.471 -24.322 -15.166  0.00  0.00    +0.111 C 
ATOM     14  C   UNL     1      39.408 -25.285 -14.468  0.00  0.00    +0.066 C 
ATOM     15  C   UNL     1      40.888 -25.208 -14.302  0.00  0.00    +0.129 C 
ATOM     16  H   UNL     1      37.277 -28.356 -13.366  0.00  0.00    +0.145 HD
ATOM     17  H   UNL     1      35.804 -27.667 -13.879  0.00  0.00    +0.145 HD
ENDBRANCH   7  11
ENDBRANCH   5   7
ENDBRANCH   1   5
BRANCH   2  18
ATOM     18  S   UNL     1      32.386 -22.383 -17.309  0.00  0.00    -0.049 S 
BRANCH  18  20
ATOM     19  O   UNL     1      33.789 -24.030 -18.820  0.00  0.00    -0.279 OA
ATOM     20  C   UNL     1      33.472 -22.866 -18.598  0.00  0.00    +0.225 C 
BRANCH  20  21
ATOM     21  C   UNL     1      34.071 -21.766 -19.396  0.00  0.00    +0.045 C 
ATOM     22  C   UNL     1      35.458 -21.664 -19.513  0.00  0.00    +0.004 C 
ATOM     23  C   UNL     1      33.248 -20.836 -20.030  0.00  0.00    +0.004 C 
ATOM     24  C   UNL     1      36.021 -20.631 -20.262  0.00  0.00    +0.000 C 
ATOM     25  C   UNL     1      33.811 -19.803 -20.780  0.00  0.00    +0.000 C 
ATOM     26  C   UNL     1      35.197 -19.700 -20.895  0.00  0.00    +0.000 C 
ENDBRANCH  20  21
ENDBRANCH  18  20
ENDBRANCH   2  18
BRANCH   2  27
ATOM     27  C   UNL     1      31.865 -24.428 -15.492  0.00  0.00    +0.067 C 
BRANCH  27  28
ATOM     28  C   UNL     1      30.560 -23.755 -15.066  0.00  0.00    +0.159 C 
BRANCH  28  29
ATOM     29  O   UNL     1      29.447 -24.335 -15.732  0.00  0.00    -0.273 OA
BRANCH  29  30
ATOM     30  P   UNL     1      28.443 -23.360 -16.542  0.00  0.00    +0.473 P 
ATOM     31  O   UNL     1      29.099 -22.187 -17.211  0.00  0.00    -0.227 OA
BRANCH  30  32
ATOM     32  O   UNL     1      27.684 -24.379 -17.542  0.00  0.00    -0.303 OA
ATOM     33  H   UNL     1      28.059 -25.268 -17.444  0.00  0.00    +0.222 HD
ENDBRANCH  30  32
BRANCH  30  34
ATOM     34  O   UNL     1      27.306 -22.989 -15.454  0.00  0.00    -0.303 OA
ATOM     35  H   UNL     1      26.732 -22.293 -15.812  0.00  0.00    +0.222 HD
ENDBRANCH  30  34
ENDBRANCH  29  30
ENDBRANCH  28  29
ENDBRANCH  27  28
ENDBRANCH   2  27
TORSDOF 12
ENDMDL
MODEL 2
REMARK VINA RESULT:      -9.3      8.111     11.087
REMARK  Name = 2320
REMARK  12 active torsions:
REMARK  status: ('A' for Active; 'I' for Inactive)
REMARK    1  A    between atoms: C_1  and  N_5
REMARK    2  A    between atoms: C_2  and  S_18
REMARK    3  A    between atoms: C_2  and  C_27
REMARK    4  A    between atoms: N_5  and  C_7
REMARK    5  A    between atoms: C_7  and  C_11
REMARK    6  A    between atoms: S_18  and  C_20
REMARK    7  A    between atoms: C_20  and  C_21
REMARK    8  A    between atoms: C_27  and  C_28
REMARK    9  A    between atoms: C_28  and  O_29
REMARK   10  A    between atoms: O_29  and  P_30
REMARK   11  A    between atoms: P_30  and  O_32
REMARK   12  A    between atoms: P_30  and  O_34
REMARK                            x       y       z     vdW  Elec       q    Type
REMARK                         _______ _______ _______ _____ _____    ______ ____
ROOT
ATOM      1  C   UNL     1      34.813 -16.612 -22.362  0.00  0.00    +0.034 C 
ATOM      2  C   UNL     1      34.490 -15.714 -23.324  0.00  0.00    +0.022 C 
ATOM      3  C   UNL     1      34.929 -16.299 -20.895  0.00  0.00    +0.048 C 
ENDROOT
BRANCH   1   5
ATOM      4  O   UNL     1      34.734 -19.678 -24.177  0.00  0.00    -0.265 OA
ATOM      5  N   UNL     1      35.086 -17.924 -22.662  0.00  0.00    -0.250 N 
ATOM      6  C   UNL     1      34.565 -18.523 -23.800  0.00  0.00    +0.307 C 
BRANCH   5   7
ATOM      7  C   UNL     1      35.941 -18.672 -21.751  0.00  0.00    +0.130 C 
BRANCH   7  11
ATOM      8  N   UNL     1      35.039 -21.465 -19.348  0.00  0.00    -0.340 NA
ATOM      9  N   UNL     1      33.015 -20.450 -20.174  0.00  0.00    -0.186 NA
ATOM     10  N   UNL     1      37.154 -20.671 -20.069  0.00  0.00    -0.332 N 
ATOM     11  C   UNL     1      35.157 -19.638 -20.910  0.00  0.00    +0.062 C 
ATOM     12  C   UNL     1      35.740 -20.595 -20.105  0.00  0.00    +0.187 C 
ATOM     13  C   UNL     1      33.777 -19.612 -20.905  0.00  0.00    +0.111 C 
ATOM     14  C   UNL     1      33.700 -21.338 -19.429  0.00  0.00    +0.066 C 
ATOM     15  C   UNL     1      32.891 -22.283 -18.606  0.00  0.00    +0.129 C 
ATOM     16  H   UNL     1      37.596 -21.344 -19.503  0.00  0.00    +0.145 HD
ATOM     17  H   UNL     1      37.694 -20.050 -20.610  0.00  0.00    +0.145 HD
ENDBRANCH   7  11
ENDBRANCH   5   7
ENDBRANCH   1   5
BRANCH   2  18
ATOM     18  S   UNL     1      34.219 -14.022 -22.914  0.00  0.00    -0.049 S 
BRANCH  18  20
ATOM     19  O   UNL     1      32.037 -15.139 -21.935  0.00  0.00    -0.279 OA
ATOM     20  C   UNL     1      32.694 -14.111 -22.050  0.00  0.00    +0.225 C 
BRANCH  20  21
ATOM     21  C   UNL     1      32.177 -12.830 -21.504  0.00  0.00    +0.045 C 
ATOM     22  C   UNL     1      31.812 -11.799 -22.371  0.00  0.00    +0.004 C 
ATOM     23  C   UNL     1      32.054 -12.658 -20.126  0.00  0.00    +0.004 C 
ATOM     24  C   UNL     1      31.325 -10.597 -21.859  0.00  0.00    +0.000 C 
ATOM     25  C   UNL     1      31.568 -11.456 -19.614  0.00  0.00    +0.000 C 
ATOM     26  C   UNL     1      31.204 -10.424 -20.480  0.00  0.00    +0.000 C 
ENDBRANCH  20  21
ENDBRANCH  18  20
ENDBRANCH   2  18
BRANCH   2  27
ATOM     27  C   UNL     1      34.381 -16.065 -24.799  0.00  0.00    +0.067 C 
BRANCH  27  28
ATOM     28  C   UNL     1      33.176 -15.416 -25.479  0.00  0.00    +0.159 C 
BRANCH  28  29
ATOM     29  O   UNL     1      33.516 -14.945 -26.777  0.00  0.00    -0.273 OA
BRANCH  29  30
ATOM     30  P   UNL     1      33.475 -13.353 -27.050  0.00  0.00    +0.473 P 
ATOM     31  O   UNL     1      33.573 -12.494 -25.823  0.00  0.00    -0.227 OA
BRANCH  30  32
ATOM     32  O   UNL     1      34.664 -13.143 -28.126  0.00  0.00    -0.303 OA
ATOM     33  H   UNL     1      35.222 -13.936 -28.150  0.00  0.00    +0.222 HD
ENDBRANCH  30  32
BRANCH  30  34
ATOM     34  O   UNL     1      32.135 -13.147 -27.932  0.00  0.00    -0.303 OA
ATOM     35  H   UNL     1      31.464 -12.692 -27.399  0.00  0.00    +0.222 HD
ENDBRANCH  30  34
ENDBRANCH  29  30
ENDBRANCH  28  29
ENDBRANCH  27  28
ENDBRANCH   2  27
TORSDOF 12
ENDMDL
MODEL 3
REMARK VINA RESULT:      -9.1      1.516      2.399
REMARK  Name = 2320
REMARK  12 active torsions:
REMARK  status: ('A' for Active; 'I' for Inactive)
REMARK    1  A    between atoms: C_1  and  N_5
REMARK    2  A    between atoms: C_2  and  S_18
REMARK    3  A    between atoms: C_2  and  C_27
REMARK    4  A    between atoms: N_5  and  C_7
REMARK    5  A    between atoms: C_7  and  C_11
REMARK    6  A    between atoms: S_18  and  C_20
REMARK    7  A    between atoms: C_20  and  C_21
REMARK    8  A    between atoms: C_27  and  C_28
REMARK    9  A    between atoms: C_28  and  O_29
REMARK   10  A    between atoms: O_29  and  P_30
REMARK   11  A    between atoms: P_30  and  O_32
REMARK   12  A    between atoms: P_30  and  O_34
REMARK                            x       y       z     vdW  Elec       q    Type
REMARK                         _______ _______ _______ _____ _____    ______ ____
ROOT
ATOM      1  C   UNL     1      33.784 -24.235 -15.838  0.00  0.00    +0.034 C 
ATOM      2  C   UNL     1      33.098 -23.482 -16.730  0.00  0.00    +0.022 C 
ATOM      3  C   UNL     1      34.937 -25.140 -16.179  0.00  0.00    +0.048 C 
ENDROOT
BRANCH   1   5
ATOM      4  O   UNL     1      31.984 -25.069 -12.877  0.00  0.00    -0.265 OA
ATOM      5  N   UNL     1      33.460 -24.248 -14.503  0.00  0.00    -0.250 N 
ATOM      6  C   UNL     1      32.375 -24.976 -14.036  0.00  0.00    +0.307 C 
BRANCH   5   7
ATOM      7  C   UNL     1      34.289 -23.476 -13.588  0.00  0.00    +0.130 C 
BRANCH   7  11
ATOM      8  N   UNL     1      38.016 -23.767 -14.235  0.00  0.00    -0.340 NA
ATOM      9  N   UNL     1      37.319 -25.579 -12.806  0.00  0.00    -0.186 NA
ATOM     10  N   UNL     1      36.436 -22.170 -14.995  0.00  0.00    -0.332 N 
ATOM     11  C   UNL     1      35.710 -23.961 -13.572  0.00  0.00    +0.062 C 
ATOM     12  C   UNL     1      36.738 -23.334 -14.247  0.00  0.00    +0.187 C 
ATOM     13  C   UNL     1      36.063 -25.091 -12.862  0.00  0.00    +0.111 C 
ATOM     14  C   UNL     1      38.233 -24.878 -13.506  0.00  0.00    +0.066 C 
ATOM     15  C   UNL     1      39.634 -25.387 -13.469  0.00  0.00    +0.129 C 
ATOM     16  H   UNL     1      37.150 -21.702 -15.486  0.00  0.00    +0.145 HD
ATOM     17  H   UNL     1      35.513 -21.828 -15.023  0.00  0.00    +0.145 HD
ENDBRANCH   7  11
ENDBRANCH   5   7
ENDBRANCH   1   5
BRANCH   2  18
ATOM     18  S   UNL     1      33.492 -23.547 -18.446  0.00  0.00    -0.049 S 
BRANCH  18  20
ATOM     19  O   UNL     1      35.735 -22.292 -17.847  0.00  0.00    -0.279 OA
ATOM     20  C   UNL     1      34.742 -22.323 -18.566  0.00  0.00    +0.225 C 
BRANCH  20  21
ATOM     21  C   UNL     1      34.510 -21.245 -19.562  0.00  0.00    +0.045 C 
ATOM     22  C   UNL     1      33.208 -20.841 -19.860  0.00  0.00    +0.004 C 
ATOM     23  C   UNL     1      35.591 -20.637 -20.198  0.00  0.00    +0.004 C 
ATOM     24  C   UNL     1      32.989 -19.829 -20.794  0.00  0.00    +0.000 C 
ATOM     25  C   UNL     1      35.373 -19.626 -21.132  0.00  0.00    +0.000 C 
ATOM     26  C   UNL     1      34.071 -19.222 -21.431  0.00  0.00    +0.000 C 
ENDBRANCH  20  21
ENDBRANCH  18  20
ENDBRANCH   2  18
BRANCH   2  27
ATOM     27  C   UNL     1      31.937 -22.577 -16.349  0.00  0.00    +0.067 C 
BRANCH  27  28
ATOM     28  C   UNL     1      30.578 -23.263 -16.486  0.00  0.00    +0.159 C 
BRANCH  28  29
ATOM     29  O   UNL     1      29.580 -22.339 -16.900  0.00  0.00    -0.273 OA
BRANCH  29  30
ATOM     30  P   UNL     1      28.035 -22.815 -16.873  0.00  0.00    +0.473 P 
ATOM     31  O   UNL     1      27.741 -24.063 -17.652  0.00  0.00    -0.227 OA
BRANCH  30  32
ATOM     32  O   UNL     1      27.717 -22.908 -15.289  0.00  0.00    -0.303 OA
ATOM     33  H   UNL     1      26.759 -22.868 -15.149  0.00  0.00    +0.222 HD
ENDBRANCH  30  32
BRANCH  30  34
ATOM     34  O   UNL     1      27.219 -21.499 -17.339  0.00  0.00    -0.303 OA
ATOM     35  H   UNL     1      27.645 -21.115 -18.121  0.00  0.00    +0.222 HD
ENDBRANCH  30  34
ENDBRANCH  29  30
ENDBRANCH  28  29
ENDBRANCH  27  28
ENDBRANCH   2  27
TORSDOF 12
ENDMDL
MODEL 4
REMARK VINA RESULT:      -9.1      3.655      7.054
REMARK  Name = 2320
REMARK  12 active torsions:
REMARK  status: ('A' for Active; 'I' for Inactive)
REMARK    1  A    between atoms: C_1  and  N_5
REMARK    2  A    between atoms: C_2  and  S_18
REMARK    3  A    between atoms: C_2  and  C_27
REMARK    4  A    between atoms: N_5  and  C_7
REMARK    5  A    between atoms: C_7  and  C_11
REMARK    6  A    between atoms: S_18  and  C_20
REMARK    7  A    between atoms: C_20  and  C_21
REMARK    8  A    between atoms: C_27  and  C_28
REMARK    9  A    between atoms: C_28  and  O_29
REMARK   10  A    between atoms: O_29  and  P_30
REMARK   11  A    between atoms: P_30  and  O_32
REMARK   12  A    between atoms: P_30  and  O_34
REMARK                            x       y       z     vdW  Elec       q    Type
REMARK                         _______ _______ _______ _____ _____    ______ ____
ROOT
ATOM      1  C   UNL     1      32.917 -23.221 -16.191  0.00  0.00    +0.034 C 
ATOM      2  C   UNL     1      34.238 -23.522 -16.227  0.00  0.00    +0.022 C 
ATOM      3  C   UNL     1      32.257 -22.142 -17.006  0.00  0.00    +0.048 C 
ENDROOT
BRANCH   1   5
ATOM      4  O   UNL     1      31.466 -24.367 -13.145  0.00  0.00    -0.265 OA
ATOM      5  N   UNL     1      32.047 -23.888 -15.365  0.00  0.00    -0.250 N 
ATOM      6  C   UNL     1      32.173 -23.821 -13.985  0.00  0.00    +0.307 C 
BRANCH   5   7
ATOM      7  C   UNL     1      30.982 -24.670 -15.979  0.00  0.00    +0.130 C 
BRANCH   7  11
ATOM      8  N   UNL     1      27.424 -23.533 -15.318  0.00  0.00    -0.340 NA
ATOM      9  N   UNL     1      28.407 -22.113 -17.000  0.00  0.00    -0.186 NA
ATOM     10  N   UNL     1      28.681 -25.305 -14.368  0.00  0.00    -0.332 N 
ATOM     11  C   UNL     1      29.690 -23.909 -16.039  0.00  0.00    +0.062 C 
ATOM     12  C   UNL     1      28.588 -24.214 -15.267  0.00  0.00    +0.187 C 
ATOM     13  C   UNL     1      29.540 -22.838 -16.897  0.00  0.00    +0.111 C 
ATOM     14  C   UNL     1      27.404 -22.509 -16.193  0.00  0.00    +0.066 C 
ATOM     15  C   UNL     1      26.134 -21.732 -16.279  0.00  0.00    +0.129 C 
ATOM     16  H   UNL     1      27.910 -25.545 -13.804  0.00  0.00    +0.145 HD
ATOM     17  H   UNL     1      29.517 -25.822 -14.306  0.00  0.00    +0.145 HD
ENDBRANCH   7  11
ENDBRANCH   5   7
ENDBRANCH   1   5
BRANCH   2  18
ATOM     18  S   UNL     1      35.339 -22.595 -17.242  0.00  0.00    -0.049 S 
BRANCH  18  20
ATOM     19  O   UNL     1      34.087 -23.751 -19.257  0.00  0.00    -0.279 OA
ATOM     20  C   UNL     1      34.557 -22.712 -18.807  0.00  0.00    +0.225 C 
BRANCH  20  21
ATOM     21  C   UNL     1      34.547 -21.474 -19.628  0.00  0.00    +0.045 C 
ATOM     22  C   UNL     1      33.334 -20.902 -20.013  0.00  0.00    +0.004 C 
ATOM     23  C   UNL     1      35.749 -20.882 -20.013  0.00  0.00    +0.004 C 
ATOM     24  C   UNL     1      33.324 -19.739 -20.783  0.00  0.00    +0.000 C 
ATOM     25  C   UNL     1      35.740 -19.719 -20.783  0.00  0.00    +0.000 C 
ATOM     26  C   UNL     1      34.527 -19.148 -21.169  0.00  0.00    +0.000 C 
ENDBRANCH  20  21
ENDBRANCH  18  20
ENDBRANCH   2  18
BRANCH   2  27
ATOM     27  C   UNL     1      34.872 -24.620 -15.388  0.00  0.00    +0.067 C 
BRANCH  27  28
ATOM     28  C   UNL     1      36.125 -24.155 -14.647  0.00  0.00    +0.159 C 
BRANCH  28  29
ATOM     29  O   UNL     1      37.278 -24.842 -15.114  0.00  0.00    -0.273 OA
BRANCH  29  30
ATOM     30  P   UNL     1      37.352 -26.444 -14.910  0.00  0.00    +0.473 P 
ATOM     31  O   UNL     1      36.769 -27.255 -16.030  0.00  0.00    -0.227 OA
BRANCH  30  32
ATOM     32  O   UNL     1      38.925 -26.697 -14.631  0.00  0.00    -0.303 OA
ATOM     33  H   UNL     1      39.442 -26.387 -15.391  0.00  0.00    +0.222 HD
ENDBRANCH  30  32
BRANCH  30  34
ATOM     34  O   UNL     1      36.675 -26.680 -13.460  0.00  0.00    -0.303 OA
ATOM     35  H   UNL     1      35.848 -26.176 -13.404  0.00  0.00    +0.222 HD
ENDBRANCH  30  34
ENDBRANCH  29  30
ENDBRANCH  28  29
ENDBRANCH  27  28
ENDBRANCH   2  27
TORSDOF 12
ENDMDL
MODEL 5
REMARK VINA RESULT:      -9.0      3.658      6.955
REMARK  Name = 2320
REMARK  12 active torsions:
REMARK  status: ('A' for Active; 'I' for Inactive)
REMARK    1  A    between atoms: C_1  and  N_5
REMARK    2  A    between atoms: C_2  and  S_18
REMARK    3  A    between atoms: C_2  and  C_27
REMARK    4  A    between atoms: N_5  and  C_7
REMARK    5  A    between atoms: C_7  and  C_11
REMARK    6  A    between atoms: S_18  and  C_20
REMARK    7  A    between atoms: C_20  and  C_21
REMARK    8  A    between atoms: C_27  and  C_28
REMARK    9  A    between atoms: C_28  and  O_29
REMARK   10  A    between atoms: O_29  and  P_30
REMARK   11  A    between atoms: P_30  and  O_32
REMARK   12  A    between atoms: P_30  and  O_34
REMARK                            x       y       z     vdW  Elec       q    Type
REMARK                         _______ _______ _______ _____ _____    ______ ____
ROOT
ATOM      1  C   UNL     1      32.964 -23.170 -16.292  0.00  0.00    +0.034 C 
ATOM      2  C   UNL     1      34.302 -23.381 -16.273  0.00  0.00    +0.022 C 
ATOM      3  C   UNL     1      32.258 -22.197 -17.197  0.00  0.00    +0.048 C 
ENDROOT
BRANCH   1   5
ATOM      4  O   UNL     1      31.576 -24.298 -13.209  0.00  0.00    -0.265 OA
ATOM      5  N   UNL     1      32.115 -23.838 -15.445  0.00  0.00    -0.250 N 
ATOM      6  C   UNL     1      32.263 -23.754 -14.067  0.00  0.00    +0.307 C 
BRANCH   5   7
ATOM      7  C   UNL     1      31.051 -24.640 -16.031  0.00  0.00    +0.130 C 
BRANCH   7  11
ATOM      8  N   UNL     1      27.486 -23.576 -15.289  0.00  0.00    -0.340 NA
ATOM      9  N   UNL     1      28.407 -22.125 -16.978  0.00  0.00    -0.186 NA
ATOM     10  N   UNL     1      28.795 -25.332 -14.380  0.00  0.00    -0.332 N 
ATOM     11  C   UNL     1      29.743 -23.904 -16.059  0.00  0.00    +0.062 C 
ATOM     12  C   UNL     1      28.663 -24.236 -15.267  0.00  0.00    +0.187 C 
ATOM     13  C   UNL     1      29.555 -22.829 -16.904  0.00  0.00    +0.111 C 
ATOM     14  C   UNL     1      27.428 -22.546 -16.155  0.00  0.00    +0.066 C 
ATOM     15  C   UNL     1      26.142 -21.793 -16.208  0.00  0.00    +0.129 C 
ATOM     16  H   UNL     1      28.041 -25.591 -13.802  0.00  0.00    +0.145 HD
ATOM     17  H   UNL     1      29.642 -25.834 -14.339  0.00  0.00    +0.145 HD
ENDBRANCH   7  11
ENDBRANCH   5   7
ENDBRANCH   1   5
BRANCH   2  18
ATOM     18  S   UNL     1      35.370 -22.451 -17.321  0.00  0.00    -0.049 S 
BRANCH  18  20
ATOM     19  O   UNL     1      34.139 -23.689 -19.300  0.00  0.00    -0.279 OA
ATOM     20  C   UNL     1      34.575 -22.625 -18.874  0.00  0.00    +0.225 C 
BRANCH  20  21
ATOM     21  C   UNL     1      34.511 -21.403 -19.717  0.00  0.00    +0.045 C 
ATOM     22  C   UNL     1      33.274 -20.863 -20.070  0.00  0.00    +0.004 C 
ATOM     23  C   UNL     1      35.687 -20.795 -20.154  0.00  0.00    +0.004 C 
ATOM     24  C   UNL     1      33.213 -19.716 -20.860  0.00  0.00    +0.000 C 
ATOM     25  C   UNL     1      35.627 -19.648 -20.945  0.00  0.00    +0.000 C 
ATOM     26  C   UNL     1      34.390 -19.109 -21.298  0.00  0.00    +0.000 C 
ENDBRANCH  20  21
ENDBRANCH  18  20
ENDBRANCH   2  18
BRANCH   2  27
ATOM     27  C   UNL     1      34.983 -24.374 -15.343  0.00  0.00    +0.067 C 
BRANCH  27  28
ATOM     28  C   UNL     1      35.753 -23.698 -14.210  0.00  0.00    +0.159 C 
BRANCH  28  29
ATOM     29  O   UNL     1      36.684 -24.595 -13.620  0.00  0.00    -0.273 OA
BRANCH  29  30
ATOM     30  P   UNL     1      36.498 -24.979 -12.061  0.00  0.00    +0.473 P 
ATOM     31  O   UNL     1      37.262 -24.117 -11.098  0.00  0.00    -0.227 OA
BRANCH  30  32
ATOM     32  O   UNL     1      34.892 -24.951 -11.874  0.00  0.00    -0.303 OA
ATOM     33  H   UNL     1      34.464 -25.082 -12.735  0.00  0.00    +0.222 HD
ENDBRANCH  30  32
BRANCH  30  34
ATOM     34  O   UNL     1      36.852 -26.556 -12.007  0.00  0.00    -0.303 OA
ATOM     35  H   UNL     1      37.554 -26.752 -12.648  0.00  0.00    +0.222 HD
ENDBRANCH  30  34
ENDBRANCH  29  30
ENDBRANCH  28  29
ENDBRANCH  27  28
ENDBRANCH   2  27
TORSDOF 12
ENDMDL
MODEL 6
REMARK VINA RESULT:      -8.9      2.836      6.579
REMARK  Name = 2320
REMARK  12 active torsions:
REMARK  status: ('A' for Active; 'I' for Inactive)
REMARK    1  A    between atoms: C_1  and  N_5
REMARK    2  A    between atoms: C_2  and  S_18
REMARK    3  A    between atoms: C_2  and  C_27
REMARK    4  A    between atoms: N_5  and  C_7
REMARK    5  A    between atoms: C_7  and  C_11
REMARK    6  A    between atoms: S_18  and  C_20
REMARK    7  A    between atoms: C_20  and  C_21
REMARK    8  A    between atoms: C_27  and  C_28
REMARK    9  A    between atoms: C_28  and  O_29
REMARK   10  A    between atoms: O_29  and  P_30
REMARK   11  A    between atoms: P_30  and  O_32
REMARK   12  A    between atoms: P_30  and  O_34
REMARK                            x       y       z     vdW  Elec       q    Type
REMARK                         _______ _______ _______ _____ _____    ______ ____
ROOT
ATOM      1  C   UNL     1      33.687 -23.014 -16.902  0.00  0.00    +0.034 C 
ATOM      2  C   UNL     1      32.623 -23.192 -16.082  0.00  0.00    +0.022 C 
ATOM      3  C   UNL     1      35.075 -22.653 -16.446  0.00  0.00    +0.048 C 
ENDROOT
BRANCH   1   5
ATOM      4  O   UNL     1      33.985 -24.505 -20.125  0.00  0.00    -0.265 OA
ATOM      5  N   UNL     1      33.577 -23.136 -18.265  0.00  0.00    -0.250 N 
ATOM      6  C   UNL     1      34.026 -24.274 -18.921  0.00  0.00    +0.307 C 
BRANCH   5   7
ATOM      7  C   UNL     1      32.975 -22.037 -19.007  0.00  0.00    +0.130 C 
BRANCH   7  11
ATOM      8  N   UNL     1      34.631 -19.407 -21.182  0.00  0.00    -0.340 NA
ATOM      9  N   UNL     1      36.329 -20.601 -19.957  0.00  0.00    -0.186 NA
ATOM     10  N   UNL     1      32.343 -19.968 -20.907  0.00  0.00    -0.332 N 
ATOM     11  C   UNL     1      34.009 -21.175 -19.672  0.00  0.00    +0.062 C 
ATOM     12  C   UNL     1      33.704 -20.184 -20.582  0.00  0.00    +0.187 C 
ATOM     13  C   UNL     1      35.351 -21.341 -19.395  0.00  0.00    +0.111 C 
ATOM     14  C   UNL     1      35.904 -19.666 -20.829  0.00  0.00    +0.066 C 
ATOM     15  C   UNL     1      36.957 -18.827 -21.471  0.00  0.00    +0.129 C 
ATOM     16  H   UNL     1      32.096 -19.267 -21.553  0.00  0.00    +0.145 HD
ATOM     17  H   UNL     1      31.643 -20.518 -20.486  0.00  0.00    +0.145 HD
ENDBRANCH   7  11
ENDBRANCH   5   7
ENDBRANCH   1   5
BRANCH   2  18
ATOM     18  S   UNL     1      32.782 -22.953 -14.344  0.00  0.00    -0.049 S 
BRANCH  18  20
ATOM     19  O   UNL     1      32.472 -25.493 -13.696  0.00  0.00    -0.279 OA
ATOM     20  C   UNL     1      33.255 -24.556 -13.812  0.00  0.00    +0.225 C 
BRANCH  20  21
ATOM     21  C   UNL     1      34.679 -24.723 -13.424  0.00  0.00    +0.045 C 
ATOM     22  C   UNL     1      35.102 -24.353 -12.147  0.00  0.00    +0.004 C 
ATOM     23  C   UNL     1      35.593 -25.250 -14.336  0.00  0.00    +0.004 C 
ATOM     24  C   UNL     1      36.439 -24.510 -11.783  0.00  0.00    +0.000 C 
ATOM     25  C   UNL     1      36.930 -25.407 -13.972  0.00  0.00    +0.000 C 
ATOM     26  C   UNL     1      37.353 -25.037 -12.695  0.00  0.00    +0.000 C 
ENDBRANCH  20  21
ENDBRANCH  18  20
ENDBRANCH   2  18
BRANCH   2  27
ATOM     27  C   UNL     1      31.232 -23.556 -16.578  0.00  0.00    +0.067 C 
BRANCH  27  28
ATOM     28  C   UNL     1      30.128 -22.737 -15.911  0.00  0.00    +0.159 C 
BRANCH  28  29
ATOM     29  O   UNL     1      29.270 -22.152 -16.882  0.00  0.00    -0.273 OA
BRANCH  29  30
ATOM     30  P   UNL     1      27.735 -22.654 -16.952  0.00  0.00    +0.473 P 
ATOM     31  O   UNL     1      27.526 -23.962 -17.657  0.00  0.00    -0.227 OA
BRANCH  30  32
ATOM     32  O   UNL     1      27.281 -22.635 -15.400  0.00  0.00    -0.303 OA
ATOM     33  H   UNL     1      26.326 -22.793 -15.340  0.00  0.00    +0.222 HD
ENDBRANCH  30  32
BRANCH  30  34
ATOM     34  O   UNL     1      26.946 -21.392 -17.585  0.00  0.00    -0.303 OA
ATOM     35  H   UNL     1      26.555 -21.650 -18.435  0.00  0.00    +0.222 HD
ENDBRANCH  30  34
ENDBRANCH  29  30
ENDBRANCH  28  29
ENDBRANCH  27  28
ENDBRANCH   2  27
TORSDOF 12
ENDMDL
MODEL 7
REMARK VINA RESULT:      -8.9      3.802      7.635
REMARK  Name = 2320
REMARK  12 active torsions:
REMARK  status: ('A' for Active; 'I' for Inactive)
REMARK    1  A    between atoms: C_1  and  N_5
REMARK    2  A    between atoms: C_2  and  S_18
REMARK    3  A    between atoms: C_2  and  C_27
REMARK    4  A    between atoms: N_5  and  C_7
REMARK    5  A    between atoms: C_7  and  C_11
REMARK    6  A    between atoms: S_18  and  C_20
REMARK    7  A    between atoms: C_20  and  C_21
REMARK    8  A    between atoms: C_27  and  C_28
REMARK    9  A    between atoms: C_28  and  O_29
REMARK   10  A    between atoms: O_29  and  P_30
REMARK   11  A    between atoms: P_30  and  O_32
REMARK   12  A    between atoms: P_30  and  O_34
REMARK                            x       y       z     vdW  Elec       q    Type
REMARK                         _______ _______ _______ _____ _____    ______ ____
ROOT
ATOM      1  C   UNL     1      34.452 -23.003 -17.113  0.00  0.00    +0.034 C 
ATOM      2  C   UNL     1      34.642 -23.261 -15.796  0.00  0.00    +0.022 C 
ATOM      3  C   UNL     1      33.279 -23.484 -17.924  0.00  0.00    +0.048 C 
ENDROOT
BRANCH   1   5
ATOM      4  O   UNL     1      37.167 -20.786 -17.754  0.00  0.00    -0.265 OA
ATOM      5  N   UNL     1      35.354 -22.271 -17.844  0.00  0.00    -0.250 N 
ATOM      6  C   UNL     1      36.310 -21.482 -17.219  0.00  0.00    +0.307 C 
BRANCH   5   7
ATOM      7  C   UNL     1      35.282 -22.344 -19.296  0.00  0.00    +0.130 C 
BRANCH   7  11
ATOM      8  N   UNL     1      33.729 -19.201 -20.745  0.00  0.00    -0.340 NA
ATOM      9  N   UNL     1      36.130 -19.005 -20.828  0.00  0.00    -0.186 NA
ATOM     10  N   UNL     1      32.720 -21.153 -19.852  0.00  0.00    -0.332 N 
ATOM     11  C   UNL     1      35.114 -20.989 -19.919  0.00  0.00    +0.062 C 
ATOM     12  C   UNL     1      33.885 -20.419 -20.185  0.00  0.00    +0.187 C 
ATOM     13  C   UNL     1      36.212 -20.228 -20.266  0.00  0.00    +0.111 C 
ATOM     14  C   UNL     1      34.876 -18.559 -21.036  0.00  0.00    +0.066 C 
ATOM     15  C   UNL     1      34.745 -17.209 -21.657  0.00  0.00    +0.129 C 
ATOM     16  H   UNL     1      31.830 -20.771 -20.031  0.00  0.00    +0.145 HD
ATOM     17  H   UNL     1      32.800 -22.044 -19.442  0.00  0.00    +0.145 HD
ENDBRANCH   7  11
ENDBRANCH   5   7
ENDBRANCH   1   5
BRANCH   2  18
ATOM     18  S   UNL     1      33.503 -24.268 -14.907  0.00  0.00    -0.049 S 
BRANCH  18  20
ATOM     19  O   UNL     1      32.331 -22.116 -13.927  0.00  0.00    -0.279 OA
ATOM     20  C   UNL     1      32.201 -23.135 -14.597  0.00  0.00    +0.225 C 
BRANCH  20  21
ATOM     21  C   UNL     1      30.868 -23.505 -15.138  0.00  0.00    +0.045 C 
ATOM     22  C   UNL     1      30.204 -24.630 -14.647  0.00  0.00    +0.004 C 
ATOM     23  C   UNL     1      30.279 -22.729 -16.135  0.00  0.00    +0.004 C 
ATOM     24  C   UNL     1      28.953 -24.978 -15.154  0.00  0.00    +0.000 C 
ATOM     25  C   UNL     1      29.028 -23.077 -16.642  0.00  0.00    +0.000 C 
ATOM     26  C   UNL     1      28.364 -24.202 -16.152  0.00  0.00    +0.000 C 
ENDBRANCH  20  21
ENDBRANCH  18  20
ENDBRANCH   2  18
BRANCH   2  27
ATOM     27  C   UNL     1      35.841 -22.759 -15.007  0.00  0.00    +0.067 C 
BRANCH  27  28
ATOM     28  C   UNL     1      36.673 -23.889 -14.402  0.00  0.00    +0.159 C 
BRANCH  28  29
ATOM     29  O   UNL     1      37.100 -24.801 -15.404  0.00  0.00    -0.273 OA
BRANCH  29  30
ATOM     30  P   UNL     1      37.416 -26.326 -14.970  0.00  0.00    +0.473 P 
ATOM     31  O   UNL     1      38.859 -26.616 -14.676  0.00  0.00    -0.227 OA
BRANCH  30  32
ATOM     32  O   UNL     1      36.407 -26.562 -13.729  0.00  0.00    -0.303 OA
ATOM     33  H   UNL     1      35.513 -26.286 -13.983  0.00  0.00    +0.222 HD
ENDBRANCH  30  32
BRANCH  30  34
ATOM     34  O   UNL     1      36.761 -27.209 -16.156  0.00  0.00    -0.303 OA
ATOM     35  H   UNL     1      37.280 -28.019 -16.280  0.00  0.00    +0.222 HD
ENDBRANCH  30  34
ENDBRANCH  29  30
ENDBRANCH  28  29
ENDBRANCH  27  28
ENDBRANCH   2  27
TORSDOF 12
ENDMDL
MODEL 8
REMARK VINA RESULT:      -8.7      3.761      7.593
REMARK  Name = 2320
REMARK  12 active torsions:
REMARK  status: ('A' for Active; 'I' for Inactive)
REMARK    1  A    between atoms: C_1  and  N_5
REMARK    2  A    between atoms: C_2  and  S_18
REMARK    3  A    between atoms: C_2  and  C_27
REMARK    4  A    between atoms: N_5  and  C_7
REMARK    5  A    between atoms: C_7  and  C_11
REMARK    6  A    between atoms: S_18  and  C_20
REMARK    7  A    between atoms: C_20  and  C_21
REMARK    8  A    between atoms: C_27  and  C_28
REMARK    9  A    between atoms: C_28  and  O_29
REMARK   10  A    between atoms: O_29  and  P_30
REMARK   11  A    between atoms: P_30  and  O_32
REMARK   12  A    between atoms: P_30  and  O_34
REMARK                            x       y       z     vdW  Elec       q    Type
REMARK                         _______ _______ _______ _____ _____    ______ ____
ROOT
ATOM      1  C   UNL     1      34.273 -23.107 -16.856  0.00  0.00    +0.034 C 
ATOM      2  C   UNL     1      34.428 -23.393 -15.540  0.00  0.00    +0.022 C 
ATOM      3  C   UNL     1      33.087 -23.506 -17.691  0.00  0.00    +0.048 C 
ENDROOT
BRANCH   1   5
ATOM      4  O   UNL     1      37.065 -20.967 -17.428  0.00  0.00    -0.265 OA
ATOM      5  N   UNL     1      35.229 -22.419 -17.562  0.00  0.00    -0.250 N 
ATOM      6  C   UNL     1      36.167 -21.626 -16.915  0.00  0.00    +0.307 C 
BRANCH   5   7
ATOM      7  C   UNL     1      35.232 -22.544 -19.013  0.00  0.00    +0.130 C 
BRANCH   7  11
ATOM      8  N   UNL     1      35.423 -19.243 -20.873  0.00  0.00    -0.340 NA
ATOM      9  N   UNL     1      33.118 -19.725 -20.356  0.00  0.00    -0.186 NA
ATOM     10  N   UNL     1      37.134 -20.748 -20.218  0.00  0.00    -0.332 N 
ATOM     11  C   UNL     1      34.850 -21.259 -19.688  0.00  0.00    +0.062 C 
ATOM     12  C   UNL     1      35.762 -20.399 -20.265  0.00  0.00    +0.187 C 
ATOM     13  C   UNL     1      33.529 -20.866 -19.764  0.00  0.00    +0.111 C 
ATOM     14  C   UNL     1      34.103 -18.972 -20.882  0.00  0.00    +0.066 C 
ATOM     15  C   UNL     1      33.689 -17.702 -21.546  0.00  0.00    +0.129 C 
ATOM     16  H   UNL     1      37.807 -20.154 -20.622  0.00  0.00    +0.145 HD
ATOM     17  H   UNL     1      37.415 -21.586 -19.782  0.00  0.00    +0.145 HD
ENDBRANCH   7  11
ENDBRANCH   5   7
ENDBRANCH   1   5
BRANCH   2  18
ATOM     18  S   UNL     1      33.217 -24.343 -14.683  0.00  0.00    -0.049 S 
BRANCH  18  20
ATOM     19  O   UNL     1      32.032 -22.200 -13.699  0.00  0.00    -0.279 OA
ATOM     20  C   UNL     1      31.941 -23.162 -14.455  0.00  0.00    +0.225 C 
BRANCH  20  21
ATOM     21  C   UNL     1      30.674 -23.418 -15.186  0.00  0.00    +0.045 C 
ATOM     22  C   UNL     1      30.040 -22.380 -15.869  0.00  0.00    +0.004 C 
ATOM     23  C   UNL     1      30.118 -24.697 -15.190  0.00  0.00    +0.004 C 
ATOM     24  C   UNL     1      28.851 -22.620 -16.556  0.00  0.00    +0.000 C 
ATOM     25  C   UNL     1      28.928 -24.938 -15.877  0.00  0.00    +0.000 C 
ATOM     26  C   UNL     1      28.294 -23.899 -16.559  0.00  0.00    +0.000 C 
ENDBRANCH  20  21
ENDBRANCH  18  20
ENDBRANCH   2  18
BRANCH   2  27
ATOM     27  C   UNL     1      35.642 -22.973 -14.726  0.00  0.00    +0.067 C 
BRANCH  27  28
ATOM     28  C   UNL     1      36.405 -24.159 -14.138  0.00  0.00    +0.159 C 
BRANCH  28  29
ATOM     29  O   UNL     1      37.090 -24.879 -15.154  0.00  0.00    -0.273 OA
BRANCH  29  30
ATOM     30  P   UNL     1      37.469 -26.426 -14.875  0.00  0.00    +0.473 P 
ATOM     31  O   UNL     1      38.933 -26.695 -14.678  0.00  0.00    -0.227 OA
BRANCH  30  32
ATOM     32  O   UNL     1      36.530 -26.804 -13.614  0.00  0.00    -0.303 OA
ATOM     33  H   UNL     1      36.049 -26.014 -13.322  0.00  0.00    +0.222 HD
ENDBRANCH  30  32
BRANCH  30  34
ATOM     34  O   UNL     1      36.780 -27.219 -16.104  0.00  0.00    -0.303 OA
ATOM     35  H   UNL     1      36.197 -26.616 -16.591  0.00  0.00    +0.222 HD
ENDBRANCH  30  34
ENDBRANCH  29  30
ENDBRANCH  28  29
ENDBRANCH  27  28
ENDBRANCH   2  27
TORSDOF 12
ENDMDL
MODEL 9
REMARK VINA RESULT:      -8.6      3.380      7.357
REMARK  Name = 2320
REMARK  12 active torsions:
REMARK  status: ('A' for Active; 'I' for Inactive)
REMARK    1  A    between atoms: C_1  and  N_5
REMARK    2  A    between atoms: C_2  and  S_18
REMARK    3  A    between atoms: C_2  and  C_27
REMARK    4  A    between atoms: N_5  and  C_7
REMARK    5  A    between atoms: C_7  and  C_11
REMARK    6  A    between atoms: S_18  and  C_20
REMARK    7  A    between atoms: C_20  and  C_21
REMARK    8  A    between atoms: C_27  and  C_28
REMARK    9  A    between atoms: C_28  and  O_29
REMARK   10  A    between atoms: O_29  and  P_30
REMARK   11  A    between atoms: P_30  and  O_32
REMARK   12  A    between atoms: P_30  and  O_34
REMARK                            x       y       z     vdW  Elec       q    Type
REMARK                         _______ _______ _______ _____ _____    ______ ____
ROOT
ATOM      1  C   UNL     1      35.441 -22.185 -17.774  0.00  0.00    +0.034 C 
ATOM      2  C   UNL     1      34.851 -22.787 -16.713  0.00  0.00    +0.022 C 
ATOM      3  C   UNL     1      36.832 -21.613 -17.776  0.00  0.00    +0.048 C 
ENDROOT
BRANCH   1   5
ATOM      4  O   UNL     1      32.723 -22.145 -20.079  0.00  0.00    -0.265 OA
ATOM      5  N   UNL     1      34.786 -22.027 -18.971  0.00  0.00    -0.250 N 
ATOM      6  C   UNL     1      33.420 -22.251 -19.076  0.00  0.00    +0.307 C 
BRANCH   5   7
ATOM      7  C   UNL     1      35.565 -21.618 -20.130  0.00  0.00    +0.130 C 
BRANCH   7  11
ATOM      8  N   UNL     1      35.998 -17.973 -21.091  0.00  0.00    -0.340 NA
ATOM      9  N   UNL     1      33.649 -18.511 -21.073  0.00  0.00    -0.186 NA
ATOM     10  N   UNL     1      37.607 -19.631 -20.556  0.00  0.00    -0.332 N 
ATOM     11  C   UNL     1      35.275 -20.200 -20.529  0.00  0.00    +0.062 C 
ATOM     12  C   UNL     1      36.255 -19.249 -20.733  0.00  0.00    +0.187 C 
ATOM     13  C   UNL     1      33.977 -19.769 -20.715  0.00  0.00    +0.111 C 
ATOM     14  C   UNL     1      34.693 -17.677 -21.243  0.00  0.00    +0.066 C 
ATOM     15  C   UNL     1      34.370 -16.276 -21.639  0.00  0.00    +0.129 C 
ATOM     16  H   UNL     1      38.326 -18.974 -20.694  0.00  0.00    +0.145 HD
ATOM     17  H   UNL     1      37.827 -20.555 -20.294  0.00  0.00    +0.145 HD
ENDBRANCH   7  11
ENDBRANCH   5   7
ENDBRANCH   1   5
BRANCH   2  18
ATOM     18  S   UNL     1      35.692 -22.904 -15.169  0.00  0.00    -0.049 S 
BRANCH  18  20
ATOM     19  O   UNL     1      35.348 -25.509 -15.427  0.00  0.00    -0.279 OA
ATOM     20  C   UNL     1      36.123 -24.604 -15.133  0.00  0.00    +0.225 C 
BRANCH  20  21
ATOM     21  C   UNL     1      37.490 -24.922 -14.648  0.00  0.00    +0.045 C 
ATOM     22  C   UNL     1      38.592 -24.707 -15.476  0.00  0.00    +0.004 C 
ATOM     23  C   UNL     1      37.673 -25.436 -13.365  0.00  0.00    +0.004 C 
ATOM     24  C   UNL     1      39.876 -25.005 -15.021  0.00  0.00    +0.000 C 
ATOM     25  C   UNL     1      38.957 -25.734 -12.909  0.00  0.00    +0.000 C 
ATOM     26  C   UNL     1      40.059 -25.519 -13.737  0.00  0.00    +0.000 C 
ENDBRANCH  20  21
ENDBRANCH  18  20
ENDBRANCH   2  18
BRANCH   2  27
ATOM     27  C   UNL     1      33.441 -23.354 -16.746  0.00  0.00    +0.067 C 
BRANCH  27  28
ATOM     28  C   UNL     1      32.632 -23.015 -15.494  0.00  0.00    +0.159 C 
BRANCH  28  29
ATOM     29  O   UNL     1      31.474 -23.834 -15.398  0.00  0.00    -0.273 OA
BRANCH  29  30
ATOM     30  P   UNL     1      31.249 -24.688 -14.044  0.00  0.00    +0.473 P 
ATOM     31  O   UNL     1      30.825 -23.884 -12.849  0.00  0.00    -0.227 OA
BRANCH  30  32
ATOM     32  O   UNL     1      30.196 -25.825 -14.508  0.00  0.00    -0.303 OA
ATOM     33  H   UNL     1      29.554 -25.438 -15.123  0.00  0.00    +0.222 HD
ENDBRANCH  30  32
BRANCH  30  34
ATOM     34  O   UNL     1      32.631 -25.509 -13.870  0.00  0.00    -0.303 OA
ATOM     35  H   UNL     1      32.931 -25.446 -12.950  0.00  0.00    +0.222 HD
ENDBRANCH  30  34
ENDBRANCH  29  30
ENDBRANCH  28  29
ENDBRANCH  27  28
ENDBRANCH   2  27
TORSDOF 12
ENDMDL
