MODEL 1
REMARK VINA RESULT:     -11.3      0.000      0.000
REMARK  Name = 54713659
REMARK  4 active torsions:
REMARK  status: ('A' for Active; 'I' for Inactive)
REMARK    1  A    between atoms: C_14  and  O_30
REMARK    2  A    between atoms: C_15  and  C_19
REMARK    3  A    between atoms: N_18  and  C_21
REMARK    4  A    between atoms: C_21  and  C_24
REMARK                            x       y       z     vdW  Elec       q    Type
REMARK                         _______ _______ _______ _____ _____    ______ ____
ROOT
ATOM      1  O   UNL     1      34.326  -8.363 -24.302  0.00  0.00    -0.334 OA
ATOM      2  O   UNL     1      31.071 -10.253 -21.675  0.00  0.00    -0.268 OA
ATOM      3  O   UNL     1      32.285 -15.229 -21.764  0.00  0.00    -0.283 OA
ATOM      4  N   UNL     1      32.819  -9.401 -22.903  0.00  0.00    -0.251 N 
ATOM      5  N   UNL     1      33.460 -11.932 -23.817  0.00  0.00    -0.275 N 
ATOM      6  C   UNL     1      34.048  -9.597 -23.627  0.00  0.00    +0.215 C 
ATOM      7  C   UNL     1      32.475  -8.001 -22.878  0.00  0.00    +0.107 C 
ATOM      8  C   UNL     1      33.886 -10.757 -24.586  0.00  0.00    +0.147 C 
ATOM      9  C   UNL     1      33.173  -7.513 -24.136  0.00  0.00    +0.164 C 
ATOM     10  C   UNL     1      32.077 -10.428 -22.359  0.00  0.00    +0.268 C 
ATOM     11  C   UNL     1      32.577 -11.809 -22.727  0.00  0.00    +0.143 C 
ATOM     12  C   UNL     1      33.003  -7.325 -21.617  0.00  0.00    +0.024 C 
ATOM     13  C   UNL     1      33.879 -13.201 -24.191  0.00  0.00    +0.074 C 
ATOM     14  C   UNL     1      32.150 -12.869 -22.009  0.00  0.00    +0.191 C 
ATOM     15  C   UNL     1      33.534 -14.335 -23.571  0.00  0.00    +0.110 C 
ATOM     16  C   UNL     1      32.630 -14.234 -22.395  0.00  0.00    +0.236 C 
ENDROOT
BRANCH  15  19
ATOM     17  O   UNL     1      33.882 -15.939 -25.252  0.00  0.00    -0.270 OA
ATOM     18  N   UNL     1      34.754 -16.325 -23.125  0.00  0.00    -0.297 N 
ATOM     19  C   UNL     1      34.063 -15.600 -24.081  0.00  0.00    +0.251 C 
ATOM     20  H   UNL     1      34.831 -15.946 -22.219  0.00  0.00    +0.150 HD
BRANCH  18  21
ATOM     21  C   UNL     1      35.368 -17.607 -23.385  0.00  0.00    +0.119 C 
BRANCH  21  24
ATOM     22  F   UNL     1      37.449 -18.616 -21.755  0.00  0.00    -0.204 F 
ATOM     23  F   UNL     1      34.475 -21.260 -19.193  0.00  0.00    -0.204 F 
ATOM     24  C   UNL     1      35.131 -18.581 -22.267  0.00  0.00    +0.025 C 
ATOM     25  C   UNL     1      36.203 -19.041 -21.501  0.00  0.00    +0.140 C 
ATOM     26  C   UNL     1      33.837 -19.028 -21.994  0.00  0.00    +0.002 C 
ATOM     27  C   UNL     1      35.982 -19.945 -20.463  0.00  0.00    +0.059 C 
ATOM     28  C   UNL     1      33.617 -19.933 -20.957  0.00  0.00    +0.030 C 
ATOM     29  C   UNL     1      34.688 -20.391 -20.190  0.00  0.00    +0.142 C 
ENDBRANCH  21  24
ENDBRANCH  18  21
ENDBRANCH  15  19
BRANCH  14  30
ATOM     30  O   UNL     1      31.302 -12.776 -20.929  0.00  0.00    -0.502 OA
ATOM     31  H   UNL     1      31.535 -12.243 -20.194  0.00  0.00    +0.292 HD
ENDBRANCH  14  30
TORSDOF 4
ENDMDL
MODEL 2
REMARK VINA RESULT:     -11.0      6.410     11.559
REMARK  Name = 54713659
REMARK  4 active torsions:
REMARK  status: ('A' for Active; 'I' for Inactive)
REMARK    1  A    between atoms: C_14  and  O_30
REMARK    2  A    between atoms: C_15  and  C_19
REMARK    3  A    between atoms: N_18  and  C_21
REMARK    4  A    between atoms: C_21  and  C_24
REMARK                            x       y       z     vdW  Elec       q    Type
REMARK                         _______ _______ _______ _____ _____    ______ ____
ROOT
ATOM      1  O   UNL     1      38.012 -23.284 -13.930  0.00  0.00    -0.334 OA
ATOM      2  O   UNL     1      33.489 -23.337 -14.718  0.00  0.00    -0.268 OA
ATOM      3  O   UNL     1      33.195 -22.294 -19.724  0.00  0.00    -0.283 OA
ATOM      4  N   UNL     1      35.775 -23.409 -14.466  0.00  0.00    -0.251 N 
ATOM      5  N   UNL     1      36.121 -22.171 -16.916  0.00  0.00    -0.275 N 
ATOM      6  C   UNL     1      37.096 -23.328 -15.032  0.00  0.00    +0.215 C 
ATOM      7  C   UNL     1      35.856 -23.701 -13.056  0.00  0.00    +0.107 C 
ATOM      8  C   UNL     1      37.190 -22.100 -15.913  0.00  0.00    +0.147 C 
ATOM      9  C   UNL     1      37.229 -23.141 -12.727  0.00  0.00    +0.164 C 
ATOM     10  C   UNL     1      34.618 -23.191 -15.183  0.00  0.00    +0.268 C 
ATOM     11  C   UNL     1      34.854 -22.695 -16.594  0.00  0.00    +0.143 C 
ATOM     12  C   UNL     1      35.758 -25.201 -12.797  0.00  0.00    +0.024 C 
ATOM     13  C   UNL     1      36.326 -21.667 -18.192  0.00  0.00    +0.074 C 
ATOM     14  C   UNL     1      33.842 -22.759 -17.485  0.00  0.00    +0.191 C 
ATOM     15  C   UNL     1      35.413 -21.665 -19.171  0.00  0.00    +0.110 C 
ATOM     16  C   UNL     1      34.077 -22.243 -18.872  0.00  0.00    +0.236 C 
ENDROOT
BRANCH  15  19
ATOM     17  O   UNL     1      36.896 -21.298 -20.955  0.00  0.00    -0.270 OA
ATOM     18  N   UNL     1      34.766 -20.356 -21.044  0.00  0.00    -0.297 N 
ATOM     19  C   UNL     1      35.782 -21.101 -20.469  0.00  0.00    +0.251 C 
ATOM     20  H   UNL     1      33.915 -20.271 -20.556  0.00  0.00    +0.150 HD
BRANCH  18  21
ATOM     21  C   UNL     1      34.888 -19.695 -22.325  0.00  0.00    +0.119 C 
BRANCH  21  24
ATOM     22  F   UNL     1      35.019 -17.949 -24.547  0.00  0.00    -0.204 F 
ATOM     23  F   UNL     1      34.695 -14.089 -21.827  0.00  0.00    -0.204 F 
ATOM     24  C   UNL     1      34.836 -18.201 -22.193  0.00  0.00    +0.025 C 
ATOM     25  C   UNL     1      34.907 -17.396 -23.330  0.00  0.00    +0.140 C 
ATOM     26  C   UNL     1      34.719 -17.616 -20.931  0.00  0.00    +0.002 C 
ATOM     27  C   UNL     1      34.859 -16.008 -23.208  0.00  0.00    +0.059 C 
ATOM     28  C   UNL     1      34.672 -16.227 -20.809  0.00  0.00    +0.030 C 
ATOM     29  C   UNL     1      34.741 -15.423 -21.946  0.00  0.00    +0.142 C 
ENDBRANCH  21  24
ENDBRANCH  18  21
ENDBRANCH  15  19
BRANCH  14  30
ATOM     30  O   UNL     1      32.600 -23.281 -17.204  0.00  0.00    -0.502 OA
ATOM     31  H   UNL     1      31.868 -22.710 -17.078  0.00  0.00    +0.292 HD
ENDBRANCH  14  30
TORSDOF 4
ENDMDL
MODEL 3
REMARK VINA RESULT:     -10.8      2.172      3.509
REMARK  Name = 54713659
REMARK  4 active torsions:
REMARK  status: ('A' for Active; 'I' for Inactive)
REMARK    1  A    between atoms: C_14  and  O_30
REMARK    2  A    between atoms: C_15  and  C_19
REMARK    3  A    between atoms: N_18  and  C_21
REMARK    4  A    between atoms: C_21  and  C_24
REMARK                            x       y       z     vdW  Elec       q    Type
REMARK                         _______ _______ _______ _____ _____    ______ ____
ROOT
ATOM      1  O   UNL     1      31.788 -12.284 -20.021  0.00  0.00    -0.334 OA
ATOM      2  O   UNL     1      33.105 -11.795 -24.392  0.00  0.00    -0.268 OA
ATOM      3  O   UNL     1      34.522 -16.543 -25.690  0.00  0.00    -0.283 OA
ATOM      4  N   UNL     1      32.354 -12.181 -22.252  0.00  0.00    -0.251 N 
ATOM      5  N   UNL     1      33.600 -14.651 -22.221  0.00  0.00    -0.275 N 
ATOM      6  C   UNL     1      32.086 -13.090 -21.168  0.00  0.00    +0.215 C 
ATOM      7  C   UNL     1      31.957 -10.844 -21.887  0.00  0.00    +0.107 C 
ATOM      8  C   UNL     1      33.289 -13.983 -20.952  0.00  0.00    +0.147 C 
ATOM      9  C   UNL     1      32.070 -10.914 -20.374  0.00  0.00    +0.164 C 
ATOM     10  C   UNL     1      32.947 -12.555 -23.439  0.00  0.00    +0.268 C 
ATOM     11  C   UNL     1      33.446 -13.985 -23.452  0.00  0.00    +0.143 C 
ATOM     12  C   UNL     1      30.537 -10.543 -22.354  0.00  0.00    +0.024 C 
ATOM     13  C   UNL     1      34.107 -15.942 -22.224  0.00  0.00    +0.074 C 
ATOM     14  C   UNL     1      33.740 -14.562 -24.637  0.00  0.00    +0.191 C 
ATOM     15  C   UNL     1      34.440 -16.632 -23.322  0.00  0.00    +0.110 C 
ATOM     16  C   UNL     1      34.256 -15.967 -24.639  0.00  0.00    +0.236 C 
ENDROOT
BRANCH  15  19
ATOM     17  O   UNL     1      34.842 -18.825 -24.062  0.00  0.00    -0.270 OA
ATOM     18  N   UNL     1      35.563 -18.201 -21.935  0.00  0.00    -0.297 N 
ATOM     19  C   UNL     1      34.959 -17.991 -23.163  0.00  0.00    +0.251 C 
ATOM     20  H   UNL     1      35.594 -17.452 -21.297  0.00  0.00    +0.150 HD
BRANCH  18  21
ATOM     21  C   UNL     1      36.150 -19.461 -21.540  0.00  0.00    +0.119 C 
BRANCH  21  24
ATOM     22  F   UNL     1      37.042 -21.568 -19.875  0.00  0.00    -0.204 F 
ATOM     23  F   UNL     1      32.677 -22.472 -18.287  0.00  0.00    -0.204 F 
ATOM     24  C   UNL     1      35.225 -20.265 -20.672  0.00  0.00    +0.025 C 
ATOM     25  C   UNL     1      35.730 -21.292 -19.875  0.00  0.00    +0.140 C 
ATOM     26  C   UNL     1      33.858 -19.984 -20.664  0.00  0.00    +0.002 C 
ATOM     27  C   UNL     1      34.871 -22.037 -19.069  0.00  0.00    +0.059 C 
ATOM     28  C   UNL     1      32.998 -20.731 -19.859  0.00  0.00    +0.030 C 
ATOM     29  C   UNL     1      33.504 -21.756 -19.060  0.00  0.00    +0.142 C 
ENDBRANCH  21  24
ENDBRANCH  18  21
ENDBRANCH  15  19
BRANCH  14  30
ATOM     30  O   UNL     1      33.583 -13.941 -25.855  0.00  0.00    -0.502 OA
ATOM     31  H   UNL     1      34.262 -13.993 -26.499  0.00  0.00    +0.292 HD
ENDBRANCH  14  30
TORSDOF 4
ENDMDL
MODEL 4
REMARK VINA RESULT:     -10.7      5.927     11.469
REMARK  Name = 54713659
REMARK  4 active torsions:
REMARK  status: ('A' for Active; 'I' for Inactive)
REMARK    1  A    between atoms: C_14  and  O_30
REMARK    2  A    between atoms: C_15  and  C_19
REMARK    3  A    between atoms: N_18  and  C_21
REMARK    4  A    between atoms: C_21  and  C_24
REMARK                            x       y       z     vdW  Elec       q    Type
REMARK                         _______ _______ _______ _____ _____    ______ ____
ROOT
ATOM      1  O   UNL     1      31.808 -23.893 -14.607  0.00  0.00    -0.334 OA
ATOM      2  O   UNL     1      36.251 -24.079 -15.747  0.00  0.00    -0.268 OA
ATOM      3  O   UNL     1      36.531 -20.896 -19.751  0.00  0.00    -0.283 OA
ATOM      4  N   UNL     1      34.035 -23.811 -15.188  0.00  0.00    -0.251 N 
ATOM      5  N   UNL     1      33.527 -22.607 -17.626  0.00  0.00    -0.275 N 
ATOM      6  C   UNL     1      32.760 -23.182 -15.409  0.00  0.00    +0.215 C 
ATOM      7  C   UNL     1      33.957 -24.709 -14.062  0.00  0.00    +0.107 C 
ATOM      8  C   UNL     1      32.424 -23.229 -16.884  0.00  0.00    +0.147 C 
ATOM      9  C   UNL     1      32.478 -25.053 -14.072  0.00  0.00    +0.164 C 
ATOM     10  C   UNL     1      35.143 -23.601 -15.982  0.00  0.00    +0.268 C 
ATOM     11  C   UNL     1      34.864 -22.768 -17.216  0.00  0.00    +0.143 C 
ATOM     12  C   UNL     1      34.389 -24.016 -12.774  0.00  0.00    +0.024 C 
ATOM     13  C   UNL     1      33.270 -21.889 -18.786  0.00  0.00    +0.074 C 
ATOM     14  C   UNL     1      35.904 -22.226 -17.884  0.00  0.00    +0.191 C 
ATOM     15  C   UNL     1      34.203 -21.300 -19.544  0.00  0.00    +0.110 C 
ATOM     16  C   UNL     1      35.622 -21.425 -19.117  0.00  0.00    +0.236 C 
ENDROOT
BRANCH  15  19
ATOM     17  O   UNL     1      32.581 -20.393 -20.980  0.00  0.00    -0.270 OA
ATOM     18  N   UNL     1      34.835 -20.139 -21.518  0.00  0.00    -0.297 N 
ATOM     19  C   UNL     1      33.776 -20.572 -20.739  0.00  0.00    +0.251 C 
ATOM     20  H   UNL     1      35.750 -20.346 -21.218  0.00  0.00    +0.150 HD
BRANCH  18  21
ATOM     21  C   UNL     1      34.670 -19.400 -22.749  0.00  0.00    +0.119 C 
BRANCH  21  24
ATOM     22  F   UNL     1      34.713 -17.517 -24.860  0.00  0.00    -0.204 F 
ATOM     23  F   UNL     1      34.707 -13.836 -21.886  0.00  0.00    -0.204 F 
ATOM     24  C   UNL     1      34.680 -17.916 -22.521  0.00  0.00    +0.025 C 
ATOM     25  C   UNL     1      34.702 -17.042 -23.607  0.00  0.00    +0.140 C 
ATOM     26  C   UNL     1      34.667 -17.412 -21.219  0.00  0.00    +0.002 C 
ATOM     27  C   UNL     1      34.710 -15.664 -23.393  0.00  0.00    +0.059 C 
ATOM     28  C   UNL     1      34.677 -16.034 -21.006  0.00  0.00    +0.030 C 
ATOM     29  C   UNL     1      34.698 -15.159 -22.092  0.00  0.00    +0.142 C 
ENDBRANCH  21  24
ENDBRANCH  18  21
ENDBRANCH  15  19
BRANCH  14  30
ATOM     30  O   UNL     1      37.219 -22.353 -17.496  0.00  0.00    -0.502 OA
ATOM     31  H   UNL     1      37.789 -21.610 -17.518  0.00  0.00    +0.292 HD
ENDBRANCH  14  30
TORSDOF 4
ENDMDL
MODEL 5
REMARK VINA RESULT:     -10.7      1.586      2.031
REMARK  Name = 54713659
REMARK  4 active torsions:
REMARK  status: ('A' for Active; 'I' for Inactive)
REMARK    1  A    between atoms: C_14  and  O_30
REMARK    2  A    between atoms: C_15  and  C_19
REMARK    3  A    between atoms: N_18  and  C_21
REMARK    4  A    between atoms: C_21  and  C_24
REMARK                            x       y       z     vdW  Elec       q    Type
REMARK                         _______ _______ _______ _____ _____    ______ ____
ROOT
ATOM      1  O   UNL     1      33.254  -6.975 -23.092  0.00  0.00    -0.334 OA
ATOM      2  O   UNL     1      31.046  -9.580 -20.023  0.00  0.00    -0.268 OA
ATOM      3  O   UNL     1      32.306 -14.335 -21.451  0.00  0.00    -0.283 OA
ATOM      4  N   UNL     1      32.294  -8.373 -21.533  0.00  0.00    -0.251 N 
ATOM      5  N   UNL     1      32.683 -10.636 -23.076  0.00  0.00    -0.275 N 
ATOM      6  C   UNL     1      33.237  -8.329 -22.620  0.00  0.00    +0.215 C 
ATOM      7  C   UNL     1      31.938  -7.035 -21.131  0.00  0.00    +0.107 C 
ATOM      8  C   UNL     1      32.813  -9.310 -23.693  0.00  0.00    +0.147 C 
ATOM      9  C   UNL     1      32.189  -6.272 -22.420  0.00  0.00    +0.164 C 
ATOM     10  C   UNL     1      31.790  -9.541 -21.001  0.00  0.00    +0.268 C 
ATOM     11  C   UNL     1      32.187 -10.785 -21.767  0.00  0.00    +0.143 C 
ATOM     12  C   UNL     1      32.817  -6.551 -19.983  0.00  0.00    +0.024 C 
ATOM     13  C   UNL     1      32.997 -11.776 -23.802  0.00  0.00    +0.074 C 
ATOM     14  C   UNL     1      32.037 -11.990 -21.176  0.00  0.00    +0.191 C 
ATOM     15  C   UNL     1      32.897 -13.029 -23.340  0.00  0.00    +0.110 C 
ATOM     16  C   UNL     1      32.408 -13.217 -21.949  0.00  0.00    +0.236 C 
ENDROOT
BRANCH  15  19
ATOM     17  O   UNL     1      32.793 -14.230 -25.356  0.00  0.00    -0.270 OA
ATOM     18  N   UNL     1      34.185 -15.000 -23.652  0.00  0.00    -0.297 N 
ATOM     19  C   UNL     1      33.272 -14.131 -24.226  0.00  0.00    +0.251 C 
ATOM     20  H   UNL     1      34.495 -14.813 -22.736  0.00  0.00    +0.150 HD
BRANCH  18  21
ATOM     21  C   UNL     1      34.708 -16.168 -24.326  0.00  0.00    +0.119 C 
BRANCH  21  24
ATOM     22  F   UNL     1      34.474 -18.868 -25.137  0.00  0.00    -0.204 F 
ATOM     23  F   UNL     1      35.416 -20.496 -20.795  0.00  0.00    -0.204 F 
ATOM     24  C   UNL     1      34.896 -17.322 -23.386  0.00  0.00    +0.025 C 
ATOM     25  C   UNL     1      34.766 -18.631 -23.851  0.00  0.00    +0.140 C 
ATOM     26  C   UNL     1      35.202 -17.086 -22.044  0.00  0.00    +0.002 C 
ATOM     27  C   UNL     1      34.942 -19.703 -22.976  0.00  0.00    +0.059 C 
ATOM     28  C   UNL     1      35.376 -18.158 -21.170  0.00  0.00    +0.030 C 
ATOM     29  C   UNL     1      35.247 -19.467 -21.635  0.00  0.00    +0.142 C 
ENDBRANCH  21  24
ENDBRANCH  18  21
ENDBRANCH  15  19
BRANCH  14  30
ATOM     30  O   UNL     1      31.571 -12.164 -19.893  0.00  0.00    -0.502 OA
ATOM     31  H   UNL     1      30.649 -12.201 -19.729  0.00  0.00    +0.292 HD
ENDBRANCH  14  30
TORSDOF 4
ENDMDL
MODEL 6
REMARK VINA RESULT:     -10.6      8.262     13.293
REMARK  Name = 54713659
REMARK  4 active torsions:
REMARK  status: ('A' for Active; 'I' for Inactive)
REMARK    1  A    between atoms: C_14  and  O_30
REMARK    2  A    between atoms: C_15  and  C_19
REMARK    3  A    between atoms: N_18  and  C_21
REMARK    4  A    between atoms: C_21  and  C_24
REMARK                            x       y       z     vdW  Elec       q    Type
REMARK                         _______ _______ _______ _____ _____    ______ ____
ROOT
ATOM      1  O   UNL     1      38.718 -24.331 -14.024  0.00  0.00    -0.334 OA
ATOM      2  O   UNL     1      34.823 -24.859 -11.653  0.00  0.00    -0.268 OA
ATOM      3  O   UNL     1      31.215 -24.051 -15.198  0.00  0.00    -0.283 OA
ATOM      4  N   UNL     1      36.706 -24.697 -12.965  0.00  0.00    -0.251 N 
ATOM      5  N   UNL     1      35.234 -23.530 -14.997  0.00  0.00    -0.275 N 
ATOM      6  C   UNL     1      37.314 -24.509 -14.256  0.00  0.00    +0.215 C 
ATOM      7  C   UNL     1      37.720 -24.923 -11.966  0.00  0.00    +0.107 C 
ATOM      8  C   UNL     1      36.684 -23.315 -14.940  0.00  0.00    +0.147 C 
ATOM      9  C   UNL     1      38.907 -24.218 -12.599  0.00  0.00    +0.164 C 
ATOM     10  C   UNL     1      35.347 -24.622 -12.739  0.00  0.00    +0.268 C 
ATOM     11  C   UNL     1      34.549 -24.162 -13.941  0.00  0.00    +0.143 C 
ATOM     12  C   UNL     1      37.967 -26.413 -11.758  0.00  0.00    +0.024 C 
ATOM     13  C   UNL     1      34.500 -23.059 -16.076  0.00  0.00    +0.074 C 
ATOM     14  C   UNL     1      33.214 -24.360 -13.951  0.00  0.00    +0.191 C 
ATOM     15  C   UNL     1      33.175 -23.187 -16.215  0.00  0.00    +0.110 C 
ATOM     16  C   UNL     1      32.429 -23.880 -15.132  0.00  0.00    +0.236 C 
ENDROOT
BRANCH  15  19
ATOM     17  O   UNL     1      31.321 -22.499 -17.483  0.00  0.00    -0.270 OA
ATOM     18  N   UNL     1      33.451 -22.326 -18.412  0.00  0.00    -0.297 N 
ATOM     19  C   UNL     1      32.543 -22.641 -17.416  0.00  0.00    +0.251 C 
ATOM     20  H   UNL     1      34.408 -22.486 -18.239  0.00  0.00    +0.150 HD
BRANCH  18  21
ATOM     21  C   UNL     1      33.072 -21.775 -19.694  0.00  0.00    +0.119 C 
BRANCH  21  24
ATOM     22  F   UNL     1      32.462 -19.631 -21.436  0.00  0.00    -0.204 F 
ATOM     23  F   UNL     1      36.986 -18.271 -21.721  0.00  0.00    -0.204 F 
ATOM     24  C   UNL     1      34.115 -20.840 -20.235  0.00  0.00    +0.025 C 
ATOM     25  C   UNL     1      33.746 -19.802 -21.091  0.00  0.00    +0.140 C 
ATOM     26  C   UNL     1      35.454 -21.010 -19.881  0.00  0.00    +0.002 C 
ATOM     27  C   UNL     1      34.716 -18.934 -21.593  0.00  0.00    +0.059 C 
ATOM     28  C   UNL     1      36.423 -20.143 -20.384  0.00  0.00    +0.030 C 
ATOM     29  C   UNL     1      36.055 -19.104 -21.239  0.00  0.00    +0.142 C 
ENDBRANCH  21  24
ENDBRANCH  18  21
ENDBRANCH  15  19
BRANCH  14  30
ATOM     30  O   UNL     1      32.522 -24.990 -12.942  0.00  0.00    -0.502 OA
ATOM     31  H   UNL     1      31.928 -25.686 -13.143  0.00  0.00    +0.292 HD
ENDBRANCH  14  30
TORSDOF 4
ENDMDL
MODEL 7
REMARK VINA RESULT:     -10.5      4.232      9.580
REMARK  Name = 54713659
REMARK  4 active torsions:
REMARK  status: ('A' for Active; 'I' for Inactive)
REMARK    1  A    between atoms: C_14  and  O_30
REMARK    2  A    between atoms: C_15  and  C_19
REMARK    3  A    between atoms: N_18  and  C_21
REMARK    4  A    between atoms: C_21  and  C_24
REMARK                            x       y       z     vdW  Elec       q    Type
REMARK                         _______ _______ _______ _____ _____    ______ ____
ROOT
ATOM      1  O   UNL     1      34.221 -17.853 -20.701  0.00  0.00    -0.334 OA
ATOM      2  O   UNL     1      34.219 -16.020 -24.910  0.00  0.00    -0.268 OA
ATOM      3  O   UNL     1      32.852 -11.162 -24.034  0.00  0.00    -0.283 OA
ATOM      4  N   UNL     1      34.310 -16.798 -22.747  0.00  0.00    -0.251 N 
ATOM      5  N   UNL     1      32.915 -14.582 -21.853  0.00  0.00    -0.275 N 
ATOM      6  C   UNL     1      34.193 -16.566 -21.331  0.00  0.00    +0.215 C 
ATOM      7  C   UNL     1      34.693 -18.166 -22.995  0.00  0.00    +0.107 C 
ATOM      8  C   UNL     1      32.910 -15.811 -21.050  0.00  0.00    +0.147 C 
ATOM      9  C   UNL     1      34.157 -18.844 -21.747  0.00  0.00    +0.164 C 
ATOM     10  C   UNL     1      34.045 -15.844 -23.706  0.00  0.00    +0.268 C 
ATOM     11  C   UNL     1      33.458 -14.563 -23.152  0.00  0.00    +0.143 C 
ATOM     12  C   UNL     1      36.206 -18.299 -23.130  0.00  0.00    +0.024 C 
ATOM     13  C   UNL     1      32.328 -13.426 -21.360  0.00  0.00    +0.074 C 
ATOM     14  C   UNL     1      33.462 -13.456 -23.925  0.00  0.00    +0.191 C 
ATOM     15  C   UNL     1      32.262 -12.261 -22.018  0.00  0.00    +0.110 C 
ATOM     16  C   UNL     1      32.858 -12.200 -23.378  0.00  0.00    +0.236 C 
ENDROOT
BRANCH  15  19
ATOM     17  O   UNL     1      30.561 -11.266 -20.740  0.00  0.00    -0.270 OA
ATOM     18  N   UNL     1      32.305  -9.936 -21.530  0.00  0.00    -0.297 N 
ATOM     19  C   UNL     1      31.614 -11.125 -21.362  0.00  0.00    +0.251 C 
ATOM     20  H   UNL     1      33.140  -9.952 -22.052  0.00  0.00    +0.150 HD
BRANCH  18  21
ATOM     21  C   UNL     1      31.866  -8.674 -20.979  0.00  0.00    +0.119 C 
BRANCH  21  24
ATOM     22  F   UNL     1      32.186  -5.899 -20.531  0.00  0.00    -0.204 F 
ATOM     23  F   UNL     1      31.022  -4.810 -24.987  0.00  0.00    -0.204 F 
ATOM     24  C   UNL     1      31.641  -7.643 -22.047  0.00  0.00    +0.025 C 
ATOM     25  C   UNL     1      31.816  -6.289 -21.759  0.00  0.00    +0.140 C 
ATOM     26  C   UNL     1      31.257  -8.039 -23.329  0.00  0.00    +0.002 C 
ATOM     27  C   UNL     1      31.607  -5.332 -22.751  0.00  0.00    +0.059 C 
ATOM     28  C   UNL     1      31.047  -7.082 -24.320  0.00  0.00    +0.030 C 
ATOM     29  C   UNL     1      31.223  -5.728 -24.033  0.00  0.00    +0.142 C 
ENDBRANCH  21  24
ENDBRANCH  18  21
ENDBRANCH  15  19
BRANCH  14  30
ATOM     30  O   UNL     1      34.001 -13.403 -25.190  0.00  0.00    -0.502 OA
ATOM     31  H   UNL     1      34.927 -13.479 -25.309  0.00  0.00    +0.292 HD
ENDBRANCH  14  30
TORSDOF 4
ENDMDL
MODEL 8
REMARK VINA RESULT:     -10.2      4.493      9.239
REMARK  Name = 54713659
REMARK  4 active torsions:
REMARK  status: ('A' for Active; 'I' for Inactive)
REMARK    1  A    between atoms: C_14  and  O_30
REMARK    2  A    between atoms: C_15  and  C_19
REMARK    3  A    between atoms: N_18  and  C_21
REMARK    4  A    between atoms: C_21  and  C_24
REMARK                            x       y       z     vdW  Elec       q    Type
REMARK                         _______ _______ _______ _____ _____    ______ ____
ROOT
ATOM      1  O   UNL     1      34.123 -15.944 -25.985  0.00  0.00    -0.334 OA
ATOM      2  O   UNL     1      34.312 -16.317 -21.414  0.00  0.00    -0.268 OA
ATOM      3  O   UNL     1      31.691 -12.211 -19.829  0.00  0.00    -0.283 OA
ATOM      4  N   UNL     1      34.046 -16.098 -23.689  0.00  0.00    -0.251 N 
ATOM      5  N   UNL     1      33.198 -13.483 -23.375  0.00  0.00    -0.275 N 
ATOM      6  C   UNL     1      33.495 -15.397 -24.819  0.00  0.00    +0.215 C 
ATOM      7  C   UNL     1      34.785 -17.253 -24.133  0.00  0.00    +0.107 C 
ATOM      8  C   UNL     1      33.752 -13.913 -24.664  0.00  0.00    +0.147 C 
ATOM      9  C   UNL     1      35.177 -16.820 -25.536  0.00  0.00    +0.164 C 
ATOM     10  C   UNL     1      33.907 -15.677 -22.383  0.00  0.00    +0.268 C 
ATOM     11  C   UNL     1      33.259 -14.316 -22.242  0.00  0.00    +0.143 C 
ATOM     12  C   UNL     1      33.911 -18.502 -24.129  0.00  0.00    +0.024 C 
ATOM     13  C   UNL     1      32.653 -12.215 -23.238  0.00  0.00    +0.074 C 
ATOM     14  C   UNL     1      32.777 -13.946 -21.036  0.00  0.00    +0.191 C 
ATOM     15  C   UNL     1      32.141 -11.720 -22.105  0.00  0.00    +0.110 C 
ATOM     16  C   UNL     1      32.159 -12.589 -20.899  0.00  0.00    +0.236 C 
ENDROOT
BRANCH  15  19
ATOM     17  O   UNL     1      30.536 -10.109 -22.694  0.00  0.00    -0.270 OA
ATOM     18  N   UNL     1      32.386  -9.453 -21.437  0.00  0.00    -0.297 N 
ATOM     19  C   UNL     1      31.595 -10.362 -22.119  0.00  0.00    +0.251 C 
ATOM     20  H   UNL     1      33.215  -9.779 -21.016  0.00  0.00    +0.150 HD
BRANCH  18  21
ATOM     21  C   UNL     1      32.062  -8.050 -21.312  0.00  0.00    +0.119 C 
BRANCH  21  24
ATOM     22  F   UNL     1      30.219  -6.295 -22.548  0.00  0.00    -0.204 F 
ATOM     23  F   UNL     1      33.247  -5.184 -26.012  0.00  0.00    -0.204 F 
ATOM     24  C   UNL     1      32.376  -7.285 -22.565  0.00  0.00    +0.025 C 
ATOM     25  C   UNL     1      31.421  -6.436 -23.124  0.00  0.00    +0.140 C 
ATOM     26  C   UNL     1      33.626  -7.425 -23.171  0.00  0.00    +0.002 C 
ATOM     27  C   UNL     1      31.715  -5.726 -24.288  0.00  0.00    +0.059 C 
ATOM     28  C   UNL     1      33.918  -6.716 -24.335  0.00  0.00    +0.030 C 
ATOM     29  C   UNL     1      32.964  -5.865 -24.894  0.00  0.00    +0.142 C 
ENDBRANCH  21  24
ENDBRANCH  18  21
ENDBRANCH  15  19
BRANCH  14  30
ATOM     30  O   UNL     1      32.806 -14.747 -19.916  0.00  0.00    -0.502 OA
ATOM     31  H   UNL     1      33.063 -15.645 -19.989  0.00  0.00    +0.292 HD
ENDBRANCH  14  30
TORSDOF 4
ENDMDL
MODEL 9
REMARK VINA RESULT:     -10.0      7.113     12.427
REMARK  Name = 54713659
REMARK  4 active torsions:
REMARK  status: ('A' for Active; 'I' for Inactive)
REMARK    1  A    between atoms: C_14  and  O_30
REMARK    2  A    between atoms: C_15  and  C_19
REMARK    3  A    between atoms: N_18  and  C_21
REMARK    4  A    between atoms: C_21  and  C_24
REMARK                            x       y       z     vdW  Elec       q    Type
REMARK                         _______ _______ _______ _____ _____    ______ ____
ROOT
ATOM      1  O   UNL     1      38.667 -24.222 -14.026  0.00  0.00    -0.334 OA
ATOM      2  O   UNL     1      34.235 -23.964 -12.856  0.00  0.00    -0.268 OA
ATOM      3  O   UNL     1      31.924 -23.075 -17.340  0.00  0.00    -0.283 OA
ATOM      4  N   UNL     1      36.408 -24.198 -13.574  0.00  0.00    -0.251 N 
ATOM      5  N   UNL     1      35.760 -23.075 -16.018  0.00  0.00    -0.275 N 
ATOM      6  C   UNL     1      37.372 -24.235 -14.643  0.00  0.00    +0.215 C 
ATOM      7  C   UNL     1      37.058 -24.447 -12.311  0.00  0.00    +0.107 C 
ATOM      8  C   UNL     1      37.154 -23.049 -15.558  0.00  0.00    +0.147 C 
ATOM      9  C   UNL     1      38.470 -23.980 -12.618  0.00  0.00    +0.164 C 
ATOM     10  C   UNL     1      35.070 -23.920 -13.757  0.00  0.00    +0.268 C 
ATOM     11  C   UNL     1      34.719 -23.491 -15.166  0.00  0.00    +0.143 C 
ATOM     12  C   UNL     1      36.997 -25.925 -11.941  0.00  0.00    +0.024 C 
ATOM     13  C   UNL     1      35.438 -22.631 -17.292  0.00  0.00    +0.074 C 
ATOM     14  C   UNL     1      33.425 -23.510 -15.549  0.00  0.00    +0.191 C 
ATOM     15  C   UNL     1      34.200 -22.595 -17.800  0.00  0.00    +0.110 C 
ATOM     16  C   UNL     1      33.084 -23.061 -16.937  0.00  0.00    +0.236 C 
ENDROOT
BRANCH  15  19
ATOM     17  O   UNL     1      32.966 -22.294 -19.776  0.00  0.00    -0.270 OA
ATOM     18  N   UNL     1      35.131 -21.438 -19.655  0.00  0.00    -0.297 N 
ATOM     19  C   UNL     1      34.020 -22.105 -19.167  0.00  0.00    +0.251 C 
ATOM     20  H   UNL     1      35.918 -21.351 -19.069  0.00  0.00    +0.150 HD
BRANCH  18  21
ATOM     21  C   UNL     1      35.199 -20.864 -20.980  0.00  0.00    +0.119 C 
BRANCH  21  24
ATOM     22  F   UNL     1      36.962 -18.665 -21.223  0.00  0.00    -0.204 F 
ATOM     23  F   UNL     1      33.431 -15.518 -21.053  0.00  0.00    -0.204 F 
ATOM     24  C   UNL     1      34.729 -19.439 -21.000  0.00  0.00    +0.025 C 
ATOM     25  C   UNL     1      35.652 -18.400 -21.121  0.00  0.00    +0.140 C 
ATOM     26  C   UNL     1      33.367 -19.152 -20.895  0.00  0.00    +0.002 C 
ATOM     27  C   UNL     1      35.214 -17.076 -21.140  0.00  0.00    +0.059 C 
ATOM     28  C   UNL     1      32.930 -17.828 -20.913  0.00  0.00    +0.030 C 
ATOM     29  C   UNL     1      33.852 -16.790 -21.036  0.00  0.00    +0.142 C 
ENDBRANCH  21  24
ENDBRANCH  18  21
ENDBRANCH  15  19
BRANCH  14  30
ATOM     30  O   UNL     1      32.390 -23.928 -14.744  0.00  0.00    -0.502 OA
ATOM     31  H   UNL     1      31.604 -23.422 -14.690  0.00  0.00    +0.292 HD
ENDBRANCH  14  30
TORSDOF 4
ENDMDL
