MODEL 1
REMARK VINA RESULT:      -9.1      0.000      0.000
REMARK  Name = 447405
REMARK  6 active torsions:
REMARK  status: ('A' for Active; 'I' for Inactive)
REMARK    1  A    between atoms: C_3  and  N_9
REMARK    2  A    between atoms: C_4  and  C_17
REMARK    3  A    between atoms: C_17  and  O_18
REMARK    4  A    between atoms: O_18  and  P_19
REMARK    5  A    between atoms: P_19  and  O_21
REMARK    6  A    between atoms: P_19  and  O_23
REMARK                            x       y       z     vdW  Elec       q    Type
REMARK                         _______ _______ _______ _____ _____    ______ ____
ROOT
ATOM      1  F   UNL     1      38.292 -23.408 -15.551  0.00  0.00    -0.234 F 
ATOM      2  O   UNL     1      35.736 -24.881 -15.876  0.00  0.00    -0.334 OA
ATOM      3  C   UNL     1      35.530 -23.516 -16.267  0.00  0.00    +0.202 C 
ATOM      4  C   UNL     1      36.683 -24.920 -14.791  0.00  0.00    +0.180 C 
ATOM      5  C   UNL     1      36.128 -22.647 -15.175  0.00  0.00    +0.089 C 
ATOM      6  C   UNL     1      37.252 -23.517 -14.676  0.00  0.00    +0.195 C 
ENDROOT
BRANCH   3   9
ATOM      7  O   UNL     1      34.301 -22.988 -18.768  0.00  0.00    -0.252 OA
ATOM      8  O   UNL     1      30.151 -22.646 -16.816  0.00  0.00    -0.270 OA
ATOM      9  N   UNL     1      34.129 -23.282 -16.460  0.00  0.00    -0.219 N 
ATOM     10  N   UNL     1      32.238 -22.820 -17.781  0.00  0.00    -0.236 N 
ATOM     11  C   UNL     1      33.313 -23.315 -15.348  0.00  0.00    +0.071 C 
ATOM     12  C   UNL     1      33.620 -23.029 -17.741  0.00  0.00    +0.315 C 
ATOM     13  C   UNL     1      31.990 -23.114 -15.390  0.00  0.00    +0.047 C 
ATOM     14  C   UNL     1      31.359 -22.839 -16.708  0.00  0.00    +0.250 C 
ATOM     15  C   UNL     1      31.109 -23.150 -14.183  0.00  0.00    +0.037 C 
ATOM     16  H   UNL     1      31.846 -22.640 -18.667  0.00  0.00    +0.159 HD
ENDBRANCH   3   9
BRANCH   4  17
ATOM     17  C   UNL     1      35.942 -25.367 -13.539  0.00  0.00    +0.186 C 
BRANCH  17  18
ATOM     18  O   UNL     1      36.712 -25.009 -12.403  0.00  0.00    -0.271 OA
BRANCH  18  19
ATOM     19  P   UNL     1      36.046 -24.035 -11.294  0.00  0.00    +0.473 P 
ATOM     20  O   UNL     1      36.960 -22.979 -10.748  0.00  0.00    -0.227 OA
BRANCH  19  21
ATOM     21  O   UNL     1      35.439 -25.059 -10.199  0.00  0.00    -0.303 OA
ATOM     22  H   UNL     1      34.488 -25.170 -10.353  0.00  0.00    +0.222 HD
ENDBRANCH  19  21
BRANCH  19  23
ATOM     23  O   UNL     1      34.729 -23.475 -12.049  0.00  0.00    -0.303 OA
ATOM     24  H   UNL     1      33.999 -24.104 -11.936  0.00  0.00    +0.222 HD
ENDBRANCH  19  23
ENDBRANCH  18  19
ENDBRANCH  17  18
ENDBRANCH   4  17
TORSDOF 6
ENDMDL
MODEL 2
REMARK VINA RESULT:      -9.0      2.699      4.019
REMARK  Name = 447405
REMARK  6 active torsions:
REMARK  status: ('A' for Active; 'I' for Inactive)
REMARK    1  A    between atoms: C_3  and  N_9
REMARK    2  A    between atoms: C_4  and  C_17
REMARK    3  A    between atoms: C_17  and  O_18
REMARK    4  A    between atoms: O_18  and  P_19
REMARK    5  A    between atoms: P_19  and  O_21
REMARK    6  A    between atoms: P_19  and  O_23
REMARK                            x       y       z     vdW  Elec       q    Type
REMARK                         _______ _______ _______ _____ _____    ______ ____
ROOT
ATOM      1  F   UNL     1      35.465 -24.769 -12.442  0.00  0.00    -0.234 F 
ATOM      2  O   UNL     1      35.991 -22.827 -14.624  0.00  0.00    -0.334 OA
ATOM      3  C   UNL     1      34.719 -23.448 -14.862  0.00  0.00    +0.202 C 
ATOM      4  C   UNL     1      36.878 -23.790 -14.022  0.00  0.00    +0.180 C 
ATOM      5  C   UNL     1      34.920 -24.944 -14.695  0.00  0.00    +0.089 C 
ATOM      6  C   UNL     1      36.020 -24.991 -13.667  0.00  0.00    +0.195 C 
ENDROOT
BRANCH   3   9
ATOM      7  O   UNL     1      32.036 -23.685 -15.748  0.00  0.00    -0.252 OA
ATOM      8  O   UNL     1      33.111 -22.029 -19.901  0.00  0.00    -0.270 OA
ATOM      9  N   UNL     1      34.252 -23.090 -16.169  0.00  0.00    -0.219 N 
ATOM     10  N   UNL     1      32.587 -22.858 -17.814  0.00  0.00    -0.236 N 
ATOM     11  C   UNL     1      35.173 -22.593 -17.067  0.00  0.00    +0.071 C 
ATOM     12  C   UNL     1      32.901 -23.247 -16.508  0.00  0.00    +0.315 C 
ATOM     13  C   UNL     1      34.869 -22.223 -18.317  0.00  0.00    +0.047 C 
ATOM     14  C   UNL     1      33.458 -22.352 -18.767  0.00  0.00    +0.250 C 
ATOM     15  C   UNL     1      35.870 -21.685 -19.287  0.00  0.00    +0.037 C 
ATOM     16  H   UNL     1      31.645 -22.955 -18.087  0.00  0.00    +0.159 HD
ENDBRANCH   3   9
BRANCH   4  17
ATOM     17  C   UNL     1      37.970 -24.115 -15.032  0.00  0.00    +0.186 C 
BRANCH  17  18
ATOM     18  O   UNL     1      39.146 -24.477 -14.328  0.00  0.00    -0.271 OA
BRANCH  18  19
ATOM     19  P   UNL     1      39.852 -25.891 -14.681  0.00  0.00    +0.473 P 
ATOM     20  O   UNL     1      40.963 -26.292 -13.756  0.00  0.00    -0.227 OA
BRANCH  19  21
ATOM     21  O   UNL     1      40.269 -25.733 -16.236  0.00  0.00    -0.303 OA
ATOM     22  H   UNL     1      40.953 -26.385 -16.455  0.00  0.00    +0.222 HD
ENDBRANCH  19  21
BRANCH  19  23
ATOM     23  O   UNL     1      38.603 -26.916 -14.734  0.00  0.00    -0.303 OA
ATOM     24  H   UNL     1      37.873 -26.513 -15.230  0.00  0.00    +0.222 HD
ENDBRANCH  19  23
ENDBRANCH  18  19
ENDBRANCH  17  18
ENDBRANCH   4  17
TORSDOF 6
ENDMDL
MODEL 3
REMARK VINA RESULT:      -8.6      3.435      6.491
REMARK  Name = 447405
REMARK  6 active torsions:
REMARK  status: ('A' for Active; 'I' for Inactive)
REMARK    1  A    between atoms: C_3  and  N_9
REMARK    2  A    between atoms: C_4  and  C_17
REMARK    3  A    between atoms: C_17  and  O_18
REMARK    4  A    between atoms: O_18  and  P_19
REMARK    5  A    between atoms: P_19  and  O_21
REMARK    6  A    between atoms: P_19  and  O_23
REMARK                            x       y       z     vdW  Elec       q    Type
REMARK                         _______ _______ _______ _____ _____    ______ ____
ROOT
ATOM      1  F   UNL     1      30.242 -24.474 -12.183  0.00  0.00    -0.234 F 
ATOM      2  O   UNL     1      31.889 -25.346 -14.492  0.00  0.00    -0.334 OA
ATOM      3  C   UNL     1      32.529 -24.221 -13.874  0.00  0.00    +0.202 C 
ATOM      4  C   UNL     1      30.460 -25.184 -14.397  0.00  0.00    +0.180 C 
ATOM      5  C   UNL     1      31.460 -23.163 -13.666  0.00  0.00    +0.089 C 
ATOM      6  C   UNL     1      30.230 -24.008 -13.464  0.00  0.00    +0.195 C 
ENDROOT
BRANCH   3   9
ATOM      7  O   UNL     1      35.221 -23.934 -13.030  0.00  0.00    -0.252 OA
ATOM      8  O   UNL     1      36.521 -22.480 -17.195  0.00  0.00    -0.270 OA
ATOM      9  N   UNL     1      33.606 -23.770 -14.705  0.00  0.00    -0.219 N 
ATOM     10  N   UNL     1      35.855 -23.210 -15.111  0.00  0.00    -0.236 N 
ATOM     11  C   UNL     1      33.316 -23.449 -16.015  0.00  0.00    +0.071 C 
ATOM     12  C   UNL     1      34.905 -23.662 -14.190  0.00  0.00    +0.315 C 
ATOM     13  C   UNL     1      34.228 -23.016 -16.894  0.00  0.00    +0.047 C 
ATOM     14  C   UNL     1      35.635 -22.871 -16.438  0.00  0.00    +0.250 C 
ATOM     15  C   UNL     1      33.910 -22.669 -18.313  0.00  0.00    +0.037 C 
ATOM     16  H   UNL     1      36.779 -23.123 -14.783  0.00  0.00    +0.159 HD
ENDBRANCH   3   9
BRANCH   4  17
ATOM     17  C   UNL     1      29.921 -24.946 -15.800  0.00  0.00    +0.186 C 
BRANCH  17  18
ATOM     18  O   UNL     1      28.658 -24.309 -15.699  0.00  0.00    -0.271 OA
BRANCH  18  19
ATOM     19  P   UNL     1      28.351 -23.046 -16.665  0.00  0.00    +0.473 P 
ATOM     20  O   UNL     1      27.442 -23.339 -17.821  0.00  0.00    -0.227 OA
BRANCH  19  21
ATOM     21  O   UNL     1      29.822 -22.500 -17.061  0.00  0.00    -0.303 OA
ATOM     22  H   UNL     1      29.736 -21.775 -17.700  0.00  0.00    +0.222 HD
ENDBRANCH  19  21
BRANCH  19  23
ATOM     23  O   UNL     1      27.806 -21.927 -15.632  0.00  0.00    -0.303 OA
ATOM     24  H   UNL     1      28.112 -21.050 -15.913  0.00  0.00    +0.222 HD
ENDBRANCH  19  23
ENDBRANCH  18  19
ENDBRANCH  17  18
ENDBRANCH   4  17
TORSDOF 6
ENDMDL
MODEL 4
REMARK VINA RESULT:      -8.5      1.128      1.566
REMARK  Name = 447405
REMARK  6 active torsions:
REMARK  status: ('A' for Active; 'I' for Inactive)
REMARK    1  A    between atoms: C_3  and  N_9
REMARK    2  A    between atoms: C_4  and  C_17
REMARK    3  A    between atoms: C_17  and  O_18
REMARK    4  A    between atoms: O_18  and  P_19
REMARK    5  A    between atoms: P_19  and  O_21
REMARK    6  A    between atoms: P_19  and  O_23
REMARK                            x       y       z     vdW  Elec       q    Type
REMARK                         _______ _______ _______ _____ _____    ______ ____
ROOT
ATOM      1  F   UNL     1      37.559 -23.012 -16.479  0.00  0.00    -0.234 F 
ATOM      2  O   UNL     1      35.131 -24.624 -15.922  0.00  0.00    -0.334 OA
ATOM      3  C   UNL     1      34.724 -23.349 -16.441  0.00  0.00    +0.202 C 
ATOM      4  C   UNL     1      36.316 -24.449 -15.122  0.00  0.00    +0.180 C 
ATOM      5  C   UNL     1      35.501 -22.292 -15.675  0.00  0.00    +0.089 C 
ATOM      6  C   UNL     1      36.780 -23.023 -15.361  0.00  0.00    +0.195 C 
ENDROOT
BRANCH   3   9
ATOM      7  O   UNL     1      32.956 -22.572 -18.516  0.00  0.00    -0.252 OA
ATOM      8  O   UNL     1      29.317 -22.864 -15.719  0.00  0.00    -0.270 OA
ATOM      9  N   UNL     1      33.305 -23.209 -16.300  0.00  0.00    -0.219 N 
ATOM     10  N   UNL     1      31.151 -22.722 -17.110  0.00  0.00    -0.236 N 
ATOM     11  C   UNL     1      32.753 -23.470 -15.063  0.00  0.00    +0.071 C 
ATOM     12  C   UNL     1      32.518 -22.817 -17.391  0.00  0.00    +0.315 C 
ATOM     13  C   UNL     1      31.444 -23.376 -14.798  0.00  0.00    +0.047 C 
ATOM     14  C   UNL     1      30.528 -22.968 -15.896  0.00  0.00    +0.250 C 
ATOM     15  C   UNL     1      30.849 -23.660 -13.456  0.00  0.00    +0.037 C 
ATOM     16  H   UNL     1      30.567 -22.449 -17.856  0.00  0.00    +0.159 HD
ENDBRANCH   3   9
BRANCH   4  17
ATOM     17  C   UNL     1      35.945 -24.719 -13.670  0.00  0.00    +0.186 C 
BRANCH  17  18
ATOM     18  O   UNL     1      36.415 -23.645 -12.874  0.00  0.00    -0.271 OA
BRANCH  18  19
ATOM     19  P   UNL     1      37.277 -23.987 -11.546  0.00  0.00    +0.473 P 
ATOM     20  O   UNL     1      36.509 -23.927 -10.259  0.00  0.00    -0.227 OA
BRANCH  19  21
ATOM     21  O   UNL     1      38.545 -22.987 -11.644  0.00  0.00    -0.303 OA
ATOM     22  H   UNL     1      39.148 -23.297 -12.337  0.00  0.00    +0.222 HD
ENDBRANCH  19  21
BRANCH  19  23
ATOM     23  O   UNL     1      37.917 -25.432 -11.893  0.00  0.00    -0.303 OA
ATOM     24  H   UNL     1      38.765 -25.530 -11.433  0.00  0.00    +0.222 HD
ENDBRANCH  19  23
ENDBRANCH  18  19
ENDBRANCH  17  18
ENDBRANCH   4  17
TORSDOF 6
ENDMDL
MODEL 5
REMARK VINA RESULT:      -8.4      2.863      4.099
REMARK  Name = 447405
REMARK  6 active torsions:
REMARK  status: ('A' for Active; 'I' for Inactive)
REMARK    1  A    between atoms: C_3  and  N_9
REMARK    2  A    between atoms: C_4  and  C_17
REMARK    3  A    between atoms: C_17  and  O_18
REMARK    4  A    between atoms: O_18  and  P_19
REMARK    5  A    between atoms: P_19  and  O_21
REMARK    6  A    between atoms: P_19  and  O_23
REMARK                            x       y       z     vdW  Elec       q    Type
REMARK                         _______ _______ _______ _____ _____    ______ ____
ROOT
ATOM      1  F   UNL     1      35.802 -23.949 -10.510  0.00  0.00    -0.234 F 
ATOM      2  O   UNL     1      37.201 -23.668 -13.112  0.00  0.00    -0.334 OA
ATOM      3  C   UNL     1      35.838 -23.251 -13.279  0.00  0.00    +0.202 C 
ATOM      4  C   UNL     1      37.248 -24.748 -12.160  0.00  0.00    +0.180 C 
ATOM      5  C   UNL     1      34.967 -24.323 -12.647  0.00  0.00    +0.089 C 
ATOM      6  C   UNL     1      35.862 -24.832 -11.547  0.00  0.00    +0.195 C 
ENDROOT
BRANCH   3   9
ATOM      7  O   UNL     1      37.749 -22.448 -15.214  0.00  0.00    -0.252 OA
ATOM      8  O   UNL     1      34.612 -22.576 -18.574  0.00  0.00    -0.270 OA
ATOM      9  N   UNL     1      35.565 -23.062 -14.673  0.00  0.00    -0.219 N 
ATOM     10  N   UNL     1      36.174 -22.516 -16.879  0.00  0.00    -0.236 N 
ATOM     11  C   UNL     1      34.276 -23.285 -15.111  0.00  0.00    +0.071 C 
ATOM     12  C   UNL     1      36.582 -22.661 -15.549  0.00  0.00    +0.315 C 
ATOM     13  C   UNL     1      33.888 -23.144 -16.385  0.00  0.00    +0.047 C 
ATOM     14  C   UNL     1      34.901 -22.723 -17.389  0.00  0.00    +0.250 C 
ATOM     15  C   UNL     1      32.491 -23.387 -16.856  0.00  0.00    +0.037 C 
ATOM     16  H   UNL     1      36.865 -22.235 -17.523  0.00  0.00    +0.159 HD
ENDBRANCH   3   9
BRANCH   4  17
ATOM     17  C   UNL     1      37.647 -26.013 -12.907  0.00  0.00    +0.186 C 
BRANCH  17  18
ATOM     18  O   UNL     1      39.054 -26.012 -13.084  0.00  0.00    -0.271 OA
BRANCH  18  19
ATOM     19  P   UNL     1      39.643 -25.913 -14.588  0.00  0.00    +0.473 P 
ATOM     20  O   UNL     1      40.934 -26.644 -14.813  0.00  0.00    -0.227 OA
BRANCH  19  21
ATOM     21  O   UNL     1      39.690 -24.322 -14.878  0.00  0.00    -0.303 OA
ATOM     22  H   UNL     1      39.279 -23.847 -14.139  0.00  0.00    +0.222 HD
ENDBRANCH  19  21
BRANCH  19  23
ATOM     23  O   UNL     1      38.404 -26.420 -15.496  0.00  0.00    -0.303 OA
ATOM     24  H   UNL     1      38.321 -25.851 -16.278  0.00  0.00    +0.222 HD
ENDBRANCH  19  23
ENDBRANCH  18  19
ENDBRANCH  17  18
ENDBRANCH   4  17
TORSDOF 6
ENDMDL
MODEL 6
REMARK VINA RESULT:      -8.3      3.917      6.348
REMARK  Name = 447405
REMARK  6 active torsions:
REMARK  status: ('A' for Active; 'I' for Inactive)
REMARK    1  A    between atoms: C_3  and  N_9
REMARK    2  A    between atoms: C_4  and  C_17
REMARK    3  A    between atoms: C_17  and  O_18
REMARK    4  A    between atoms: O_18  and  P_19
REMARK    5  A    between atoms: P_19  and  O_21
REMARK    6  A    between atoms: P_19  and  O_23
REMARK                            x       y       z     vdW  Elec       q    Type
REMARK                         _______ _______ _______ _____ _____    ______ ____
ROOT
ATOM      1  F   UNL     1      32.221 -24.970 -13.999  0.00  0.00    -0.234 F 
ATOM      2  O   UNL     1      31.901 -23.899 -16.748  0.00  0.00    -0.334 OA
ATOM      3  C   UNL     1      33.271 -23.741 -16.353  0.00  0.00    +0.202 C 
ATOM      4  C   UNL     1      31.056 -23.724 -15.594  0.00  0.00    +0.180 C 
ATOM      5  C   UNL     1      33.263 -23.129 -14.963  0.00  0.00    +0.089 C 
ATOM      6  C   UNL     1      31.985 -23.686 -14.393  0.00  0.00    +0.195 C 
ENDROOT
BRANCH   3   9
ATOM      7  O   UNL     1      36.069 -23.287 -16.404  0.00  0.00    -0.252 OA
ATOM      8  O   UNL     1      35.709 -20.597 -20.116  0.00  0.00    -0.270 OA
ATOM      9  N   UNL     1      33.953 -22.927 -17.316  0.00  0.00    -0.219 N 
ATOM     10  N   UNL     1      35.875 -21.948 -18.255  0.00  0.00    -0.236 N 
ATOM     11  C   UNL     1      33.195 -22.317 -18.294  0.00  0.00    +0.071 C 
ATOM     12  C   UNL     1      35.344 -22.766 -17.253  0.00  0.00    +0.315 C 
ATOM     13  C   UNL     1      33.707 -21.533 -19.250  0.00  0.00    +0.047 C 
ATOM     14  C   UNL     1      35.176 -21.304 -19.265  0.00  0.00    +0.250 C 
ATOM     15  C   UNL     1      32.882 -20.873 -20.308  0.00  0.00    +0.037 C 
ATOM     16  H   UNL     1      36.851 -21.813 -18.241  0.00  0.00    +0.159 HD
ENDBRANCH   3   9
BRANCH   4  17
ATOM     17  C   UNL     1      30.270 -22.434 -15.780  0.00  0.00    +0.186 C 
BRANCH  17  18
ATOM     18  O   UNL     1      29.535 -22.520 -16.988  0.00  0.00    -0.271 OA
BRANCH  18  19
ATOM     19  P   UNL     1      27.923 -22.652 -16.904  0.00  0.00    +0.473 P 
ATOM     20  O   UNL     1      27.162 -21.475 -17.437  0.00  0.00    -0.227 OA
BRANCH  19  21
ATOM     21  O   UNL     1      27.648 -23.009 -15.350  0.00  0.00    -0.303 OA
ATOM     22  H   UNL     1      27.555 -23.969 -15.251  0.00  0.00    +0.222 HD
ENDBRANCH  19  21
BRANCH  19  23
ATOM     23  O   UNL     1      27.635 -24.052 -17.662  0.00  0.00    -0.303 OA
ATOM     24  H   UNL     1      28.443 -24.349 -18.111  0.00  0.00    +0.222 HD
ENDBRANCH  19  23
ENDBRANCH  18  19
ENDBRANCH  17  18
ENDBRANCH   4  17
TORSDOF 6
ENDMDL
MODEL 7
REMARK VINA RESULT:      -8.2      8.536     11.230
REMARK  Name = 447405
REMARK  6 active torsions:
REMARK  status: ('A' for Active; 'I' for Inactive)
REMARK    1  A    between atoms: C_3  and  N_9
REMARK    2  A    between atoms: C_4  and  C_17
REMARK    3  A    between atoms: C_17  and  O_18
REMARK    4  A    between atoms: O_18  and  P_19
REMARK    5  A    between atoms: P_19  and  O_21
REMARK    6  A    between atoms: P_19  and  O_23
REMARK                            x       y       z     vdW  Elec       q    Type
REMARK                         _______ _______ _______ _____ _____    ______ ____
ROOT
ATOM      1  F   UNL     1      35.373 -16.844 -25.520  0.00  0.00    -0.234 F 
ATOM      2  O   UNL     1      35.732 -16.815 -22.575  0.00  0.00    -0.334 OA
ATOM      3  C   UNL     1      35.744 -18.178 -23.023  0.00  0.00    +0.202 C 
ATOM      4  C   UNL     1      34.817 -16.061 -23.392  0.00  0.00    +0.180 C 
ATOM      5  C   UNL     1      34.554 -18.350 -23.950  0.00  0.00    +0.089 C 
ATOM      6  C   UNL     1      34.430 -16.971 -24.544  0.00  0.00    +0.195 C 
ENDROOT
BRANCH   3   9
ATOM      7  O   UNL     1      37.992 -18.957 -21.479  0.00  0.00    -0.252 OA
ATOM      8  O   UNL     1      35.377 -21.537 -18.713  0.00  0.00    -0.270 OA
ATOM      9  N   UNL     1      35.698 -19.053 -21.889  0.00  0.00    -0.219 N 
ATOM     10  N   UNL     1      36.676 -20.240 -20.108  0.00  0.00    -0.236 N 
ATOM     11  C   UNL     1      34.469 -19.558 -21.516  0.00  0.00    +0.071 C 
ATOM     12  C   UNL     1      36.870 -19.377 -21.192  0.00  0.00    +0.315 C 
ATOM     13  C   UNL     1      34.287 -20.384 -20.479  0.00  0.00    +0.047 C 
ATOM     14  C   UNL     1      35.474 -20.783 -19.678  0.00  0.00    +0.250 C 
ATOM     15  C   UNL     1      32.954 -20.928 -20.078  0.00  0.00    +0.037 C 
ATOM     16  H   UNL     1      37.479 -20.488 -19.595  0.00  0.00    +0.159 HD
ENDBRANCH   3   9
BRANCH   4  17
ATOM     17  C   UNL     1      33.631 -15.663 -22.523  0.00  0.00    +0.186 C 
BRANCH  17  18
ATOM     18  O   UNL     1      33.665 -14.260 -22.323  0.00  0.00    -0.271 OA
BRANCH  18  19
ATOM     19  P   UNL     1      32.987 -13.304 -23.441  0.00  0.00    +0.473 P 
ATOM     20  O   UNL     1      32.554 -14.004 -24.695  0.00  0.00    -0.227 OA
BRANCH  19  21
ATOM     21  O   UNL     1      34.074 -12.124 -23.647  0.00  0.00    -0.303 OA
ATOM     22  H   UNL     1      33.618 -11.268 -23.682  0.00  0.00    +0.222 HD
ENDBRANCH  19  21
BRANCH  19  23
ATOM     23  O   UNL     1      31.799 -12.576 -22.620  0.00  0.00    -0.303 OA
ATOM     24  H   UNL     1      30.953 -13.006 -22.824  0.00  0.00    +0.222 HD
ENDBRANCH  19  23
ENDBRANCH  18  19
ENDBRANCH  17  18
ENDBRANCH   4  17
TORSDOF 6
ENDMDL
MODEL 8
REMARK VINA RESULT:      -8.1     10.409     12.536
REMARK  Name = 447405
REMARK  6 active torsions:
REMARK  status: ('A' for Active; 'I' for Inactive)
REMARK    1  A    between atoms: C_3  and  N_9
REMARK    2  A    between atoms: C_4  and  C_17
REMARK    3  A    between atoms: C_17  and  O_18
REMARK    4  A    between atoms: O_18  and  P_19
REMARK    5  A    between atoms: P_19  and  O_21
REMARK    6  A    between atoms: P_19  and  O_23
REMARK                            x       y       z     vdW  Elec       q    Type
REMARK                         _______ _______ _______ _____ _____    ______ ____
ROOT
ATOM      1  F   UNL     1      32.706 -13.894 -19.620  0.00  0.00    -0.234 F 
ATOM      2  O   UNL     1      34.553 -14.201 -21.922  0.00  0.00    -0.334 OA
ATOM      3  C   UNL     1      33.392 -13.480 -22.361  0.00  0.00    +0.202 C 
ATOM      4  C   UNL     1      34.157 -15.169 -20.932  0.00  0.00    +0.180 C 
ATOM      5  C   UNL     1      32.180 -14.244 -21.858  0.00  0.00    +0.089 C 
ATOM      6  C   UNL     1      32.712 -14.855 -20.588  0.00  0.00    +0.195 C 
ENDROOT
BRANCH   3   9
ATOM      7  O   UNL     1      34.031 -11.105 -23.773  0.00  0.00    -0.252 OA
ATOM      8  O   UNL     1      33.447 -13.191 -27.830  0.00  0.00    -0.270 OA
ATOM      9  N   UNL     1      33.420 -13.356 -23.789  0.00  0.00    -0.219 N 
ATOM     10  N   UNL     1      33.736 -12.158 -25.789  0.00  0.00    -0.236 N 
ATOM     11  C   UNL     1      33.112 -14.474 -24.536  0.00  0.00    +0.071 C 
ATOM     12  C   UNL     1      33.748 -12.134 -24.390  0.00  0.00    +0.315 C 
ATOM     13  C   UNL     1      33.100 -14.493 -25.875  0.00  0.00    +0.047 C 
ATOM     14  C   UNL     1      33.438 -13.241 -26.602  0.00  0.00    +0.250 C 
ATOM     15  C   UNL     1      32.767 -15.706 -26.682  0.00  0.00    +0.037 C 
ATOM     16  H   UNL     1      33.963 -11.315 -26.245  0.00  0.00    +0.159 HD
ENDBRANCH   3   9
BRANCH   4  17
ATOM     17  C   UNL     1      34.338 -16.556 -21.534  0.00  0.00    +0.186 C 
BRANCH  17  18
ATOM     18  O   UNL     1      35.272 -17.275 -20.746  0.00  0.00    -0.271 OA
BRANCH  18  19
ATOM     19  P   UNL     1      35.857 -18.670 -21.323  0.00  0.00    +0.473 P 
ATOM     20  O   UNL     1      36.630 -19.490 -20.333  0.00  0.00    -0.227 OA
BRANCH  19  21
ATOM     21  O   UNL     1      36.676 -18.225 -22.644  0.00  0.00    -0.303 OA
ATOM     22  H   UNL     1      37.421 -18.831 -22.781  0.00  0.00    +0.222 HD
ENDBRANCH  19  21
BRANCH  19  23
ATOM     23  O   UNL     1      34.541 -19.391 -21.927  0.00  0.00    -0.303 OA
ATOM     24  H   UNL     1      34.202 -20.036 -21.286  0.00  0.00    +0.222 HD
ENDBRANCH  19  23
ENDBRANCH  18  19
ENDBRANCH  17  18
ENDBRANCH   4  17
TORSDOF 6
ENDMDL
MODEL 9
REMARK VINA RESULT:      -7.9      2.632      3.891
REMARK  Name = 447405
REMARK  6 active torsions:
REMARK  status: ('A' for Active; 'I' for Inactive)
REMARK    1  A    between atoms: C_3  and  N_9
REMARK    2  A    between atoms: C_4  and  C_17
REMARK    3  A    between atoms: C_17  and  O_18
REMARK    4  A    between atoms: O_18  and  P_19
REMARK    5  A    between atoms: P_19  and  O_21
REMARK    6  A    between atoms: P_19  and  O_23
REMARK                            x       y       z     vdW  Elec       q    Type
REMARK                         _______ _______ _______ _____ _____    ______ ____
ROOT
ATOM      1  F   UNL     1      36.532 -24.616 -11.543  0.00  0.00    -0.234 F 
ATOM      2  O   UNL     1      35.818 -22.839 -13.809  0.00  0.00    -0.334 OA
ATOM      3  C   UNL     1      34.651 -23.580 -13.425  0.00  0.00    +0.202 C 
ATOM      4  C   UNL     1      36.982 -23.668 -13.629  0.00  0.00    +0.180 C 
ATOM      5  C   UNL     1      35.072 -25.034 -13.302  0.00  0.00    +0.089 C 
ATOM      6  C   UNL     1      36.510 -24.899 -12.876  0.00  0.00    +0.195 C 
ENDROOT
BRANCH   3   9
ATOM      7  O   UNL     1      31.892 -23.305 -12.829  0.00  0.00    -0.252 OA
ATOM      8  O   UNL     1      30.834 -22.817 -17.277  0.00  0.00    -0.270 OA
ATOM      9  N   UNL     1      33.617 -23.379 -14.397  0.00  0.00    -0.219 N 
ATOM     10  N   UNL     1      31.379 -23.063 -15.050  0.00  0.00    -0.236 N 
ATOM     11  C   UNL     1      33.988 -23.315 -15.724  0.00  0.00    +0.071 C 
ATOM     12  C   UNL     1      32.280 -23.256 -13.997  0.00  0.00    +0.315 C 
ATOM     13  C   UNL     1      33.123 -23.132 -16.730  0.00  0.00    +0.047 C 
ATOM     14  C   UNL     1      31.680 -22.988 -16.403  0.00  0.00    +0.250 C 
ATOM     15  C   UNL     1      33.527 -23.063 -18.167  0.00  0.00    +0.037 C 
ATOM     16  H   UNL     1      30.430 -22.972 -14.805  0.00  0.00    +0.159 HD
ENDBRANCH   3   9
BRANCH   4  17
ATOM     17  C   UNL     1      37.545 -23.991 -15.006  0.00  0.00    +0.186 C 
BRANCH  17  18
ATOM     18  O   UNL     1      38.940 -24.207 -14.887  0.00  0.00    -0.271 OA
BRANCH  18  19
ATOM     19  P   UNL     1      39.494 -25.727 -14.947  0.00  0.00    +0.473 P 
ATOM     20  O   UNL     1      40.713 -25.924 -15.799  0.00  0.00    -0.227 OA
BRANCH  19  21
ATOM     21  O   UNL     1      38.198 -26.591 -15.384  0.00  0.00    -0.303 OA
ATOM     22  H   UNL     1      38.116 -26.585 -16.350  0.00  0.00    +0.222 HD
ENDBRANCH  19  21
BRANCH  19  23
ATOM     23  O   UNL     1      39.684 -26.105 -13.386  0.00  0.00    -0.303 OA
ATOM     24  H   UNL     1      39.839 -27.059 -13.300  0.00  0.00    +0.222 HD
ENDBRANCH  19  23
ENDBRANCH  18  19
ENDBRANCH  17  18
ENDBRANCH   4  17
TORSDOF 6
ENDMDL
