MODEL 1
REMARK VINA RESULT:     -10.8      0.000      0.000
REMARK  Name = 446240
REMARK  5 active torsions:
REMARK  status: ('A' for Active; 'I' for Inactive)
REMARK    1  A    between atoms: N_2  and  C_17
REMARK    2  A    between atoms: C_3  and  C_5
REMARK    3  A    between atoms: C_6  and  S_11
REMARK    4  A    between atoms: S_11  and  N_14
REMARK    5  A    between atoms: C_17  and  C_21
REMARK                            x       y       z     vdW  Elec       q    Type
REMARK                         _______ _______ _______ _____ _____    ______ ____
ROOT
ATOM      1  O   UNL     1      32.401 -23.273 -16.610  0.00  0.00    -0.270 OA
ATOM      2  N   UNL     1      34.382 -22.717 -17.678  0.00  0.00    -0.297 N 
ATOM      3  C   UNL     1      33.637 -23.139 -16.571  0.00  0.00    +0.246 C 
ATOM      4  H   UNL     1      35.358 -22.632 -17.578  0.00  0.00    +0.150 HD
ENDROOT
BRANCH   3   5
ATOM      5  C   UNL     1      34.369 -23.397 -15.342  0.00  0.00    +0.053 C 
ATOM      6  C   UNL     1      35.775 -23.892 -12.983  0.00  0.00    +0.122 C 
ATOM      7  C   UNL     1      33.750 -24.070 -14.290  0.00  0.00    +0.006 C 
ATOM      8  C   UNL     1      35.692 -22.973 -15.216  0.00  0.00    +0.006 C 
ATOM      9  C   UNL     1      34.452 -24.317 -13.110  0.00  0.00    +0.020 C 
ATOM     10  C   UNL     1      36.395 -23.220 -14.036  0.00  0.00    +0.020 C 
BRANCH   6  11
ATOM     11  S   UNL     1      36.653 -24.204 -11.507  0.00  0.00    +0.057 S 
ATOM     12  O   UNL     1      37.604 -25.279 -11.756  0.00  0.00    -0.153 OA
ATOM     13  O   UNL     1      37.123 -22.933 -10.972  0.00  0.00    -0.153 OA
BRANCH  11  14
ATOM     14  N   UNL     1      35.404 -24.794 -10.502  0.00  0.00    -0.203 NA
ATOM     15  H   UNL     1      35.542 -24.451  -9.552  0.00  0.00    +0.144 HD
ATOM     16  H   UNL     1      35.420 -25.813 -10.503  0.00  0.00    +0.144 HD
ENDBRANCH  11  14
ENDBRANCH   6  11
ENDBRANCH   3   5
BRANCH   2  17
ATOM     17  C   UNL     1      33.797 -22.398 -18.961  0.00  0.00    +0.119 C 
BRANCH  17  21
ATOM     18  F   UNL     1      32.530 -20.367 -20.461  0.00  0.00    -0.202 F 
ATOM     19  F   UNL     1      33.921 -18.406 -21.748  0.00  0.00    -0.199 F 
ATOM     20  F   UNL     1      36.651 -18.351 -21.619  0.00  0.00    -0.202 F 
ATOM     21  C   UNL     1      34.557 -21.316 -19.672  0.00  0.00    +0.027 C 
ATOM     22  C   UNL     1      33.867 -20.347 -20.393  0.00  0.00    +0.167 C 
ATOM     23  C   UNL     1      35.945 -21.294 -19.601  0.00  0.00    +0.002 C 
ATOM     24  C   UNL     1      34.577 -19.344 -21.052  0.00  0.00    +0.194 C 
ATOM     25  C   UNL     1      36.654 -20.291 -20.261  0.00  0.00    +0.032 C 
ATOM     26  C   UNL     1      35.970 -19.316 -20.986  0.00  0.00    +0.170 C 
ENDBRANCH  17  21
ENDBRANCH   2  17
TORSDOF 5
ENDMDL
MODEL 2
REMARK VINA RESULT:     -10.8      4.782      7.287
REMARK  Name = 446240
REMARK  5 active torsions:
REMARK  status: ('A' for Active; 'I' for Inactive)
REMARK    1  A    between atoms: N_2  and  C_17
REMARK    2  A    between atoms: C_3  and  C_5
REMARK    3  A    between atoms: C_6  and  S_11
REMARK    4  A    between atoms: S_11  and  N_14
REMARK    5  A    between atoms: C_17  and  C_21
REMARK                            x       y       z     vdW  Elec       q    Type
REMARK                         _______ _______ _______ _____ _____    ______ ____
ROOT
ATOM      1  O   UNL     1      36.833 -18.332 -22.125  0.00  0.00    -0.270 OA
ATOM      2  N   UNL     1      34.709 -17.402 -22.122  0.00  0.00    -0.297 N 
ATOM      3  C   UNL     1      35.643 -18.381 -21.765  0.00  0.00    +0.246 C 
ATOM      4  H   UNL     1      33.783 -17.503 -21.803  0.00  0.00    +0.150 HD
ENDROOT
BRANCH   3   5
ATOM      5  C   UNL     1      35.159 -19.493 -20.963  0.00  0.00    +0.053 C 
ATOM      6  C   UNL     1      34.231 -21.626 -19.422  0.00  0.00    +0.122 C 
ATOM      7  C   UNL     1      33.789 -19.684 -20.790  0.00  0.00    +0.006 C 
ATOM      8  C   UNL     1      36.066 -20.369 -20.367  0.00  0.00    +0.006 C 
ATOM      9  C   UNL     1      33.324 -20.750 -20.019  0.00  0.00    +0.020 C 
ATOM     10  C   UNL     1      35.603 -21.435 -19.595  0.00  0.00    +0.020 C 
BRANCH   6  11
ATOM     11  S   UNL     1      33.649 -22.961 -18.459  0.00  0.00    +0.057 S 
ATOM     12  O   UNL     1      32.345 -22.603 -17.918  0.00  0.00    -0.153 OA
ATOM     13  O   UNL     1      33.800 -24.187 -19.231  0.00  0.00    -0.153 OA
BRANCH  11  14
ATOM     14  N   UNL     1      34.791 -22.968 -17.189  0.00  0.00    -0.203 NA
ATOM     15  H   UNL     1      35.510 -23.666 -17.382  0.00  0.00    +0.144 HD
ATOM     16  H   UNL     1      34.323 -23.197 -16.312  0.00  0.00    +0.144 HD
ENDBRANCH  11  14
ENDBRANCH   6  11
ENDBRANCH   3   5
BRANCH   2  17
ATOM     17  C   UNL     1      35.030 -16.250 -22.935  0.00  0.00    +0.119 C 
BRANCH  17  21
ATOM     18  F   UNL     1      34.172 -15.414 -20.377  0.00  0.00    -0.202 F 
ATOM     19  F   UNL     1      32.400 -13.373 -20.017  0.00  0.00    -0.199 F 
ATOM     20  F   UNL     1      31.378 -12.045 -22.178  0.00  0.00    -0.202 F 
ATOM     21  C   UNL     1      34.054 -15.128 -22.730  0.00  0.00    +0.027 C 
ATOM     22  C   UNL     1      33.676 -14.769 -21.442  0.00  0.00    +0.167 C 
ATOM     23  C   UNL     1      33.541 -14.458 -23.834  0.00  0.00    +0.002 C 
ATOM     24  C   UNL     1      32.769 -13.725 -21.255  0.00  0.00    +0.194 C 
ATOM     25  C   UNL     1      32.634 -13.414 -23.647  0.00  0.00    +0.032 C 
ATOM     26  C   UNL     1      32.248 -13.048 -22.358  0.00  0.00    +0.170 C 
ENDBRANCH  17  21
ENDBRANCH   2  17
TORSDOF 5
ENDMDL
MODEL 3
REMARK VINA RESULT:     -10.7      5.070      7.586
REMARK  Name = 446240
REMARK  5 active torsions:
REMARK  status: ('A' for Active; 'I' for Inactive)
REMARK    1  A    between atoms: N_2  and  C_17
REMARK    2  A    between atoms: C_3  and  C_5
REMARK    3  A    between atoms: C_6  and  S_11
REMARK    4  A    between atoms: S_11  and  N_14
REMARK    5  A    between atoms: C_17  and  C_21
REMARK                            x       y       z     vdW  Elec       q    Type
REMARK                         _______ _______ _______ _____ _____    ______ ____
ROOT
ATOM      1  O   UNL     1      36.051 -18.327 -22.954  0.00  0.00    -0.270 OA
ATOM      2  N   UNL     1      34.536 -17.012 -21.791  0.00  0.00    -0.297 N 
ATOM      3  C   UNL     1      35.220 -18.209 -22.036  0.00  0.00    +0.246 C 
ATOM      4  H   UNL     1      33.892 -16.988 -21.046  0.00  0.00    +0.150 HD
ENDROOT
BRANCH   3   5
ATOM      5  C   UNL     1      34.903 -19.338 -21.177  0.00  0.00    +0.053 C 
ATOM      6  C   UNL     1      34.295 -21.506 -19.530  0.00  0.00    +0.122 C 
ATOM      7  C   UNL     1      35.929 -20.104 -20.626  0.00  0.00    +0.006 C 
ATOM      8  C   UNL     1      33.572 -19.655 -20.904  0.00  0.00    +0.006 C 
ATOM      9  C   UNL     1      35.626 -21.189 -19.803  0.00  0.00    +0.020 C 
ATOM     10  C   UNL     1      33.268 -20.739 -20.081  0.00  0.00    +0.020 C 
BRANCH   6  11
ATOM     11  S   UNL     1      33.915 -22.863 -18.499  0.00  0.00    +0.057 S 
ATOM     12  O   UNL     1      33.867 -24.065 -19.320  0.00  0.00    -0.153 OA
ATOM     13  O   UNL     1      34.790 -22.817 -17.334  0.00  0.00    -0.153 OA
BRANCH  11  14
ATOM     14  N   UNL     1      32.328 -22.465 -18.008  0.00  0.00    -0.203 NA
ATOM     15  H   UNL     1      32.243 -21.452 -17.921  0.00  0.00    +0.144 HD
ATOM     16  H   UNL     1      32.131 -22.902 -17.108  0.00  0.00    +0.144 HD
ENDBRANCH  11  14
ENDBRANCH   6  11
ENDBRANCH   3   5
BRANCH   2  17
ATOM     17  C   UNL     1      34.723 -15.810 -22.572  0.00  0.00    +0.119 C 
BRANCH  17  21
ATOM     18  F   UNL     1      34.223 -13.529 -24.162  0.00  0.00    -0.202 F 
ATOM     19  F   UNL     1      32.514 -11.549 -23.392  0.00  0.00    -0.199 F 
ATOM     20  F   UNL     1      31.203 -11.721 -20.999  0.00  0.00    -0.202 F 
ATOM     21  C   UNL     1      33.784 -14.716 -22.154  0.00  0.00    +0.027 C 
ATOM     22  C   UNL     1      33.585 -13.621 -22.987  0.00  0.00    +0.167 C 
ATOM     23  C   UNL     1      33.121 -14.812 -20.936  0.00  0.00    +0.002 C 
ATOM     24  C   UNL     1      32.711 -12.607 -22.595  0.00  0.00    +0.194 C 
ATOM     25  C   UNL     1      32.247 -13.797 -20.545  0.00  0.00    +0.032 C 
ATOM     26  C   UNL     1      32.042 -12.695 -21.374  0.00  0.00    +0.170 C 
ENDBRANCH  17  21
ENDBRANCH   2  17
TORSDOF 5
ENDMDL
MODEL 4
REMARK VINA RESULT:     -10.5      1.336      1.867
REMARK  Name = 446240
REMARK  5 active torsions:
REMARK  status: ('A' for Active; 'I' for Inactive)
REMARK    1  A    between atoms: N_2  and  C_17
REMARK    2  A    between atoms: C_3  and  C_5
REMARK    3  A    between atoms: C_6  and  S_11
REMARK    4  A    between atoms: S_11  and  N_14
REMARK    5  A    between atoms: C_17  and  C_21
REMARK                            x       y       z     vdW  Elec       q    Type
REMARK                         _______ _______ _______ _____ _____    ______ ____
ROOT
ATOM      1  O   UNL     1      32.481 -23.536 -16.367  0.00  0.00    -0.270 OA
ATOM      2  N   UNL     1      34.293 -22.801 -17.613  0.00  0.00    -0.297 N 
ATOM      3  C   UNL     1      33.694 -23.270 -16.438  0.00  0.00    +0.246 C 
ATOM      4  H   UNL     1      35.259 -22.610 -17.599  0.00  0.00    +0.150 HD
ENDROOT
BRANCH   3   5
ATOM      5  C   UNL     1      34.552 -23.415 -15.273  0.00  0.00    +0.053 C 
ATOM      6  C   UNL     1      36.197 -23.694 -13.036  0.00  0.00    +0.122 C 
ATOM      7  C   UNL     1      34.044 -23.970 -14.099  0.00  0.00    +0.006 C 
ATOM      8  C   UNL     1      35.883 -23.001 -15.330  0.00  0.00    +0.006 C 
ATOM      9  C   UNL     1      34.866 -24.109 -12.980  0.00  0.00    +0.020 C 
ATOM     10  C   UNL     1      36.705 -23.140 -14.212  0.00  0.00    +0.020 C 
BRANCH   6  11
ATOM     11  S   UNL     1      37.225 -23.870 -11.637  0.00  0.00    +0.057 S 
ATOM     12  O   UNL     1      38.262 -22.848 -11.697  0.00  0.00    -0.153 OA
ATOM     13  O   UNL     1      36.382 -23.977 -10.454  0.00  0.00    -0.153 OA
BRANCH  11  14
ATOM     14  N   UNL     1      37.935 -25.394 -11.944  0.00  0.00    -0.203 NA
ATOM     15  H   UNL     1      38.947 -25.325 -11.836  0.00  0.00    +0.144 HD
ATOM     16  H   UNL     1      37.713 -25.687 -12.895  0.00  0.00    +0.144 HD
ENDBRANCH  11  14
ENDBRANCH   6  11
ENDBRANCH   3   5
BRANCH   2  17
ATOM     17  C   UNL     1      33.571 -22.580 -18.845  0.00  0.00    +0.119 C 
BRANCH  17  21
ATOM     18  F   UNL     1      36.331 -22.042 -19.110  0.00  0.00    -0.202 F 
ATOM     19  F   UNL     1      37.282 -19.892 -20.492  0.00  0.00    -0.199 F 
ATOM     20  F   UNL     1      35.545 -18.153 -21.690  0.00  0.00    -0.202 F 
ATOM     21  C   UNL     1      34.101 -21.398 -19.604  0.00  0.00    +0.027 C 
ATOM     22  C   UNL     1      35.473 -21.194 -19.694  0.00  0.00    +0.167 C 
ATOM     23  C   UNL     1      33.211 -20.520 -20.211  0.00  0.00    +0.002 C 
ATOM     24  C   UNL     1      35.961 -20.095 -20.400  0.00  0.00    +0.194 C 
ATOM     25  C   UNL     1      33.700 -19.421 -20.917  0.00  0.00    +0.032 C 
ATOM     26  C   UNL     1      35.075 -19.209 -21.011  0.00  0.00    +0.170 C 
ENDBRANCH  17  21
ENDBRANCH   2  17
TORSDOF 5
ENDMDL
MODEL 5
REMARK VINA RESULT:     -10.5      4.728      6.902
REMARK  Name = 446240
REMARK  5 active torsions:
REMARK  status: ('A' for Active; 'I' for Inactive)
REMARK    1  A    between atoms: N_2  and  C_17
REMARK    2  A    between atoms: C_3  and  C_5
REMARK    3  A    between atoms: C_6  and  S_11
REMARK    4  A    between atoms: S_11  and  N_14
REMARK    5  A    between atoms: C_17  and  C_21
REMARK                            x       y       z     vdW  Elec       q    Type
REMARK                         _______ _______ _______ _____ _____    ______ ____
ROOT
ATOM      1  O   UNL     1      36.923 -18.609 -21.595  0.00  0.00    -0.270 OA
ATOM      2  N   UNL     1      34.883 -18.479 -22.689  0.00  0.00    -0.297 N 
ATOM      3  C   UNL     1      35.739 -18.979 -21.702  0.00  0.00    +0.246 C 
ATOM      4  H   UNL     1      33.958 -18.815 -22.717  0.00  0.00    +0.150 HD
ENDROOT
BRANCH   3   5
ATOM      5  C   UNL     1      35.195 -19.982 -20.802  0.00  0.00    +0.053 C 
ATOM      6  C   UNL     1      34.151 -21.910 -19.076  0.00  0.00    +0.122 C 
ATOM      7  C   UNL     1      36.054 -20.822 -20.094  0.00  0.00    +0.006 C 
ATOM      8  C   UNL     1      33.815 -20.105 -20.647  0.00  0.00    +0.006 C 
ATOM      9  C   UNL     1      35.533 -21.786 -19.231  0.00  0.00    +0.020 C 
ATOM     10  C   UNL     1      33.292 -21.069 -19.785  0.00  0.00    +0.020 C 
BRANCH   6  11
ATOM     11  S   UNL     1      33.499 -23.115 -17.995  0.00  0.00    +0.057 S 
ATOM     12  O   UNL     1      32.201 -22.654 -17.521  0.00  0.00    -0.153 OA
ATOM     13  O   UNL     1      33.613 -24.419 -18.634  0.00  0.00    -0.153 OA
BRANCH  11  14
ATOM     14  N   UNL     1      34.618 -23.037 -16.706  0.00  0.00    -0.203 NA
ATOM     15  H   UNL     1      34.460 -22.183 -16.171  0.00  0.00    +0.144 HD
ATOM     16  H   UNL     1      35.566 -23.034 -17.080  0.00  0.00    +0.144 HD
ENDBRANCH  11  14
ENDBRANCH   6  11
ENDBRANCH   3   5
BRANCH   2  17
ATOM     17  C   UNL     1      35.282 -17.497 -23.672  0.00  0.00    +0.119 C 
BRANCH  17  21
ATOM     18  F   UNL     1      33.831 -16.237 -25.743  0.00  0.00    -0.202 F 
ATOM     19  F   UNL     1      32.531 -13.865 -25.393  0.00  0.00    -0.199 F 
ATOM     20  F   UNL     1      32.598 -12.609 -22.965  0.00  0.00    -0.202 F 
ATOM     21  C   UNL     1      34.564 -16.191 -23.486  0.00  0.00    +0.027 C 
ATOM     22  C   UNL     1      33.869 -15.628 -24.550  0.00  0.00    +0.167 C 
ATOM     23  C   UNL     1      34.602 -15.560 -22.249  0.00  0.00    +0.002 C 
ATOM     24  C   UNL     1      33.204 -14.415 -24.373  0.00  0.00    +0.194 C 
ATOM     25  C   UNL     1      33.937 -14.346 -22.072  0.00  0.00    +0.032 C 
ATOM     26  C   UNL     1      33.238 -13.774 -23.134  0.00  0.00    +0.170 C 
ENDBRANCH  17  21
ENDBRANCH   2  17
TORSDOF 5
ENDMDL
MODEL 6
REMARK VINA RESULT:     -10.1      5.529      8.631
REMARK  Name = 446240
REMARK  5 active torsions:
REMARK  status: ('A' for Active; 'I' for Inactive)
REMARK    1  A    between atoms: N_2  and  C_17
REMARK    2  A    between atoms: C_3  and  C_5
REMARK    3  A    between atoms: C_6  and  S_11
REMARK    4  A    between atoms: S_11  and  N_14
REMARK    5  A    between atoms: C_17  and  C_21
REMARK                            x       y       z     vdW  Elec       q    Type
REMARK                         _______ _______ _______ _____ _____    ______ ____
ROOT
ATOM      1  O   UNL     1      33.889 -23.837 -19.207  0.00  0.00    -0.270 OA
ATOM      2  N   UNL     1      33.858 -22.472 -17.332  0.00  0.00    -0.297 N 
ATOM      3  C   UNL     1      33.998 -22.703 -18.706  0.00  0.00    +0.246 C 
ATOM      4  H   UNL     1      33.956 -21.549 -17.003  0.00  0.00    +0.150 HD
ENDROOT
BRANCH   3   5
ATOM      5  C   UNL     1      34.305 -21.553 -19.540  0.00  0.00    +0.053 C 
ATOM      6  C   UNL     1      34.893 -19.347 -21.144  0.00  0.00    +0.122 C 
ATOM      7  C   UNL     1      33.273 -20.765 -20.049  0.00  0.00    +0.006 C 
ATOM      8  C   UNL     1      35.632 -21.237 -19.832  0.00  0.00    +0.006 C 
ATOM      9  C   UNL     1      33.566 -19.663 -20.851  0.00  0.00    +0.020 C 
ATOM     10  C   UNL     1      35.926 -20.134 -20.635  0.00  0.00    +0.020 C 
BRANCH   6  11
ATOM     11  S   UNL     1      35.260 -17.965 -22.146  0.00  0.00    +0.057 S 
ATOM     12  O   UNL     1      34.509 -18.086 -23.388  0.00  0.00    -0.153 OA
ATOM     13  O   UNL     1      35.132 -16.761 -21.337  0.00  0.00    -0.153 OA
BRANCH  11  14
ATOM     14  N   UNL     1      36.916 -18.232 -22.474  0.00  0.00    -0.203 NA
ATOM     15  H   UNL     1      37.444 -18.202 -21.603  0.00  0.00    +0.144 HD
ATOM     16  H   UNL     1      37.258 -17.507 -23.105  0.00  0.00    +0.144 HD
ENDBRANCH  11  14
ENDBRANCH   6  11
ENDBRANCH   3   5
BRANCH   2  17
ATOM     17  C   UNL     1      33.577 -23.515 -16.371  0.00  0.00    +0.119 C 
BRANCH  17  21
ATOM     18  F   UNL     1      32.611 -24.967 -14.149  0.00  0.00    -0.202 F 
ATOM     19  F   UNL     1      29.969 -25.038 -13.477  0.00  0.00    -0.199 F 
ATOM     20  F   UNL     1      28.136 -23.669 -14.974  0.00  0.00    -0.202 F 
ATOM     21  C   UNL     1      32.124 -23.558 -15.996  0.00  0.00    +0.027 C 
ATOM     22  C   UNL     1      31.719 -24.294 -14.888  0.00  0.00    +0.167 C 
ATOM     23  C   UNL     1      31.199 -22.859 -16.761  0.00  0.00    +0.002 C 
ATOM     24  C   UNL     1      30.368 -24.332 -14.543  0.00  0.00    +0.194 C 
ATOM     25  C   UNL     1      29.848 -22.897 -16.416  0.00  0.00    +0.032 C 
ATOM     26  C   UNL     1      29.433 -23.633 -15.307  0.00  0.00    +0.170 C 
ENDBRANCH  17  21
ENDBRANCH   2  17
TORSDOF 5
ENDMDL
MODEL 7
REMARK VINA RESULT:     -10.0      5.329      8.395
REMARK  Name = 446240
REMARK  5 active torsions:
REMARK  status: ('A' for Active; 'I' for Inactive)
REMARK    1  A    between atoms: N_2  and  C_17
REMARK    2  A    between atoms: C_3  and  C_5
REMARK    3  A    between atoms: C_6  and  S_11
REMARK    4  A    between atoms: S_11  and  N_14
REMARK    5  A    between atoms: C_17  and  C_21
REMARK                            x       y       z     vdW  Elec       q    Type
REMARK                         _______ _______ _______ _____ _____    ______ ____
ROOT
ATOM      1  O   UNL     1      33.597 -24.065 -18.590  0.00  0.00    -0.270 OA
ATOM      2  N   UNL     1      34.568 -22.928 -16.818  0.00  0.00    -0.297 N 
ATOM      3  C   UNL     1      34.175 -23.052 -18.156  0.00  0.00    +0.246 C 
ATOM      4  H   UNL     1      35.021 -22.099 -16.541  0.00  0.00    +0.150 HD
ENDROOT
BRANCH   3   5
ATOM      5  C   UNL     1      34.494 -21.946 -19.043  0.00  0.00    +0.053 C 
ATOM      6  C   UNL     1      35.105 -19.822 -20.747  0.00  0.00    +0.122 C 
ATOM      7  C   UNL     1      33.468 -21.222 -19.651  0.00  0.00    +0.006 C 
ATOM      8  C   UNL     1      35.825 -21.607 -19.285  0.00  0.00    +0.006 C 
ATOM      9  C   UNL     1      33.773 -20.161 -20.504  0.00  0.00    +0.020 C 
ATOM     10  C   UNL     1      36.131 -20.546 -20.138  0.00  0.00    +0.020 C 
BRANCH   6  11
ATOM     11  S   UNL     1      35.486 -18.493 -21.812  0.00  0.00    +0.057 S 
ATOM     12  O   UNL     1      36.919 -18.508 -22.071  0.00  0.00    -0.153 OA
ATOM     13  O   UNL     1      34.549 -18.513 -22.928  0.00  0.00    -0.153 OA
BRANCH  11  14
ATOM     14  N   UNL     1      35.119 -17.158 -20.812  0.00  0.00    -0.203 NA
ATOM     15  H   UNL     1      34.350 -17.402 -20.187  0.00  0.00    +0.144 HD
ATOM     16  H   UNL     1      34.847 -16.364 -21.391  0.00  0.00    +0.144 HD
ENDBRANCH  11  14
ENDBRANCH   6  11
ENDBRANCH   3   5
BRANCH   2  17
ATOM     17  C   UNL     1      34.345 -23.950 -15.821  0.00  0.00    +0.119 C 
BRANCH  17  21
ATOM     18  F   UNL     1      35.754 -26.396 -15.696  0.00  0.00    -0.202 F 
ATOM     19  F   UNL     1      37.938 -26.753 -14.103  0.00  0.00    -0.199 F 
ATOM     20  F   UNL     1      38.847 -24.701 -12.541  0.00  0.00    -0.202 F 
ATOM     21  C   UNL     1      35.548 -24.154 -14.945  0.00  0.00    +0.027 C 
ATOM     22  C   UNL     1      36.193 -25.385 -14.934  0.00  0.00    +0.167 C 
ATOM     23  C   UNL     1      36.004 -23.105 -14.156  0.00  0.00    +0.002 C 
ATOM     24  C   UNL     1      37.310 -25.570 -14.120  0.00  0.00    +0.194 C 
ATOM     25  C   UNL     1      37.121 -23.291 -13.341  0.00  0.00    +0.032 C 
ATOM     26  C   UNL     1      37.774 -24.523 -13.323  0.00  0.00    +0.170 C 
ENDBRANCH  17  21
ENDBRANCH   2  17
TORSDOF 5
ENDMDL
MODEL 8
REMARK VINA RESULT:     -10.0      7.582     10.636
REMARK  Name = 446240
REMARK  5 active torsions:
REMARK  status: ('A' for Active; 'I' for Inactive)
REMARK    1  A    between atoms: N_2  and  C_17
REMARK    2  A    between atoms: C_3  and  C_5
REMARK    3  A    between atoms: C_6  and  S_11
REMARK    4  A    between atoms: S_11  and  N_14
REMARK    5  A    between atoms: C_17  and  C_21
REMARK                            x       y       z     vdW  Elec       q    Type
REMARK                         _______ _______ _______ _____ _____    ______ ____
ROOT
ATOM      1  O   UNL     1      34.636 -16.514 -23.856  0.00  0.00    -0.270 OA
ATOM      2  N   UNL     1      34.768 -17.100 -21.616  0.00  0.00    -0.297 N 
ATOM      3  C   UNL     1      34.379 -16.259 -22.665  0.00  0.00    +0.246 C 
ATOM      4  H   UNL     1      34.532 -16.838 -20.697  0.00  0.00    +0.150 HD
ENDROOT
BRANCH   3   5
ATOM      5  C   UNL     1      33.670 -15.042 -22.307  0.00  0.00    +0.053 C 
ATOM      6  C   UNL     1      32.309 -12.705 -21.619  0.00  0.00    +0.122 C 
ATOM      7  C   UNL     1      33.154 -14.888 -21.020  0.00  0.00    +0.006 C 
ATOM      8  C   UNL     1      33.507 -14.026 -23.249  0.00  0.00    +0.006 C 
ATOM      9  C   UNL     1      32.473 -13.720 -20.676  0.00  0.00    +0.020 C 
ATOM     10  C   UNL     1      32.826 -12.858 -22.906  0.00  0.00    +0.020 C 
BRANCH   6  11
ATOM     11  S   UNL     1      31.459 -11.243 -21.187  0.00  0.00    +0.057 S 
ATOM     12  O   UNL     1      32.093 -10.123 -21.870  0.00  0.00    -0.153 OA
ATOM     13  O   UNL     1      30.030 -11.474 -21.351  0.00  0.00    -0.153 OA
BRANCH  11  14
ATOM     14  N   UNL     1      31.810 -11.142 -19.518  0.00  0.00    -0.203 NA
ATOM     15  H   UNL     1      31.634 -10.192 -19.191  0.00  0.00    +0.144 HD
ATOM     16  H   UNL     1      32.789 -11.380 -19.362  0.00  0.00    +0.144 HD
ENDBRANCH  11  14
ENDBRANCH   6  11
ENDBRANCH   3   5
BRANCH   2  17
ATOM     17  C   UNL     1      35.499 -18.332 -21.809  0.00  0.00    +0.119 C 
BRANCH  17  21
ATOM     18  F   UNL     1      37.108 -20.154 -20.369  0.00  0.00    -0.202 F 
ATOM     19  F   UNL     1      36.058 -22.196 -18.897  0.00  0.00    -0.199 F 
ATOM     20  F   UNL     1      33.349 -22.544 -18.772  0.00  0.00    -0.202 F 
ATOM     21  C   UNL     1      34.927 -19.458 -20.997  0.00  0.00    +0.027 C 
ATOM     22  C   UNL     1      35.779 -20.318 -20.313  0.00  0.00    +0.167 C 
ATOM     23  C   UNL     1      33.550 -19.628 -20.938  0.00  0.00    +0.002 C 
ATOM     24  C   UNL     1      35.244 -21.363 -19.560  0.00  0.00    +0.194 C 
ATOM     25  C   UNL     1      33.015 -20.674 -20.185  0.00  0.00    +0.032 C 
ATOM     26  C   UNL     1      33.862 -21.541 -19.496  0.00  0.00    +0.170 C 
ENDBRANCH  17  21
ENDBRANCH   2  17
TORSDOF 5
ENDMDL
MODEL 9
REMARK VINA RESULT:      -9.9      5.315      8.452
REMARK  Name = 446240
REMARK  5 active torsions:
REMARK  status: ('A' for Active; 'I' for Inactive)
REMARK    1  A    between atoms: N_2  and  C_17
REMARK    2  A    between atoms: C_3  and  C_5
REMARK    3  A    between atoms: C_6  and  S_11
REMARK    4  A    between atoms: S_11  and  N_14
REMARK    5  A    between atoms: C_17  and  C_21
REMARK                            x       y       z     vdW  Elec       q    Type
REMARK                         _______ _______ _______ _____ _____    ______ ____
ROOT
ATOM      1  O   UNL     1      33.510 -24.038 -18.593  0.00  0.00    -0.270 OA
ATOM      2  N   UNL     1      34.385 -22.864 -16.795  0.00  0.00    -0.297 N 
ATOM      3  C   UNL     1      34.060 -23.014 -18.149  0.00  0.00    +0.246 C 
ATOM      4  H   UNL     1      34.820 -22.027 -16.511  0.00  0.00    +0.150 HD
ENDROOT
BRANCH   3   5
ATOM      5  C   UNL     1      34.417 -21.921 -19.038  0.00  0.00    +0.053 C 
ATOM      6  C   UNL     1      35.101 -19.823 -20.745  0.00  0.00    +0.122 C 
ATOM      7  C   UNL     1      35.758 -21.609 -19.256  0.00  0.00    +0.006 C 
ATOM      8  C   UNL     1      33.417 -21.186 -19.675  0.00  0.00    +0.006 C 
ATOM      9  C   UNL     1      36.101 -20.559 -20.109  0.00  0.00    +0.020 C 
ATOM     10  C   UNL     1      33.759 -20.136 -20.527  0.00  0.00    +0.020 C 
BRANCH   6  11
ATOM     11  S   UNL     1      35.530 -18.511 -21.813  0.00  0.00    +0.057 S 
ATOM     12  O   UNL     1      36.970 -18.545 -22.027  0.00  0.00    -0.153 OA
ATOM     13  O   UNL     1      34.628 -18.533 -22.957  0.00  0.00    -0.153 OA
BRANCH  11  14
ATOM     14  N   UNL     1      35.148 -17.159 -20.840  0.00  0.00    -0.203 NA
ATOM     15  H   UNL     1      34.211 -16.829 -21.070  0.00  0.00    +0.144 HD
ATOM     16  H   UNL     1      35.824 -16.415 -21.013  0.00  0.00    +0.144 HD
ENDBRANCH  11  14
ENDBRANCH   6  11
ENDBRANCH   3   5
BRANCH   2  17
ATOM     17  C   UNL     1      34.118 -23.870 -15.793  0.00  0.00    +0.119 C 
BRANCH  17  21
ATOM     18  F   UNL     1      33.785 -24.539 -13.068  0.00  0.00    -0.202 F 
ATOM     19  F   UNL     1      35.890 -24.855 -11.365  0.00  0.00    -0.199 F 
ATOM     20  F   UNL     1      38.449 -24.524 -12.270  0.00  0.00    -0.202 F 
ATOM     21  C   UNL     1      35.273 -24.045 -14.850  0.00  0.00    +0.027 C 
ATOM     22  C   UNL     1      35.035 -24.375 -13.520  0.00  0.00    +0.167 C 
ATOM     23  C   UNL     1      36.570 -23.876 -15.318  0.00  0.00    +0.002 C 
ATOM     24  C   UNL     1      36.111 -24.536 -12.647  0.00  0.00    +0.194 C 
ATOM     25  C   UNL     1      37.646 -24.037 -14.445  0.00  0.00    +0.032 C 
ATOM     26  C   UNL     1      37.416 -24.367 -13.110  0.00  0.00    +0.170 C 
ENDBRANCH  17  21
ENDBRANCH   2  17
TORSDOF 5
ENDMDL
