MODEL 1
REMARK VINA RESULT:      -9.0      0.000      0.000
REMARK  Name = 50294
REMARK  7 active torsions:
REMARK  status: ('A' for Active; 'I' for Inactive)
REMARK    1  A    between atoms: N_4  and  C_25
REMARK    2  A    between atoms: C_6  and  C_27
REMARK    3  A    between atoms: C_11  and  C_18
REMARK    4  A    between atoms: C_15  and  C_22
REMARK    5  A    between atoms: C_18  and  O_19
REMARK    6  A    between atoms: C_22  and  O_23
REMARK    7  A    between atoms: C_27  and  C_28
REMARK                            x       y       z     vdW  Elec       q    Type
REMARK                         _______ _______ _______ _____ _____    ______ ____
ROOT
ATOM      1  O   UNL     1      33.409 -13.305 -24.359  0.00  0.00    -0.447 OA
ATOM      2  O   UNL     1      31.400 -10.734 -18.892  0.00  0.00    -0.286 OA
ATOM      3  O   UNL     1      32.338 -15.267 -20.950  0.00  0.00    -0.286 OA
ATOM      4  N   UNL     1      32.514  -8.956 -22.388  0.00  0.00    -0.282 N 
ATOM      5  C   UNL     1      32.553 -10.378 -22.313  0.00  0.00    +0.054 C 
ATOM      6  C   UNL     1      32.961 -11.198 -23.382  0.00  0.00    +0.026 C 
ATOM      7  C   UNL     1      32.160 -11.028 -21.119  0.00  0.00    +0.053 C 
ATOM      8  C   UNL     1      32.993 -12.592 -23.260  0.00  0.00    +0.146 C 
ATOM      9  C   UNL     1      32.614 -13.200 -22.069  0.00  0.00    +0.073 C 
ATOM     10  C   UNL     1      32.192 -12.424 -20.991  0.00  0.00    +0.011 C 
ATOM     11  C   UNL     1      31.957  -8.241 -21.332  0.00  0.00    +0.131 C 
ATOM     12  C   UNL     1      31.688 -10.224 -19.966  0.00  0.00    +0.198 C 
ATOM     13  C   UNL     1      31.553  -8.765 -20.167  0.00  0.00    +0.063 C 
ATOM     14  C   UNL     1      32.658 -14.669 -21.969  0.00  0.00    +0.202 C 
ATOM     15  C   UNL     1      33.449 -14.679 -24.256  0.00  0.00    +0.223 C 
ATOM     16  C   UNL     1      33.114 -15.391 -23.173  0.00  0.00    +0.086 C 
ENDROOT
BRANCH  11  18
ATOM     17  O   UNL     1      30.982  -6.273 -22.239  0.00  0.00    -0.244 OA
ATOM     18  C   UNL     1      31.717  -6.793 -21.425  0.00  0.00    +0.352 C 
BRANCH  18  19
ATOM     19  O   UNL     1      32.435  -6.161 -20.476  0.00  0.00    -0.476 OA
ATOM     20  H   UNL     1      33.170  -5.633 -20.718  0.00  0.00    +0.295 HD
ENDBRANCH  18  19
ENDBRANCH  11  18
BRANCH  15  22
ATOM     21  O   UNL     1      33.576 -15.157 -26.582  0.00  0.00    -0.242 OA
ATOM     22  C   UNL     1      33.897 -15.421 -25.437  0.00  0.00    +0.373 C 
BRANCH  22  23
ATOM     23  O   UNL     1      34.711 -16.428 -25.056  0.00  0.00    -0.475 OA
ATOM     24  H   UNL     1      35.436 -16.256 -24.488  0.00  0.00    +0.296 HD
ENDBRANCH  22  23
ENDBRANCH  15  22
BRANCH   4  25
ATOM     25  C   UNL     1      33.087  -8.342 -23.588  0.00  0.00    +0.096 C 
ATOM     26  C   UNL     1      34.354  -7.589 -23.235  0.00  0.00    +0.024 C 
ENDBRANCH   4  25
BRANCH   6  27
ATOM     27  C   UNL     1      33.483 -10.668 -24.686  0.00  0.00    +0.031 C 
BRANCH  27  28
ATOM     28  C   UNL     1      35.013 -10.715 -24.752  0.00  0.00    +0.005 C 
ATOM     29  C   UNL     1      35.526 -10.349 -26.134  0.00  0.00    +0.000 C 
ENDBRANCH  27  28
ENDBRANCH   6  27
TORSDOF 7
ENDMDL
MODEL 2
REMARK VINA RESULT:      -9.0      1.663      6.495
REMARK  Name = 50294
REMARK  7 active torsions:
REMARK  status: ('A' for Active; 'I' for Inactive)
REMARK    1  A    between atoms: N_4  and  C_25
REMARK    2  A    between atoms: C_6  and  C_27
REMARK    3  A    between atoms: C_11  and  C_18
REMARK    4  A    between atoms: C_15  and  C_22
REMARK    5  A    between atoms: C_18  and  O_19
REMARK    6  A    between atoms: C_22  and  O_23
REMARK    7  A    between atoms: C_27  and  C_28
REMARK                            x       y       z     vdW  Elec       q    Type
REMARK                         _______ _______ _______ _____ _____    ______ ____
ROOT
ATOM      1  O   UNL     1      32.442  -9.636 -22.604  0.00  0.00    -0.447 OA
ATOM      2  O   UNL     1      32.282 -15.636 -20.481  0.00  0.00    -0.286 OA
ATOM      3  O   UNL     1      31.126 -10.940 -18.973  0.00  0.00    -0.286 OA
ATOM      4  N   UNL     1      33.549 -14.138 -24.055  0.00  0.00    -0.282 N 
ATOM      5  C   UNL     1      33.057 -13.226 -23.079  0.00  0.00    +0.054 C 
ATOM      6  C   UNL     1      32.980 -11.835 -23.289  0.00  0.00    +0.026 C 
ATOM      7  C   UNL     1      32.622 -13.710 -21.823  0.00  0.00    +0.053 C 
ATOM      8  C   UNL     1      32.479 -10.976 -22.303  0.00  0.00    +0.146 C 
ATOM      9  C   UNL     1      32.046 -11.486 -21.084  0.00  0.00    +0.073 C 
ATOM     10  C   UNL     1      32.117 -12.854 -20.833  0.00  0.00    +0.011 C 
ATOM     11  C   UNL     1      33.724 -15.473 -23.702  0.00  0.00    +0.131 C 
ATOM     12  C   UNL     1      32.706 -15.160 -21.526  0.00  0.00    +0.198 C 
ATOM     13  C   UNL     1      33.349 -16.024 -22.540  0.00  0.00    +0.063 C 
ATOM     14  C   UNL     1      31.523 -10.558 -20.066  0.00  0.00    +0.202 C 
ATOM     15  C   UNL     1      31.950  -8.775 -21.647  0.00  0.00    +0.223 C 
ATOM     16  C   UNL     1      31.501  -9.129 -20.436  0.00  0.00    +0.086 C 
ENDROOT
BRANCH  11  18
ATOM     17  O   UNL     1      33.888 -16.918 -25.581  0.00  0.00    -0.244 OA
ATOM     18  C   UNL     1      34.400 -16.423 -24.598  0.00  0.00    +0.352 C 
BRANCH  18  19
ATOM     19  O   UNL     1      35.652 -16.643 -24.151  0.00  0.00    -0.476 OA
ATOM     20  H   UNL     1      36.111 -17.418 -24.407  0.00  0.00    +0.295 HD
ENDBRANCH  18  19
ENDBRANCH  11  18
BRANCH  15  22
ATOM     21  O   UNL     1      32.335  -6.460 -21.271  0.00  0.00    -0.242 OA
ATOM     22  C   UNL     1      31.917  -7.351 -21.987  0.00  0.00    +0.373 C 
BRANCH  22  23
ATOM     23  O   UNL     1      31.357  -7.190 -23.204  0.00  0.00    -0.475 OA
ATOM     24  H   UNL     1      31.081  -7.938 -23.696  0.00  0.00    +0.296 HD
ENDBRANCH  22  23
ENDBRANCH  15  22
BRANCH   4  25
ATOM     25  C   UNL     1      33.828 -13.594 -25.386  0.00  0.00    +0.096 C 
ATOM     26  C   UNL     1      32.731 -13.994 -26.354  0.00  0.00    +0.024 C 
ENDBRANCH   4  25
BRANCH   6  27
ATOM     27  C   UNL     1      33.325 -11.168 -24.589  0.00  0.00    +0.031 C 
BRANCH  27  28
ATOM     28  C   UNL     1      34.629 -10.371 -24.494  0.00  0.00    +0.005 C 
ATOM     29  C   UNL     1      35.377 -10.361 -25.817  0.00  0.00    +0.000 C 
ENDBRANCH  27  28
ENDBRANCH   6  27
TORSDOF 7
ENDMDL
MODEL 3
REMARK VINA RESULT:      -9.0      1.423      1.655
REMARK  Name = 50294
REMARK  7 active torsions:
REMARK  status: ('A' for Active; 'I' for Inactive)
REMARK    1  A    between atoms: N_4  and  C_25
REMARK    2  A    between atoms: C_6  and  C_27
REMARK    3  A    between atoms: C_11  and  C_18
REMARK    4  A    between atoms: C_15  and  C_22
REMARK    5  A    between atoms: C_18  and  O_19
REMARK    6  A    between atoms: C_22  and  O_23
REMARK    7  A    between atoms: C_27  and  C_28
REMARK                            x       y       z     vdW  Elec       q    Type
REMARK                         _______ _______ _______ _____ _____    ______ ____
ROOT
ATOM      1  O   UNL     1      34.102 -14.632 -24.129  0.00  0.00    -0.447 OA
ATOM      2  O   UNL     1      31.102 -11.288 -19.618  0.00  0.00    -0.286 OA
ATOM      3  O   UNL     1      32.619 -16.021 -20.596  0.00  0.00    -0.286 OA
ATOM      4  N   UNL     1      32.653 -10.091 -23.194  0.00  0.00    -0.282 N 
ATOM      5  C   UNL     1      32.762 -11.465 -22.839  0.00  0.00    +0.054 C 
ATOM      6  C   UNL     1      33.383 -12.429 -23.658  0.00  0.00    +0.026 C 
ATOM      7  C   UNL     1      32.222 -11.917 -21.612  0.00  0.00    +0.053 C 
ATOM      8  C   UNL     1      33.476 -13.769 -23.263  0.00  0.00    +0.146 C 
ATOM      9  C   UNL     1      32.948 -14.179 -22.044  0.00  0.00    +0.073 C 
ATOM     10  C   UNL     1      32.315 -13.258 -21.211  0.00  0.00    +0.011 C 
ATOM     11  C   UNL     1      31.894  -9.246 -22.390  0.00  0.00    +0.131 C 
ATOM     12  C   UNL     1      31.527 -10.960 -20.719  0.00  0.00    +0.198 C 
ATOM     13  C   UNL     1      31.341  -9.580 -21.217  0.00  0.00    +0.063 C 
ATOM     14  C   UNL     1      33.061 -15.595 -21.654  0.00  0.00    +0.202 C 
ATOM     15  C   UNL     1      34.206 -15.955 -23.756  0.00  0.00    +0.223 C 
ATOM     16  C   UNL     1      33.745 -16.483 -22.616  0.00  0.00    +0.086 C 
ENDROOT
BRANCH  11  18
ATOM     17  O   UNL     1      30.754  -7.567 -23.628  0.00  0.00    -0.244 OA
ATOM     18  C   UNL     1      31.588  -7.866 -22.798  0.00  0.00    +0.352 C 
BRANCH  18  19
ATOM     19  O   UNL     1      32.372  -7.014 -22.108  0.00  0.00    -0.476 OA
ATOM     20  H   UNL     1      33.255  -6.864 -22.381  0.00  0.00    +0.295 HD
ENDBRANCH  18  19
ENDBRANCH  11  18
BRANCH  15  22
ATOM     21  O   UNL     1      34.800 -16.781 -25.905  0.00  0.00    -0.242 OA
ATOM     22  C   UNL     1      34.878 -16.859 -24.692  0.00  0.00    +0.373 C 
BRANCH  22  23
ATOM     23  O   UNL     1      35.588 -17.777 -24.003  0.00  0.00    -0.475 OA
ATOM     24  H   UNL     1      35.433 -17.898 -23.087  0.00  0.00    +0.296 HD
ENDBRANCH  22  23
ENDBRANCH  15  22
BRANCH   4  25
ATOM     25  C   UNL     1      33.372  -9.660 -24.395  0.00  0.00    +0.096 C 
ATOM     26  C   UNL     1      34.629  -8.905 -24.007  0.00  0.00    +0.024 C 
ENDBRANCH   4  25
BRANCH   6  27
ATOM     27  C   UNL     1      34.074 -12.104 -24.950  0.00  0.00    +0.031 C 
BRANCH  27  28
ATOM     28  C   UNL     1      33.149 -12.291 -26.156  0.00  0.00    +0.005 C 
ATOM     29  C   UNL     1      33.766 -13.207 -27.199  0.00  0.00    +0.000 C 
ENDBRANCH  27  28
ENDBRANCH   6  27
TORSDOF 7
ENDMDL
MODEL 4
REMARK VINA RESULT:      -8.7      1.889      6.483
REMARK  Name = 50294
REMARK  7 active torsions:
REMARK  status: ('A' for Active; 'I' for Inactive)
REMARK    1  A    between atoms: N_4  and  C_25
REMARK    2  A    between atoms: C_6  and  C_27
REMARK    3  A    between atoms: C_11  and  C_18
REMARK    4  A    between atoms: C_15  and  C_22
REMARK    5  A    between atoms: C_18  and  O_19
REMARK    6  A    between atoms: C_22  and  O_23
REMARK    7  A    between atoms: C_27  and  C_28
REMARK                            x       y       z     vdW  Elec       q    Type
REMARK                         _______ _______ _______ _____ _____    ______ ____
ROOT
ATOM      1  O   UNL     1      32.608  -9.884 -23.465  0.00  0.00    -0.447 OA
ATOM      2  O   UNL     1      32.271 -15.334 -20.190  0.00  0.00    -0.286 OA
ATOM      3  O   UNL     1      31.032 -10.442 -19.747  0.00  0.00    -0.286 OA
ATOM      4  N   UNL     1      33.795 -14.575 -23.895  0.00  0.00    -0.282 N 
ATOM      5  C   UNL     1      33.238 -13.490 -23.160  0.00  0.00    +0.054 C 
ATOM      6  C   UNL     1      33.183 -12.171 -23.652  0.00  0.00    +0.026 C 
ATOM      7  C   UNL     1      32.713 -13.715 -21.866  0.00  0.00    +0.053 C 
ATOM      8  C   UNL     1      32.617 -11.136 -22.898  0.00  0.00    +0.146 C 
ATOM      9  C   UNL     1      32.097 -11.393 -21.634  0.00  0.00    +0.073 C 
ATOM     10  C   UNL     1      32.143 -12.682 -21.108  0.00  0.00    +0.011 C 
ATOM     11  C   UNL     1      33.938 -15.809 -23.268  0.00  0.00    +0.131 C 
ATOM     12  C   UNL     1      32.770 -15.074 -21.277  0.00  0.00    +0.198 C 
ATOM     13  C   UNL     1      33.479 -16.118 -22.048  0.00  0.00    +0.063 C 
ATOM     14  C   UNL     1      31.508 -10.284 -20.864  0.00  0.00    +0.202 C 
ATOM     15  C   UNL     1      32.053  -8.853 -22.738  0.00  0.00    +0.223 C 
ATOM     16  C   UNL     1      31.518  -8.959 -21.515  0.00  0.00    +0.086 C 
ENDROOT
BRANCH  11  18
ATOM     17  O   UNL     1      34.204 -17.646 -24.753  0.00  0.00    -0.244 OA
ATOM     18  C   UNL     1      34.671 -16.915 -23.904  0.00  0.00    +0.352 C 
BRANCH  18  19
ATOM     19  O   UNL     1      35.918 -16.972 -23.396  0.00  0.00    -0.476 OA
ATOM     20  H   UNL     1      36.047 -16.950 -22.469  0.00  0.00    +0.295 HD
ENDBRANCH  18  19
ENDBRANCH  11  18
BRANCH  15  22
ATOM     21  O   UNL     1      31.287  -7.179 -24.243  0.00  0.00    -0.242 OA
ATOM     22  C   UNL     1      32.051  -7.527 -23.360  0.00  0.00    +0.373 C 
BRANCH  22  23
ATOM     23  O   UNL     1      33.018  -6.766 -22.806  0.00  0.00    -0.475 OA
ATOM     24  H   UNL     1      33.504  -6.166 -23.336  0.00  0.00    +0.296 HD
ENDBRANCH  22  23
ENDBRANCH  15  22
BRANCH   4  25
ATOM     25  C   UNL     1      34.169 -14.309 -25.285  0.00  0.00    +0.096 C 
ATOM     26  C   UNL     1      33.089 -14.813 -26.223  0.00  0.00    +0.024 C 
ENDBRANCH   4  25
BRANCH   6  27
ATOM     27  C   UNL     1      33.622 -11.776 -25.032  0.00  0.00    +0.031 C 
BRANCH  27  28
ATOM     28  C   UNL     1      34.759 -10.751 -25.000  0.00  0.00    +0.005 C 
ATOM     29  C   UNL     1      35.441 -10.626 -26.352  0.00  0.00    +0.000 C 
ENDBRANCH  27  28
ENDBRANCH   6  27
TORSDOF 7
ENDMDL
MODEL 5
REMARK VINA RESULT:      -8.5      3.109      6.146
REMARK  Name = 50294
REMARK  7 active torsions:
REMARK  status: ('A' for Active; 'I' for Inactive)
REMARK    1  A    between atoms: N_4  and  C_25
REMARK    2  A    between atoms: C_6  and  C_27
REMARK    3  A    between atoms: C_11  and  C_18
REMARK    4  A    between atoms: C_15  and  C_22
REMARK    5  A    between atoms: C_18  and  O_19
REMARK    6  A    between atoms: C_22  and  O_23
REMARK    7  A    between atoms: C_27  and  C_28
REMARK                            x       y       z     vdW  Elec       q    Type
REMARK                         _______ _______ _______ _____ _____    ______ ____
ROOT
ATOM      1  O   UNL     1      34.914 -17.652 -21.640  0.00  0.00    -0.447 OA
ATOM      2  O   UNL     1      33.460 -14.827 -27.158  0.00  0.00    -0.286 OA
ATOM      3  O   UNL     1      34.591 -19.404 -25.306  0.00  0.00    -0.286 OA
ATOM      4  N   UNL     1      33.826 -13.261 -23.411  0.00  0.00    -0.282 N 
ATOM      5  C   UNL     1      34.052 -14.656 -23.583  0.00  0.00    +0.054 C 
ATOM      6  C   UNL     1      34.388 -15.521 -22.523  0.00  0.00    +0.026 C 
ATOM      7  C   UNL     1      33.946 -15.230 -24.871  0.00  0.00    +0.053 C 
ATOM      8  C   UNL     1      34.591 -16.890 -22.737  0.00  0.00    +0.146 C 
ATOM      9  C   UNL     1      34.467 -17.426 -24.014  0.00  0.00    +0.073 C 
ATOM     10  C   UNL     1      34.147 -16.601 -25.090  0.00  0.00    +0.011 C 
ATOM     11  C   UNL     1      33.644 -12.464 -24.538  0.00  0.00    +0.131 C 
ATOM     12  C   UNL     1      33.627 -14.369 -26.035  0.00  0.00    +0.198 C 
ATOM     13  C   UNL     1      33.535 -12.912 -25.796  0.00  0.00    +0.063 C 
ATOM     14  C   UNL     1      34.686 -18.869 -24.209  0.00  0.00    +0.202 C 
ATOM     15  C   UNL     1      35.115 -19.002 -21.831  0.00  0.00    +0.223 C 
ATOM     16  C   UNL     1      35.026 -19.646 -23.001  0.00  0.00    +0.086 C 
ENDROOT
BRANCH  11  18
ATOM     17  O   UNL     1      32.575 -10.358 -24.275  0.00  0.00    -0.244 OA
ATOM     18  C   UNL     1      33.593 -10.997 -24.443  0.00  0.00    +0.352 C 
BRANCH  18  19
ATOM     19  O   UNL     1      34.839 -10.500 -24.569  0.00  0.00    -0.476 OA
ATOM     20  H   UNL     1      35.296 -10.184 -23.816  0.00  0.00    +0.295 HD
ENDBRANCH  18  19
ENDBRANCH  11  18
BRANCH  15  22
ATOM     21  O   UNL     1      36.540 -19.782 -20.095  0.00  0.00    -0.242 OA
ATOM     22  C   UNL     1      35.455 -19.797 -20.649  0.00  0.00    +0.373 C 
BRANCH  22  23
ATOM     23  O   UNL     1      34.389 -20.536 -20.278  0.00  0.00    -0.475 OA
ATOM     24  H   UNL     1      33.602 -20.114 -19.992  0.00  0.00    +0.296 HD
ENDBRANCH  22  23
ENDBRANCH  15  22
BRANCH   4  25
ATOM     25  C   UNL     1      33.789 -12.762 -22.035  0.00  0.00    +0.096 C 
ATOM     26  C   UNL     1      32.359 -12.471 -21.623  0.00  0.00    +0.024 C 
ENDBRANCH   4  25
BRANCH   6  27
ATOM     27  C   UNL     1      34.462 -15.091 -21.087  0.00  0.00    +0.031 C 
BRANCH  27  28
ATOM     28  C   UNL     1      33.515 -15.902 -20.198  0.00  0.00    +0.005 C 
ATOM     29  C   UNL     1      32.064 -15.721 -20.612  0.00  0.00    +0.000 C 
ENDBRANCH  27  28
ENDBRANCH   6  27
TORSDOF 7
ENDMDL
MODEL 6
REMARK VINA RESULT:      -8.1      1.947      6.214
REMARK  Name = 50294
REMARK  7 active torsions:
REMARK  status: ('A' for Active; 'I' for Inactive)
REMARK    1  A    between atoms: N_4  and  C_25
REMARK    2  A    between atoms: C_6  and  C_27
REMARK    3  A    between atoms: C_11  and  C_18
REMARK    4  A    between atoms: C_15  and  C_22
REMARK    5  A    between atoms: C_18  and  O_19
REMARK    6  A    between atoms: C_22  and  O_23
REMARK    7  A    between atoms: C_27  and  C_28
REMARK                            x       y       z     vdW  Elec       q    Type
REMARK                         _______ _______ _______ _____ _____    ______ ____
ROOT
ATOM      1  O   UNL     1      33.144  -7.868 -24.388  0.00  0.00    -0.447 OA
ATOM      2  O   UNL     1      30.823 -10.870 -19.275  0.00  0.00    -0.286 OA
ATOM      3  O   UNL     1      31.141  -6.214 -21.246  0.00  0.00    -0.286 OA
ATOM      4  N   UNL     1      32.838 -12.335 -22.503  0.00  0.00    -0.282 N 
ATOM      5  C   UNL     1      32.584 -10.935 -22.446  0.00  0.00    +0.054 C 
ATOM      6  C   UNL     1      32.989 -10.034 -23.450  0.00  0.00    +0.026 C 
ATOM      7  C   UNL     1      31.900 -10.391 -21.334  0.00  0.00    +0.053 C 
ATOM      8  C   UNL     1      32.709  -8.666 -23.356  0.00  0.00    +0.146 C 
ATOM      9  C   UNL     1      32.022  -8.164 -22.256  0.00  0.00    +0.073 C 
ATOM     10  C   UNL     1      31.615  -9.021 -21.236  0.00  0.00    +0.011 C 
ATOM     11  C   UNL     1      32.530 -13.121 -21.396  0.00  0.00    +0.131 C 
ATOM     12  C   UNL     1      31.475 -11.281 -20.226  0.00  0.00    +0.198 C 
ATOM     13  C   UNL     1      31.889 -12.699 -20.299  0.00  0.00    +0.063 C 
ATOM     14  C   UNL     1      31.742  -6.720 -22.185  0.00  0.00    +0.202 C 
ATOM     15  C   UNL     1      32.875  -6.518 -24.314  0.00  0.00    +0.223 C 
ATOM     16  C   UNL     1      32.225  -5.905 -23.317  0.00  0.00    +0.086 C 
ENDROOT
BRANCH  11  18
ATOM     17  O   UNL     1      32.175 -15.470 -21.445  0.00  0.00    -0.244 OA
ATOM     18  C   UNL     1      32.935 -14.533 -21.319  0.00  0.00    +0.352 C 
BRANCH  18  19
ATOM     19  O   UNL     1      34.262 -14.603 -21.091  0.00  0.00    -0.476 OA
ATOM     20  H   UNL     1      34.625 -14.218 -20.319  0.00  0.00    +0.295 HD
ENDBRANCH  18  19
ENDBRANCH  11  18
BRANCH  15  22
ATOM     21  O   UNL     1      32.698  -4.791 -25.938  0.00  0.00    -0.242 OA
ATOM     22  C   UNL     1      33.344  -5.686 -25.424  0.00  0.00    +0.373 C 
BRANCH  22  23
ATOM     23  O   UNL     1      34.590  -6.065 -25.779  0.00  0.00    -0.475 OA
ATOM     24  H   UNL     1      35.039  -5.615 -26.467  0.00  0.00    +0.296 HD
ENDBRANCH  22  23
ENDBRANCH  15  22
BRANCH   4  25
ATOM     25  C   UNL     1      33.401 -12.854 -23.751  0.00  0.00    +0.096 C 
ATOM     26  C   UNL     1      32.409 -13.780 -24.427  0.00  0.00    +0.024 C 
ENDBRANCH   4  25
BRANCH   6  27
ATOM     27  C   UNL     1      33.653 -10.455 -24.729  0.00  0.00    +0.031 C 
BRANCH  27  28
ATOM     28  C   UNL     1      35.118 -10.012 -24.786  0.00  0.00    +0.005 C 
ATOM     29  C   UNL     1      35.751 -10.340 -26.128  0.00  0.00    +0.000 C 
ENDBRANCH  27  28
ENDBRANCH   6  27
TORSDOF 7
ENDMDL
MODEL 7
REMARK VINA RESULT:      -8.1      2.050      7.477
REMARK  Name = 50294
REMARK  7 active torsions:
REMARK  status: ('A' for Active; 'I' for Inactive)
REMARK    1  A    between atoms: N_4  and  C_25
REMARK    2  A    between atoms: C_6  and  C_27
REMARK    3  A    between atoms: C_11  and  C_18
REMARK    4  A    between atoms: C_15  and  C_22
REMARK    5  A    between atoms: C_18  and  O_19
REMARK    6  A    between atoms: C_22  and  O_23
REMARK    7  A    between atoms: C_27  and  C_28
REMARK                            x       y       z     vdW  Elec       q    Type
REMARK                         _______ _______ _______ _____ _____    ______ ____
ROOT
ATOM      1  O   UNL     1      32.655  -9.202 -21.794  0.00  0.00    -0.447 OA
ATOM      2  O   UNL     1      35.394 -10.997 -27.254  0.00  0.00    -0.286 OA
ATOM      3  O   UNL     1      34.821  -6.884 -24.354  0.00  0.00    -0.286 OA
ATOM      4  N   UNL     1      33.205 -13.150 -24.571  0.00  0.00    -0.282 N 
ATOM      5  C   UNL     1      33.425 -11.768 -24.307  0.00  0.00    +0.054 C 
ATOM      6  C   UNL     1      32.929 -11.111 -23.164  0.00  0.00    +0.026 C 
ATOM      7  C   UNL     1      34.168 -10.988 -25.223  0.00  0.00    +0.053 C 
ATOM      8  C   UNL     1      33.178  -9.752 -22.940  0.00  0.00    +0.146 C 
ATOM      9  C   UNL     1      33.925  -9.016 -23.853  0.00  0.00    +0.073 C 
ATOM     10  C   UNL     1      34.422  -9.627 -25.002  0.00  0.00    +0.011 C 
ATOM     11  C   UNL     1      33.607 -13.673 -25.796  0.00  0.00    +0.131 C 
ATOM     12  C   UNL     1      34.690 -11.612 -26.463  0.00  0.00    +0.198 C 
ATOM     13  C   UNL     1      34.310 -13.016 -26.728  0.00  0.00    +0.063 C 
ATOM     14  C   UNL     1      34.171  -7.588 -23.591  0.00  0.00    +0.202 C 
ATOM     15  C   UNL     1      32.892  -7.865 -21.555  0.00  0.00    +0.223 C 
ATOM     16  C   UNL     1      33.592  -7.043 -22.347  0.00  0.00    +0.086 C 
ENDROOT
BRANCH  11  18
ATOM     17  O   UNL     1      33.968 -16.006 -26.074  0.00  0.00    -0.244 OA
ATOM     18  C   UNL     1      33.245 -15.039 -26.205  0.00  0.00    +0.352 C 
BRANCH  18  19
ATOM     19  O   UNL     1      32.006 -15.032 -26.735  0.00  0.00    -0.476 OA
ATOM     20  H   UNL     1      31.851 -14.609 -27.556  0.00  0.00    +0.295 HD
ENDBRANCH  18  19
ENDBRANCH  11  18
BRANCH  15  22
ATOM     21  O   UNL     1      32.117  -7.930 -19.309  0.00  0.00    -0.242 OA
ATOM     22  C   UNL     1      32.327  -7.299 -20.329  0.00  0.00    +0.373 C 
BRANCH  22  23
ATOM     23  O   UNL     1      32.081  -5.984 -20.509  0.00  0.00    -0.475 OA
ATOM     24  H   UNL     1      32.571  -5.345 -20.030  0.00  0.00    +0.296 HD
ENDBRANCH  22  23
ENDBRANCH  15  22
BRANCH   4  25
ATOM     25  C   UNL     1      32.572 -13.933 -23.508  0.00  0.00    +0.096 C 
ATOM     26  C   UNL     1      33.610 -14.771 -22.787  0.00  0.00    +0.024 C 
ENDBRANCH   4  25
BRANCH   6  27
ATOM     27  C   UNL     1      32.192 -11.806 -22.056  0.00  0.00    +0.031 C 
BRANCH  27  28
ATOM     28  C   UNL     1      30.822 -11.172 -21.795  0.00  0.00    +0.005 C 
ATOM     29  C   UNL     1      30.528 -11.067 -20.308  0.00  0.00    +0.000 C 
ENDBRANCH  27  28
ENDBRANCH   6  27
TORSDOF 7
ENDMDL
MODEL 8
REMARK VINA RESULT:      -7.8     11.669     14.487
REMARK  Name = 50294
REMARK  7 active torsions:
REMARK  status: ('A' for Active; 'I' for Inactive)
REMARK    1  A    between atoms: N_4  and  C_25
REMARK    2  A    between atoms: C_6  and  C_27
REMARK    3  A    between atoms: C_11  and  C_18
REMARK    4  A    between atoms: C_15  and  C_22
REMARK    5  A    between atoms: C_18  and  O_19
REMARK    6  A    between atoms: C_22  and  O_23
REMARK    7  A    between atoms: C_27  and  C_28
REMARK                            x       y       z     vdW  Elec       q    Type
REMARK                         _______ _______ _______ _____ _____    ______ ____
ROOT
ATOM      1  O   UNL     1      30.718 -23.264 -16.785  0.00  0.00    -0.447 OA
ATOM      2  O   UNL     1      35.245 -23.980 -12.366  0.00  0.00    -0.286 OA
ATOM      3  O   UNL     1      30.209 -24.214 -12.855  0.00  0.00    -0.286 OA
ATOM      4  N   UNL     1      35.549 -23.042 -16.322  0.00  0.00    -0.282 N 
ATOM      5  C   UNL     1      34.250 -23.251 -15.777  0.00  0.00    +0.054 C 
ATOM      6  C   UNL     1      33.068 -23.155 -16.537  0.00  0.00    +0.026 C 
ATOM      7  C   UNL     1      34.107 -23.564 -14.405  0.00  0.00    +0.053 C 
ATOM      8  C   UNL     1      31.812 -23.378 -15.961  0.00  0.00    +0.146 C 
ATOM      9  C   UNL     1      31.706 -23.698 -14.612  0.00  0.00    +0.073 C 
ATOM     10  C   UNL     1      32.851 -23.791 -13.824  0.00  0.00    +0.011 C 
ATOM     11  C   UNL     1      36.643 -23.013 -15.463  0.00  0.00    +0.131 C 
ATOM     12  C   UNL     1      35.310 -23.648 -13.542  0.00  0.00    +0.198 C 
ATOM     13  C   UNL     1      36.609 -23.291 -14.153  0.00  0.00    +0.063 C 
ATOM     14  C   UNL     1      30.371 -23.928 -14.033  0.00  0.00    +0.202 C 
ATOM     15  C   UNL     1      29.473 -23.483 -16.237  0.00  0.00    +0.223 C 
ATOM     16  C   UNL     1      29.228 -23.797 -14.959  0.00  0.00    +0.086 C 
ENDROOT
BRANCH  11  18
ATOM     17  O   UNL     1      38.304 -21.480 -16.197  0.00  0.00    -0.244 OA
ATOM     18  C   UNL     1      37.981 -22.619 -15.933  0.00  0.00    +0.352 C 
BRANCH  18  19
ATOM     19  O   UNL     1      38.763 -23.713 -16.015  0.00  0.00    -0.476 OA
ATOM     20  H   UNL     1      39.512 -23.712 -16.576  0.00  0.00    +0.295 HD
ENDBRANCH  18  19
ENDBRANCH  11  18
BRANCH  15  22
ATOM     21  O   UNL     1      27.711 -24.298 -17.609  0.00  0.00    -0.242 OA
ATOM     22  C   UNL     1      28.321 -23.358 -17.132  0.00  0.00    +0.373 C 
BRANCH  22  23
ATOM     23  O   UNL     1      28.049 -22.053 -17.339  0.00  0.00    -0.475 OA
ATOM     24  H   UNL     1      28.597 -21.543 -17.903  0.00  0.00    +0.296 HD
ENDBRANCH  22  23
ENDBRANCH  15  22
BRANCH   4  25
ATOM     25  C   UNL     1      35.638 -22.885 -17.775  0.00  0.00    +0.096 C 
ATOM     26  C   UNL     1      36.204 -21.521 -18.120  0.00  0.00    +0.024 C 
ENDBRANCH   4  25
BRANCH   6  27
ATOM     27  C   UNL     1      33.047 -22.910 -18.018  0.00  0.00    +0.031 C 
BRANCH  27  28
ATOM     28  C   UNL     1      32.422 -21.555 -18.365  0.00  0.00    +0.005 C 
ATOM     29  C   UNL     1      32.989 -20.991 -19.657  0.00  0.00    +0.000 C 
ENDBRANCH  27  28
ENDBRANCH   6  27
TORSDOF 7
ENDMDL
MODEL 9
REMARK VINA RESULT:      -7.6     12.524     15.277
REMARK  Name = 50294
REMARK  7 active torsions:
REMARK  status: ('A' for Active; 'I' for Inactive)
REMARK    1  A    between atoms: N_4  and  C_25
REMARK    2  A    between atoms: C_6  and  C_27
REMARK    3  A    between atoms: C_11  and  C_18
REMARK    4  A    between atoms: C_15  and  C_22
REMARK    5  A    between atoms: C_18  and  O_19
REMARK    6  A    between atoms: C_22  and  O_23
REMARK    7  A    between atoms: C_27  and  C_28
REMARK                            x       y       z     vdW  Elec       q    Type
REMARK                         _______ _______ _______ _____ _____    ______ ____
ROOT
ATOM      1  O   UNL     1      36.349 -24.327 -14.925  0.00  0.00    -0.447 OA
ATOM      2  O   UNL     1      30.630 -23.590 -12.226  0.00  0.00    -0.286 OA
ATOM      3  O   UNL     1      35.442 -24.531 -10.956  0.00  0.00    -0.286 OA
ATOM      4  N   UNL     1      31.736 -23.420 -16.148  0.00  0.00    -0.282 N 
ATOM      5  C   UNL     1      32.741 -23.689 -15.175  0.00  0.00    +0.054 C 
ATOM      6  C   UNL     1      34.096 -23.893 -15.500  0.00  0.00    +0.026 C 
ATOM      7  C   UNL     1      32.389 -23.768 -13.807  0.00  0.00    +0.053 C 
ATOM      8  C   UNL     1      35.052 -24.144 -14.509  0.00  0.00    +0.146 C 
ATOM      9  C   UNL     1      34.677 -24.202 -13.171  0.00  0.00    +0.073 C 
ATOM     10  C   UNL     1      33.344 -24.018 -12.810  0.00  0.00    +0.011 C 
ATOM     11  C   UNL     1      30.404 -23.380 -15.746  0.00  0.00    +0.131 C 
ATOM     12  C   UNL     1      30.974 -23.596 -13.401  0.00  0.00    +0.198 C 
ATOM     13  C   UNL     1      29.972 -23.450 -14.480  0.00  0.00    +0.063 C 
ATOM     14  C   UNL     1      35.705 -24.468 -12.150  0.00  0.00    +0.202 C 
ATOM     15  C   UNL     1      37.305 -24.573 -13.963  0.00  0.00    +0.223 C 
ATOM     16  C   UNL     1      37.083 -24.654 -12.645  0.00  0.00    +0.086 C 
ENDROOT
BRANCH  11  18
ATOM     17  O   UNL     1      28.899 -22.256 -17.202  0.00  0.00    -0.244 OA
ATOM     18  C   UNL     1      29.308 -23.293 -16.723  0.00  0.00    +0.352 C 
BRANCH  18  19
ATOM     19  O   UNL     1      28.850 -24.533 -16.989  0.00  0.00    -0.476 OA
ATOM     20  H   UNL     1      28.572 -24.753 -17.855  0.00  0.00    +0.295 HD
ENDBRANCH  18  19
ENDBRANCH  11  18
BRANCH  15  22
ATOM     21  O   UNL     1      39.488 -25.513 -13.908  0.00  0.00    -0.242 OA
ATOM     22  C   UNL     1      38.681 -24.763 -14.427  0.00  0.00    +0.373 C 
BRANCH  22  23
ATOM     23  O   UNL     1      38.906 -23.984 -15.506  0.00  0.00    -0.475 OA
ATOM     24  H   UNL     1      38.958 -23.054 -15.410  0.00  0.00    +0.296 HD
ENDBRANCH  22  23
ENDBRANCH  15  22
BRANCH   4  25
ATOM     25  C   UNL     1      32.190 -23.189 -17.520  0.00  0.00    +0.096 C 
ATOM     26  C   UNL     1      32.010 -21.730 -17.892  0.00  0.00    +0.024 C 
ENDBRANCH   4  25
BRANCH   6  27
ATOM     27  C   UNL     1      34.649 -23.764 -16.889  0.00  0.00    +0.031 C 
BRANCH  27  28
ATOM     28  C   UNL     1      35.558 -22.540 -17.033  0.00  0.00    +0.005 C 
ATOM     29  C   UNL     1      35.621 -22.054 -18.471  0.00  0.00    +0.000 C 
ENDBRANCH  27  28
ENDBRANCH   6  27
TORSDOF 7
ENDMDL
