MODEL 1
REMARK VINA RESULT:      -9.7      0.000      0.000
REMARK  Name = 5311181
REMARK  12 active torsions:
REMARK  status: ('A' for Active; 'I' for Inactive)
REMARK    1  A    between atoms: C_3  and  C_12
REMARK    2  A    between atoms: C_5  and  O_10
REMARK    3  A    between atoms: C_9  and  C_23
REMARK    4  A    between atoms: C_13  and  C_14
REMARK    5  A    between atoms: C_14  and  O_15
REMARK    6  A    between atoms: C_14  and  C_17
REMARK    7  A    between atoms: C_17  and  C_19
REMARK    8  A    between atoms: C_19  and  C_20
REMARK    9  A    between atoms: C_23  and  C_24
REMARK   10  A    between atoms: C_24  and  C_25
REMARK   11  A    between atoms: C_25  and  C_27
REMARK   12  A    between atoms: C_27  and  O_28
REMARK                            x       y       z     vdW  Elec       q    Type
REMARK                         _______ _______ _______ _____ _____    ______ ____
ROOT
ATOM      1  C   UNL     1      35.287 -17.057 -23.074  0.00  0.00    +0.011 C 
ATOM      2  C   UNL     1      35.352 -18.440 -23.727  0.00  0.00    +0.007 C 
ATOM      3  C   UNL     1      34.171 -16.350 -23.858  0.00  0.00    +0.049 C 
ATOM      4  C   UNL     1      35.014 -18.214 -25.202  0.00  0.00    +0.030 C 
ATOM      5  C   UNL     1      34.444 -16.792 -25.299  0.00  0.00    +0.114 C 
ATOM      6  C   UNL     1      34.990 -17.327 -21.601  0.00  0.00    +0.022 C 
ATOM      7  C   UNL     1      34.306 -19.273 -22.977  0.00  0.00    +0.022 C 
ATOM      8  C   UNL     1      34.280 -18.652 -21.610  0.00  0.00    -0.048 C 
ATOM      9  C   UNL     1      33.706 -19.207 -20.537  0.00  0.00    -0.035 C 
ENDROOT
BRANCH   5  10
ATOM     10  O   UNL     1      33.250 -16.804 -26.068  0.00  0.00    -0.384 OA
ATOM     11  H   UNL     1      32.505 -17.058 -25.502  0.00  0.00    +0.210 HD
ENDBRANCH   5  10
BRANCH   3  12
ATOM     12  C   UNL     1      34.190 -14.864 -23.694  0.00  0.00    -0.026 C 
ATOM     13  C   UNL     1      33.341 -14.034 -24.318  0.00  0.00    -0.002 C 
BRANCH  13  14
ATOM     14  C   UNL     1      33.361 -12.539 -24.153  0.00  0.00    +0.133 C 
BRANCH  14  15
ATOM     15  O   UNL     1      34.416 -12.245 -23.236  0.00  0.00    -0.380 OA
ATOM     16  H   UNL     1      35.127 -11.776 -23.701  0.00  0.00    +0.211 HD
ENDBRANCH  14  15
BRANCH  14  17
ATOM     17  C   UNL     1      33.603 -11.796 -25.493  0.00  0.00    +0.044 C 
ATOM     18  C   UNL     1      33.528 -12.745 -26.697  0.00  0.00    +0.004 C 
BRANCH  17  19
ATOM     19  C   UNL     1      34.920 -10.987 -25.514  0.00  0.00    +0.079 C 
BRANCH  19  20
ATOM     20  C   UNL     1      34.854  -9.738 -24.740  0.00  0.00    -0.091 C 
ATOM     21  C   UNL     1      34.804  -8.719 -24.106  0.00  0.00    -0.090 C 
ATOM     22  C   UNL     1      34.743  -7.476 -23.338  0.00  0.00    +0.090 C 
ENDBRANCH  19  20
ENDBRANCH  17  19
ENDBRANCH  14  17
ENDBRANCH  13  14
ENDBRANCH   3  12
BRANCH   9  23
ATOM     23  C   UNL     1      33.007 -20.535 -20.552  0.00  0.00    +0.026 C 
BRANCH  23  24
ATOM     24  C   UNL     1      33.536 -21.453 -19.447  0.00  0.00    +0.016 C 
BRANCH  24  25
ATOM     25  C   UNL     1      34.949 -21.955 -19.733  0.00  0.00    +0.110 C 
BRANCH  25  27
ATOM     26  O   UNL     1      36.702 -20.699 -18.645  0.00  0.00    -0.250 OA
ATOM     27  C   UNL     1      35.912 -21.634 -18.618  0.00  0.00    +0.314 C 
BRANCH  27  28
ATOM     28  O   UNL     1      35.813 -22.497 -17.577  0.00  0.00    -0.480 OA
ATOM     29  H   UNL     1      36.424 -22.448 -16.868  0.00  0.00    +0.295 HD
ENDBRANCH  27  28
ENDBRANCH  25  27
ENDBRANCH  24  25
ENDBRANCH  23  24
ENDBRANCH   9  23
TORSDOF 12
ENDMDL
MODEL 2
REMARK VINA RESULT:      -9.7      1.945      2.548
REMARK  Name = 5311181
REMARK  12 active torsions:
REMARK  status: ('A' for Active; 'I' for Inactive)
REMARK    1  A    between atoms: C_3  and  C_12
REMARK    2  A    between atoms: C_5  and  O_10
REMARK    3  A    between atoms: C_9  and  C_23
REMARK    4  A    between atoms: C_13  and  C_14
REMARK    5  A    between atoms: C_14  and  O_15
REMARK    6  A    between atoms: C_14  and  C_17
REMARK    7  A    between atoms: C_17  and  C_19
REMARK    8  A    between atoms: C_19  and  C_20
REMARK    9  A    between atoms: C_23  and  C_24
REMARK   10  A    between atoms: C_24  and  C_25
REMARK   11  A    between atoms: C_25  and  C_27
REMARK   12  A    between atoms: C_27  and  O_28
REMARK                            x       y       z     vdW  Elec       q    Type
REMARK                         _______ _______ _______ _____ _____    ______ ____
ROOT
ATOM      1  C   UNL     1      35.424 -17.170 -22.914  0.00  0.00    +0.011 C 
ATOM      2  C   UNL     1      35.417 -18.531 -23.616  0.00  0.00    +0.007 C 
ATOM      3  C   UNL     1      34.332 -16.386 -23.657  0.00  0.00    +0.049 C 
ATOM      4  C   UNL     1      35.071 -18.238 -25.078  0.00  0.00    +0.030 C 
ATOM      5  C   UNL     1      34.566 -16.788 -25.117  0.00  0.00    +0.114 C 
ATOM      6  C   UNL     1      35.133 -17.478 -21.448  0.00  0.00    +0.022 C 
ATOM      7  C   UNL     1      34.343 -19.341 -22.881  0.00  0.00    +0.022 C 
ATOM      8  C   UNL     1      34.363 -18.768 -21.493  0.00  0.00    -0.048 C 
ATOM      9  C   UNL     1      33.778 -19.334 -20.432  0.00  0.00    -0.035 C 
ENDROOT
BRANCH   5  10
ATOM     10  O   UNL     1      33.364 -16.719 -25.869  0.00  0.00    -0.384 OA
ATOM     11  H   UNL     1      33.372 -17.405 -26.555  0.00  0.00    +0.210 HD
ENDBRANCH   5  10
BRANCH   3  12
ATOM     12  C   UNL     1      34.421 -14.909 -23.443  0.00  0.00    -0.026 C 
ATOM     13  C   UNL     1      33.637 -14.016 -24.064  0.00  0.00    -0.002 C 
BRANCH  13  14
ATOM     14  C   UNL     1      33.728 -12.530 -23.848  0.00  0.00    +0.133 C 
BRANCH  14  15
ATOM     15  O   UNL     1      33.912 -11.943 -25.137  0.00  0.00    -0.380 OA
ATOM     16  H   UNL     1      33.048 -11.713 -25.515  0.00  0.00    +0.211 HD
ENDBRANCH  14  15
BRANCH  14  17
ATOM     17  C   UNL     1      32.456 -11.947 -23.179  0.00  0.00    +0.044 C 
ATOM     18  C   UNL     1      32.644 -10.478 -22.772  0.00  0.00    +0.004 C 
BRANCH  17  19
ATOM     19  C   UNL     1      31.954 -12.787 -21.984  0.00  0.00    +0.079 C 
BRANCH  19  20
ATOM     20  C   UNL     1      31.713 -11.995 -20.769  0.00  0.00    -0.091 C 
ATOM     21  C   UNL     1      31.519 -11.344 -19.778  0.00  0.00    -0.090 C 
ATOM     22  C   UNL     1      31.278 -10.552 -18.573  0.00  0.00    +0.090 C 
ENDBRANCH  19  20
ENDBRANCH  17  19
ENDBRANCH  14  17
ENDBRANCH  13  14
ENDBRANCH   3  12
BRANCH   9  23
ATOM     23  C   UNL     1      33.018 -20.628 -20.483  0.00  0.00    +0.026 C 
BRANCH  23  24
ATOM     24  C   UNL     1      33.549 -21.624 -19.449  0.00  0.00    +0.016 C 
BRANCH  24  25
ATOM     25  C   UNL     1      35.004 -22.008 -19.704  0.00  0.00    +0.110 C 
BRANCH  25  27
ATOM     26  O   UNL     1      36.713 -20.820 -18.478  0.00  0.00    -0.250 OA
ATOM     27  C   UNL     1      35.891 -21.727 -18.517  0.00  0.00    +0.314 C 
BRANCH  27  28
ATOM     28  O   UNL     1      35.685 -22.591 -17.494  0.00  0.00    -0.480 OA
ATOM     29  H   UNL     1      36.345 -22.708 -16.838  0.00  0.00    +0.295 HD
ENDBRANCH  27  28
ENDBRANCH  25  27
ENDBRANCH  24  25
ENDBRANCH  23  24
ENDBRANCH   9  23
TORSDOF 12
ENDMDL
MODEL 3
REMARK VINA RESULT:      -9.5      2.520      3.496
REMARK  Name = 5311181
REMARK  12 active torsions:
REMARK  status: ('A' for Active; 'I' for Inactive)
REMARK    1  A    between atoms: C_3  and  C_12
REMARK    2  A    between atoms: C_5  and  O_10
REMARK    3  A    between atoms: C_9  and  C_23
REMARK    4  A    between atoms: C_13  and  C_14
REMARK    5  A    between atoms: C_14  and  O_15
REMARK    6  A    between atoms: C_14  and  C_17
REMARK    7  A    between atoms: C_17  and  C_19
REMARK    8  A    between atoms: C_19  and  C_20
REMARK    9  A    between atoms: C_23  and  C_24
REMARK   10  A    between atoms: C_24  and  C_25
REMARK   11  A    between atoms: C_25  and  C_27
REMARK   12  A    between atoms: C_27  and  O_28
REMARK                            x       y       z     vdW  Elec       q    Type
REMARK                         _______ _______ _______ _____ _____    ______ ____
ROOT
ATOM      1  C   UNL     1      34.169 -14.569 -22.126  0.00  0.00    +0.011 C 
ATOM      2  C   UNL     1      34.935 -15.304 -23.230  0.00  0.00    +0.007 C 
ATOM      3  C   UNL     1      32.805 -14.287 -22.774  0.00  0.00    +0.049 C 
ATOM      4  C   UNL     1      34.444 -14.698 -24.546  0.00  0.00    +0.030 C 
ATOM      5  C   UNL     1      33.190 -13.881 -24.201  0.00  0.00    +0.114 C 
ATOM      6  C   UNL     1      34.151 -15.534 -20.945  0.00  0.00    +0.022 C 
ATOM      7  C   UNL     1      34.552 -16.778 -23.051  0.00  0.00    +0.022 C 
ATOM      8  C   UNL     1      34.272 -16.891 -21.580  0.00  0.00    -0.048 C 
ATOM      9  C   UNL     1      34.153 -18.047 -20.919  0.00  0.00    -0.035 C 
ENDROOT
BRANCH   5  10
ATOM     10  O   UNL     1      32.151 -14.185 -25.120  0.00  0.00    -0.384 OA
ATOM     11  H   UNL     1      32.504 -14.739 -25.834  0.00  0.00    +0.210 HD
ENDBRANCH   5  10
BRANCH   3  12
ATOM     12  C   UNL     1      32.026 -13.228 -22.062  0.00  0.00    -0.026 C 
ATOM     13  C   UNL     1      32.048 -11.930 -22.400  0.00  0.00    -0.002 C 
BRANCH  13  14
ATOM     14  C   UNL     1      31.264 -10.865 -21.683  0.00  0.00    +0.133 C 
BRANCH  14  15
ATOM     15  O   UNL     1      30.098 -11.503 -21.160  0.00  0.00    -0.380 OA
ATOM     16  H   UNL     1      29.502 -11.736 -21.890  0.00  0.00    +0.211 HD
ENDBRANCH  14  15
BRANCH  14  17
ATOM     17  C   UNL     1      32.068 -10.208 -20.531  0.00  0.00    +0.044 C 
ATOM     18  C   UNL     1      31.533 -10.617 -19.152  0.00  0.00    +0.004 C 
BRANCH  17  19
ATOM     19  C   UNL     1      32.159  -8.670 -20.650  0.00  0.00    +0.079 C 
BRANCH  19  20
ATOM     20  C   UNL     1      33.047  -8.216 -21.731  0.00  0.00    -0.091 C 
ATOM     21  C   UNL     1      33.774  -7.843 -22.611  0.00  0.00    -0.090 C 
ATOM     22  C   UNL     1      34.660  -7.394 -23.684  0.00  0.00    +0.090 C 
ENDBRANCH  19  20
ENDBRANCH  17  19
ENDBRANCH  14  17
ENDBRANCH  13  14
ENDBRANCH   3  12
BRANCH   9  23
ATOM     23  C   UNL     1      34.285 -19.399 -21.560  0.00  0.00    +0.026 C 
BRANCH  23  24
ATOM     24  C   UNL     1      34.600 -20.477 -20.519  0.00  0.00    +0.016 C 
BRANCH  24  25
ATOM     25  C   UNL     1      33.355 -20.949 -19.774  0.00  0.00    +0.110 C 
BRANCH  25  27
ATOM     26  O   UNL     1      34.688 -22.761 -18.896  0.00  0.00    -0.250 OA
ATOM     27  C   UNL     1      33.613 -22.178 -18.938  0.00  0.00    +0.314 C 
BRANCH  27  28
ATOM     28  O   UNL     1      32.522 -22.573 -18.238  0.00  0.00    -0.480 OA
ATOM     29  H   UNL     1      32.475 -22.416 -17.315  0.00  0.00    +0.295 HD
ENDBRANCH  27  28
ENDBRANCH  25  27
ENDBRANCH  24  25
ENDBRANCH  23  24
ENDBRANCH   9  23
TORSDOF 12
ENDMDL
MODEL 4
REMARK VINA RESULT:      -9.5      2.085      9.669
REMARK  Name = 5311181
REMARK  12 active torsions:
REMARK  status: ('A' for Active; 'I' for Inactive)
REMARK    1  A    between atoms: C_3  and  C_12
REMARK    2  A    between atoms: C_5  and  O_10
REMARK    3  A    between atoms: C_9  and  C_23
REMARK    4  A    between atoms: C_13  and  C_14
REMARK    5  A    between atoms: C_14  and  O_15
REMARK    6  A    between atoms: C_14  and  C_17
REMARK    7  A    between atoms: C_17  and  C_19
REMARK    8  A    between atoms: C_19  and  C_20
REMARK    9  A    between atoms: C_23  and  C_24
REMARK   10  A    between atoms: C_24  and  C_25
REMARK   11  A    between atoms: C_25  and  C_27
REMARK   12  A    between atoms: C_27  and  O_28
REMARK                            x       y       z     vdW  Elec       q    Type
REMARK                         _______ _______ _______ _____ _____    ______ ____
ROOT
ATOM      1  C   UNL     1      32.975 -14.060 -23.983  0.00  0.00    +0.011 C 
ATOM      2  C   UNL     1      32.737 -13.610 -25.428  0.00  0.00    +0.007 C 
ATOM      3  C   UNL     1      34.130 -15.064 -24.114  0.00  0.00    +0.049 C 
ATOM      4  C   UNL     1      33.043 -14.833 -26.296  0.00  0.00    +0.030 C 
ATOM      5  C   UNL     1      33.758 -15.839 -25.383  0.00  0.00    +0.114 C 
ATOM      6  C   UNL     1      33.296 -12.781 -23.216  0.00  0.00    +0.022 C 
ATOM      7  C   UNL     1      33.715 -12.448 -25.637  0.00  0.00    +0.022 C 
ATOM      8  C   UNL     1      33.858 -11.860 -24.263  0.00  0.00    -0.048 C 
ATOM      9  C   UNL     1      34.409 -10.669 -24.002  0.00  0.00    -0.035 C 
ENDROOT
BRANCH   5  10
ATOM     10  O   UNL     1      34.914 -16.342 -26.035  0.00  0.00    -0.384 OA
ATOM     11  H   UNL     1      35.706 -15.944 -25.642  0.00  0.00    +0.210 HD
ENDBRANCH   5  10
BRANCH   3  12
ATOM     12  C   UNL     1      34.277 -15.948 -22.918  0.00  0.00    -0.026 C 
ATOM     13  C   UNL     1      35.309 -16.784 -22.730  0.00  0.00    -0.002 C 
BRANCH  13  14
ATOM     14  C   UNL     1      35.456 -17.674 -21.526  0.00  0.00    +0.133 C 
BRANCH  14  15
ATOM     15  O   UNL     1      34.740 -17.042 -20.464  0.00  0.00    -0.380 OA
ATOM     16  H   UNL     1      34.764 -17.607 -19.676  0.00  0.00    +0.211 HD
ENDBRANCH  14  15
BRANCH  14  17
ATOM     17  C   UNL     1      34.894 -19.099 -21.767  0.00  0.00    +0.044 C 
ATOM     18  C   UNL     1      34.817 -19.440 -23.262  0.00  0.00    +0.004 C 
BRANCH  17  19
ATOM     19  C   UNL     1      33.533 -19.345 -21.078  0.00  0.00    +0.079 C 
BRANCH  19  20
ATOM     20  C   UNL     1      33.535 -20.503 -20.171  0.00  0.00    -0.091 C 
ATOM     21  C   UNL     1      33.535 -21.446 -19.428  0.00  0.00    -0.090 C 
ATOM     22  C   UNL     1      33.531 -22.597 -18.525  0.00  0.00    +0.090 C 
ENDBRANCH  19  20
ENDBRANCH  17  19
ENDBRANCH  14  17
ENDBRANCH  13  14
ENDBRANCH   3  12
BRANCH   9  23
ATOM     23  C   UNL     1      34.961  -9.751 -25.054  0.00  0.00    +0.026 C 
BRANCH  23  24
ATOM     24  C   UNL     1      34.535  -8.301 -24.804  0.00  0.00    +0.016 C 
BRANCH  24  25
ATOM     25  C   UNL     1      34.734  -7.879 -23.351  0.00  0.00    +0.110 C 
BRANCH  25  27
ATOM     26  O   UNL     1      32.770  -6.474 -23.304  0.00  0.00    -0.250 OA
ATOM     27  C   UNL     1      33.483  -7.296 -22.743  0.00  0.00    +0.314 C 
BRANCH  27  28
ATOM     28  O   UNL     1      33.232  -7.778 -21.502  0.00  0.00    -0.480 OA
ATOM     29  H   UNL     1      33.737  -7.478 -20.771  0.00  0.00    +0.295 HD
ENDBRANCH  27  28
ENDBRANCH  25  27
ENDBRANCH  24  25
ENDBRANCH  23  24
ENDBRANCH   9  23
TORSDOF 12
ENDMDL
MODEL 5
REMARK VINA RESULT:      -9.5      2.654      5.539
REMARK  Name = 5311181
REMARK  12 active torsions:
REMARK  status: ('A' for Active; 'I' for Inactive)
REMARK    1  A    between atoms: C_3  and  C_12
REMARK    2  A    between atoms: C_5  and  O_10
REMARK    3  A    between atoms: C_9  and  C_23
REMARK    4  A    between atoms: C_13  and  C_14
REMARK    5  A    between atoms: C_14  and  O_15
REMARK    6  A    between atoms: C_14  and  C_17
REMARK    7  A    between atoms: C_17  and  C_19
REMARK    8  A    between atoms: C_19  and  C_20
REMARK    9  A    between atoms: C_23  and  C_24
REMARK   10  A    between atoms: C_24  and  C_25
REMARK   11  A    between atoms: C_25  and  C_27
REMARK   12  A    between atoms: C_27  and  O_28
REMARK                            x       y       z     vdW  Elec       q    Type
REMARK                         _______ _______ _______ _____ _____    ______ ____
ROOT
ATOM      1  C   UNL     1      35.491 -21.400 -20.278  0.00  0.00    +0.011 C 
ATOM      2  C   UNL     1      34.619 -22.411 -19.528  0.00  0.00    +0.007 C 
ATOM      3  C   UNL     1      34.651 -20.116 -20.241  0.00  0.00    +0.049 C 
ATOM      4  C   UNL     1      33.174 -22.030 -19.854  0.00  0.00    +0.030 C 
ATOM      5  C   UNL     1      33.232 -20.636 -20.497  0.00  0.00    +0.114 C 
ATOM      6  C   UNL     1      36.804 -21.353 -19.500  0.00  0.00    +0.022 C 
ATOM      7  C   UNL     1      34.988 -22.221 -18.052  0.00  0.00    +0.022 C 
ATOM      8  C   UNL     1      36.414 -21.755 -18.105  0.00  0.00    -0.048 C 
ATOM      9  C   UNL     1      37.236 -21.710 -17.050  0.00  0.00    -0.035 C 
ENDROOT
BRANCH   5  10
ATOM     10  O   UNL     1      32.259 -19.791 -19.901  0.00  0.00    -0.384 OA
ATOM     11  H   UNL     1      31.375 -20.158 -20.057  0.00  0.00    +0.210 HD
ENDBRANCH   5  10
BRANCH   3  12
ATOM     12  C   UNL     1      35.085 -19.101 -21.249  0.00  0.00    -0.026 C 
ATOM     13  C   UNL     1      34.635 -17.837 -21.278  0.00  0.00    -0.002 C 
BRANCH  13  14
ATOM     14  C   UNL     1      35.073 -16.817 -22.293  0.00  0.00    +0.133 C 
BRANCH  14  15
ATOM     15  O   UNL     1      34.553 -17.248 -23.552  0.00  0.00    -0.380 OA
ATOM     16  H   UNL     1      34.894 -16.674 -24.256  0.00  0.00    +0.211 HD
ENDBRANCH  14  15
BRANCH  14  17
ATOM     17  C   UNL     1      34.552 -15.393 -21.967  0.00  0.00    +0.044 C 
ATOM     18  C   UNL     1      34.207 -15.235 -20.479  0.00  0.00    +0.004 C 
BRANCH  17  19
ATOM     19  C   UNL     1      33.365 -14.958 -22.854  0.00  0.00    +0.079 C 
BRANCH  19  20
ATOM     20  C   UNL     1      33.580 -13.671 -23.533  0.00  0.00    -0.091 C 
ATOM     21  C   UNL     1      33.759 -12.622 -24.090  0.00  0.00    -0.090 C 
ATOM     22  C   UNL     1      33.972 -11.345 -24.770  0.00  0.00    +0.090 C 
ENDBRANCH  19  20
ENDBRANCH  17  19
ENDBRANCH  14  17
ENDBRANCH  13  14
ENDBRANCH   3  12
BRANCH   9  23
ATOM     23  C   UNL     1      36.842 -22.122 -15.661  0.00  0.00    +0.026 C 
BRANCH  23  24
ATOM     24  C   UNL     1      37.522 -23.434 -15.258  0.00  0.00    +0.016 C 
BRANCH  24  25
ATOM     25  C   UNL     1      36.520 -24.505 -14.839  0.00  0.00    +0.110 C 
BRANCH  25  27
ATOM     26  O   UNL     1      36.134 -26.755 -15.627  0.00  0.00    -0.250 OA
ATOM     27  C   UNL     1      36.927 -25.885 -15.291  0.00  0.00    +0.314 C 
BRANCH  27  28
ATOM     28  O   UNL     1      38.271 -26.063 -15.281  0.00  0.00    -0.480 OA
ATOM     29  H   UNL     1      38.629 -26.929 -15.281  0.00  0.00    +0.295 HD
ENDBRANCH  27  28
ENDBRANCH  25  27
ENDBRANCH  24  25
ENDBRANCH  23  24
ENDBRANCH   9  23
TORSDOF 12
ENDMDL
MODEL 6
REMARK VINA RESULT:      -9.2      3.315      6.000
REMARK  Name = 5311181
REMARK  12 active torsions:
REMARK  status: ('A' for Active; 'I' for Inactive)
REMARK    1  A    between atoms: C_3  and  C_12
REMARK    2  A    between atoms: C_5  and  O_10
REMARK    3  A    between atoms: C_9  and  C_23
REMARK    4  A    between atoms: C_13  and  C_14
REMARK    5  A    between atoms: C_14  and  O_15
REMARK    6  A    between atoms: C_14  and  C_17
REMARK    7  A    between atoms: C_17  and  C_19
REMARK    8  A    between atoms: C_19  and  C_20
REMARK    9  A    between atoms: C_23  and  C_24
REMARK   10  A    between atoms: C_24  and  C_25
REMARK   11  A    between atoms: C_25  and  C_27
REMARK   12  A    between atoms: C_27  and  O_28
REMARK                            x       y       z     vdW  Elec       q    Type
REMARK                         _______ _______ _______ _____ _____    ______ ____
ROOT
ATOM      1  C   UNL     1      35.582 -21.486 -20.047  0.00  0.00    +0.011 C 
ATOM      2  C   UNL     1      34.641 -22.511 -19.406  0.00  0.00    +0.007 C 
ATOM      3  C   UNL     1      34.741 -20.201 -20.063  0.00  0.00    +0.049 C 
ATOM      4  C   UNL     1      33.234 -22.119 -19.861  0.00  0.00    +0.030 C 
ATOM      5  C   UNL     1      33.354 -20.713 -20.465  0.00  0.00    +0.114 C 
ATOM      6  C   UNL     1      36.813 -21.459 -19.146  0.00  0.00    +0.022 C 
ATOM      7  C   UNL     1      34.866 -22.353 -17.898  0.00  0.00    +0.022 C 
ATOM      8  C   UNL     1      36.291 -21.890 -17.803  0.00  0.00    -0.048 C 
ATOM      9  C   UNL     1      37.007 -21.869 -16.674  0.00  0.00    -0.035 C 
ENDROOT
BRANCH   5  10
ATOM     10  O   UNL     1      32.328 -19.879 -19.948  0.00  0.00    -0.384 OA
ATOM     11  H   UNL     1      32.285 -19.060 -20.468  0.00  0.00    +0.210 HD
ENDBRANCH   5  10
BRANCH   3  12
ATOM     12  C   UNL     1      35.271 -19.165 -21.002  0.00  0.00    -0.026 C 
ATOM     13  C   UNL     1      34.531 -18.167 -21.508  0.00  0.00    -0.002 C 
BRANCH  13  14
ATOM     14  C   UNL     1      35.064 -17.126 -22.453  0.00  0.00    +0.133 C 
BRANCH  14  15
ATOM     15  O   UNL     1      34.553 -17.452 -23.746  0.00  0.00    -0.380 OA
ATOM     16  H   UNL     1      35.025 -18.225 -24.095  0.00  0.00    +0.211 HD
ENDBRANCH  14  15
BRANCH  14  17
ATOM     17  C   UNL     1      34.633 -15.689 -22.061  0.00  0.00    +0.044 C 
ATOM     18  C   UNL     1      34.500 -15.525 -20.540  0.00  0.00    +0.004 C 
BRANCH  17  19
ATOM     19  C   UNL     1      33.346 -15.221 -22.777  0.00  0.00    +0.079 C 
BRANCH  19  20
ATOM     20  C   UNL     1      32.710 -14.058 -22.140  0.00  0.00    -0.091 C 
ATOM     21  C   UNL     1      32.191 -13.110 -21.616  0.00  0.00    -0.090 C 
ATOM     22  C   UNL     1      31.562 -11.953 -20.980  0.00  0.00    +0.090 C 
ENDBRANCH  19  20
ENDBRANCH  17  19
ENDBRANCH  14  17
ENDBRANCH  13  14
ENDBRANCH   3  12
BRANCH   9  23
ATOM     23  C   UNL     1      36.481 -22.310 -15.338  0.00  0.00    +0.026 C 
BRANCH  23  24
ATOM     24  C   UNL     1      37.400 -23.355 -14.698  0.00  0.00    +0.016 C 
BRANCH  24  25
ATOM     25  C   UNL     1      36.826 -23.919 -13.402  0.00  0.00    +0.110 C 
BRANCH  25  27
ATOM     26  O   UNL     1      38.113 -22.420 -12.012  0.00  0.00    -0.250 OA
ATOM     27  C   UNL     1      37.645 -23.536 -12.194  0.00  0.00    +0.314 C 
BRANCH  27  28
ATOM     28  O   UNL     1      37.814 -24.566 -11.330  0.00  0.00    -0.480 OA
ATOM     29  H   UNL     1      38.324 -25.312 -11.582  0.00  0.00    +0.295 HD
ENDBRANCH  27  28
ENDBRANCH  25  27
ENDBRANCH  24  25
ENDBRANCH  23  24
ENDBRANCH   9  23
TORSDOF 12
ENDMDL
MODEL 7
REMARK VINA RESULT:      -9.1      3.527      6.837
REMARK  Name = 5311181
REMARK  12 active torsions:
REMARK  status: ('A' for Active; 'I' for Inactive)
REMARK    1  A    between atoms: C_3  and  C_12
REMARK    2  A    between atoms: C_5  and  O_10
REMARK    3  A    between atoms: C_9  and  C_23
REMARK    4  A    between atoms: C_13  and  C_14
REMARK    5  A    between atoms: C_14  and  O_15
REMARK    6  A    between atoms: C_14  and  C_17
REMARK    7  A    between atoms: C_17  and  C_19
REMARK    8  A    between atoms: C_19  and  C_20
REMARK    9  A    between atoms: C_23  and  C_24
REMARK   10  A    between atoms: C_24  and  C_25
REMARK   11  A    between atoms: C_25  and  C_27
REMARK   12  A    between atoms: C_27  and  O_28
REMARK                            x       y       z     vdW  Elec       q    Type
REMARK                         _______ _______ _______ _____ _____    ______ ____
ROOT
ATOM      1  C   UNL     1      31.165 -11.280 -21.655  0.00  0.00    +0.011 C 
ATOM      2  C   UNL     1      31.100 -11.981 -20.295  0.00  0.00    +0.007 C 
ATOM      3  C   UNL     1      32.099 -10.089 -21.392  0.00  0.00    +0.049 C 
ATOM      4  C   UNL     1      31.198 -10.866 -19.252  0.00  0.00    +0.030 C 
ATOM      5  C   UNL     1      31.645  -9.608 -20.009  0.00  0.00    +0.114 C 
ATOM      6  C   UNL     1      31.696 -12.335 -22.621  0.00  0.00    +0.022 C 
ATOM      7  C   UNL     1      32.302 -12.933 -20.292  0.00  0.00    +0.022 C 
ATOM      8  C   UNL     1      32.488 -13.265 -21.744  0.00  0.00    -0.048 C 
ATOM      9  C   UNL     1      33.253 -14.262 -22.201  0.00  0.00    -0.035 C 
ENDROOT
BRANCH   5  10
ATOM     10  O   UNL     1      32.709  -8.979 -19.310  0.00  0.00    -0.384 OA
ATOM     11  H   UNL     1      33.215  -8.424 -19.923  0.00  0.00    +0.210 HD
ENDBRANCH   5  10
BRANCH   3  12
ATOM     12  C   UNL     1      32.000  -9.025 -22.436  0.00  0.00    -0.026 C 
ATOM     13  C   UNL     1      32.636  -7.846 -22.363  0.00  0.00    -0.002 C 
BRANCH  13  14
ATOM     14  C   UNL     1      32.536  -6.775 -23.414  0.00  0.00    +0.133 C 
BRANCH  14  15
ATOM     15  O   UNL     1      31.978  -5.627 -22.773  0.00  0.00    -0.380 OA
ATOM     16  H   UNL     1      32.693  -5.032 -22.495  0.00  0.00    +0.211 HD
ENDBRANCH  14  15
BRANCH  14  17
ATOM     17  C   UNL     1      33.913  -6.418 -24.033  0.00  0.00    +0.044 C 
ATOM     18  C   UNL     1      33.832  -6.254 -25.557  0.00  0.00    +0.004 C 
BRANCH  17  19
ATOM     19  C   UNL     1      35.032  -7.410 -23.647  0.00  0.00    +0.079 C 
BRANCH  19  20
ATOM     20  C   UNL     1      34.880  -8.736 -24.265  0.00  0.00    -0.091 C 
ATOM     21  C   UNL     1      34.760  -9.819 -24.771  0.00  0.00    -0.090 C 
ATOM     22  C   UNL     1      34.612 -11.139 -25.382  0.00  0.00    +0.090 C 
ENDBRANCH  19  20
ENDBRANCH  17  19
ENDBRANCH  14  17
ENDBRANCH  13  14
ENDBRANCH   3  12
BRANCH   9  23
ATOM     23  C   UNL     1      34.034 -15.193 -21.319  0.00  0.00    +0.026 C 
BRANCH  23  24
ATOM     24  C   UNL     1      34.719 -16.291 -22.139  0.00  0.00    +0.016 C 
BRANCH  24  25
ATOM     25  C   UNL     1      34.906 -15.895 -23.601  0.00  0.00    +0.110 C 
BRANCH  25  27
ATOM     26  O   UNL     1      34.913 -18.245 -24.158  0.00  0.00    -0.250 OA
ATOM     27  C   UNL     1      34.851 -17.080 -24.531  0.00  0.00    +0.314 C 
BRANCH  27  28
ATOM     28  O   UNL     1      34.728 -16.719 -25.831  0.00  0.00    -0.480 OA
ATOM     29  H   UNL     1      35.406 -16.933 -26.443  0.00  0.00    +0.295 HD
ENDBRANCH  27  28
ENDBRANCH  25  27
ENDBRANCH  24  25
ENDBRANCH  23  24
ENDBRANCH   9  23
TORSDOF 12
ENDMDL
MODEL 8
REMARK VINA RESULT:      -9.0      2.459      3.379
REMARK  Name = 5311181
REMARK  12 active torsions:
REMARK  status: ('A' for Active; 'I' for Inactive)
REMARK    1  A    between atoms: C_3  and  C_12
REMARK    2  A    between atoms: C_5  and  O_10
REMARK    3  A    between atoms: C_9  and  C_23
REMARK    4  A    between atoms: C_13  and  C_14
REMARK    5  A    between atoms: C_14  and  O_15
REMARK    6  A    between atoms: C_14  and  C_17
REMARK    7  A    between atoms: C_17  and  C_19
REMARK    8  A    between atoms: C_19  and  C_20
REMARK    9  A    between atoms: C_23  and  C_24
REMARK   10  A    between atoms: C_24  and  C_25
REMARK   11  A    between atoms: C_25  and  C_27
REMARK   12  A    between atoms: C_27  and  O_28
REMARK                            x       y       z     vdW  Elec       q    Type
REMARK                         _______ _______ _______ _____ _____    ______ ____
ROOT
ATOM      1  C   UNL     1      34.250 -14.700 -22.139  0.00  0.00    +0.011 C 
ATOM      2  C   UNL     1      34.920 -15.522 -23.244  0.00  0.00    +0.007 C 
ATOM      3  C   UNL     1      32.895 -14.322 -22.756  0.00  0.00    +0.049 C 
ATOM      4  C   UNL     1      34.441 -14.909 -24.561  0.00  0.00    +0.030 C 
ATOM      5  C   UNL     1      33.269 -13.984 -24.203  0.00  0.00    +0.114 C 
ATOM      6  C   UNL     1      34.189 -15.633 -20.933  0.00  0.00    +0.022 C 
ATOM      7  C   UNL     1      34.424 -16.955 -23.017  0.00  0.00    +0.022 C 
ATOM      8  C   UNL     1      34.180 -17.010 -21.536  0.00  0.00    -0.048 C 
ATOM      9  C   UNL     1      33.987 -18.136 -20.842  0.00  0.00    -0.035 C 
ENDROOT
BRANCH   5  10
ATOM     10  O   UNL     1      32.182 -14.223 -25.084  0.00  0.00    -0.384 OA
ATOM     11  H   UNL     1      31.796 -15.093 -24.893  0.00  0.00    +0.210 HD
ENDBRANCH   5  10
BRANCH   3  12
ATOM     12  C   UNL     1      32.226 -13.187 -22.050  0.00  0.00    -0.026 C 
ATOM     13  C   UNL     1      32.114 -11.952 -22.562  0.00  0.00    -0.002 C 
BRANCH  13  14
ATOM     14  C   UNL     1      31.441 -10.810 -21.851  0.00  0.00    +0.133 C 
BRANCH  14  15
ATOM     15  O   UNL     1      31.831 -10.899 -20.480  0.00  0.00    -0.380 OA
ATOM     16  H   UNL     1      32.788 -10.752 -20.407  0.00  0.00    +0.211 HD
ENDBRANCH  14  15
BRANCH  14  17
ATOM     17  C   UNL     1      31.846  -9.429 -22.428  0.00  0.00    +0.044 C 
ATOM     18  C   UNL     1      33.110  -9.517 -23.295  0.00  0.00    +0.004 C 
BRANCH  17  19
ATOM     19  C   UNL     1      31.998  -8.336 -21.347  0.00  0.00    +0.079 C 
BRANCH  19  20
ATOM     20  C   UNL     1      31.752  -6.975 -21.848  0.00  0.00    -0.091 C 
ATOM     21  C   UNL     1      31.555  -5.864 -22.259  0.00  0.00    -0.090 C 
ATOM     22  C   UNL     1      31.312  -4.513 -22.763  0.00  0.00    +0.090 C 
ENDBRANCH  19  20
ENDBRANCH  17  19
ENDBRANCH  14  17
ENDBRANCH  13  14
ENDBRANCH   3  12
BRANCH   9  23
ATOM     23  C   UNL     1      33.990 -19.509 -21.451  0.00  0.00    +0.026 C 
BRANCH  23  24
ATOM     24  C   UNL     1      33.237 -20.508 -20.568  0.00  0.00    +0.016 C 
BRANCH  24  25
ATOM     25  C   UNL     1      34.168 -21.285 -19.642  0.00  0.00    +0.110 C 
BRANCH  25  27
ATOM     26  O   UNL     1      32.537 -22.419 -18.268  0.00  0.00    -0.250 OA
ATOM     27  C   UNL     1      33.497 -22.487 -19.025  0.00  0.00    +0.314 C 
BRANCH  27  28
ATOM     28  O   UNL     1      34.075 -23.655 -19.395  0.00  0.00    -0.480 OA
ATOM     29  H   UNL     1      34.849 -23.649 -19.924  0.00  0.00    +0.295 HD
ENDBRANCH  27  28
ENDBRANCH  25  27
ENDBRANCH  24  25
ENDBRANCH  23  24
ENDBRANCH   9  23
TORSDOF 12
ENDMDL
MODEL 9
REMARK VINA RESULT:      -9.0      4.097      7.305
REMARK  Name = 5311181
REMARK  12 active torsions:
REMARK  status: ('A' for Active; 'I' for Inactive)
REMARK    1  A    between atoms: C_3  and  C_12
REMARK    2  A    between atoms: C_5  and  O_10
REMARK    3  A    between atoms: C_9  and  C_23
REMARK    4  A    between atoms: C_13  and  C_14
REMARK    5  A    between atoms: C_14  and  O_15
REMARK    6  A    between atoms: C_14  and  C_17
REMARK    7  A    between atoms: C_17  and  C_19
REMARK    8  A    between atoms: C_19  and  C_20
REMARK    9  A    between atoms: C_23  and  C_24
REMARK   10  A    between atoms: C_24  and  C_25
REMARK   11  A    between atoms: C_25  and  C_27
REMARK   12  A    between atoms: C_27  and  O_28
REMARK                            x       y       z     vdW  Elec       q    Type
REMARK                         _______ _______ _______ _____ _____    ______ ____
ROOT
ATOM      1  C   UNL     1      31.116 -10.770 -21.547  0.00  0.00    +0.011 C 
ATOM      2  C   UNL     1      30.944 -11.233 -20.098  0.00  0.00    +0.007 C 
ATOM      3  C   UNL     1      32.235  -9.722 -21.451  0.00  0.00    +0.049 C 
ATOM      4  C   UNL     1      31.231 -10.002 -19.236  0.00  0.00    +0.030 C 
ATOM      5  C   UNL     1      31.875  -8.966 -20.168  0.00  0.00    +0.114 C 
ATOM      6  C   UNL     1      31.460 -12.034 -22.330  0.00  0.00    +0.022 C 
ATOM      7  C   UNL     1      31.973 -12.357 -19.926  0.00  0.00    +0.022 C 
ATOM      8  C   UNL     1      32.093 -12.935 -21.306  0.00  0.00    -0.048 C 
ATOM      9  C   UNL     1      32.681 -14.102 -21.590  0.00  0.00    -0.035 C 
ENDROOT
BRANCH   5  10
ATOM     10  O   UNL     1      33.032  -8.419 -19.552  0.00  0.00    -0.384 OA
ATOM     11  H   UNL     1      33.420  -7.746 -20.133  0.00  0.00    +0.210 HD
ENDBRANCH   5  10
BRANCH   3  12
ATOM     12  C   UNL     1      32.307  -8.830 -22.648  0.00  0.00    -0.026 C 
ATOM     13  C   UNL     1      31.711  -7.630 -22.722  0.00  0.00    -0.002 C 
BRANCH  13  14
ATOM     14  C   UNL     1      31.784  -6.733 -23.927  0.00  0.00    +0.133 C 
BRANCH  14  15
ATOM     15  O   UNL     1      30.691  -7.098 -24.772  0.00  0.00    -0.380 OA
ATOM     16  H   UNL     1      29.953  -6.485 -24.628  0.00  0.00    +0.211 HD
ENDBRANCH  14  15
BRANCH  14  17
ATOM     17  C   UNL     1      31.687  -5.230 -23.557  0.00  0.00    +0.044 C 
ATOM     18  C   UNL     1      30.773  -4.996 -22.345  0.00  0.00    +0.004 C 
BRANCH  17  19
ATOM     19  C   UNL     1      31.265  -4.334 -24.743  0.00  0.00    +0.079 C 
BRANCH  19  20
ATOM     20  C   UNL     1      32.214  -4.361 -25.865  0.00  0.00    -0.091 C 
ATOM     21  C   UNL     1      32.992  -4.386 -26.780  0.00  0.00    -0.090 C 
ATOM     22  C   UNL     1      33.935  -4.417 -27.898  0.00  0.00    +0.090 C 
ENDBRANCH  19  20
ENDBRANCH  17  19
ENDBRANCH  14  17
ENDBRANCH  13  14
ENDBRANCH   3  12
BRANCH   9  23
ATOM     23  C   UNL     1      33.303 -15.001 -20.561  0.00  0.00    +0.026 C 
BRANCH  23  24
ATOM     24  C   UNL     1      34.703 -15.448 -20.989  0.00  0.00    +0.016 C 
BRANCH  24  25
ATOM     25  C   UNL     1      34.758 -16.932 -21.343  0.00  0.00    +0.110 C 
BRANCH  25  27
ATOM     26  O   UNL     1      35.690 -18.287 -23.111  0.00  0.00    -0.250 OA
ATOM     27  C   UNL     1      35.377 -17.179 -22.696  0.00  0.00    +0.314 C 
BRANCH  27  28
ATOM     28  O   UNL     1      35.553 -16.038 -23.407  0.00  0.00    -0.480 OA
ATOM     29  H   UNL     1      36.387 -15.850 -23.792  0.00  0.00    +0.295 HD
ENDBRANCH  27  28
ENDBRANCH  25  27
ENDBRANCH  24  25
ENDBRANCH  23  24
ENDBRANCH   9  23
TORSDOF 12
ENDMDL
