MODEL 1
REMARK VINA RESULT:      -3.0      0.000      0.000
REMARK  Name = 284
REMARK  1 active torsions:
REMARK  status: ('A' for Active; 'I' for Inactive)
REMARK    1  A    between atoms: O_1  and  C_4
REMARK                            x       y       z     vdW  Elec       q    Type
REMARK                         _______ _______ _______ _____ _____    ______ ____
ROOT
ATOM      1  O   UNL     1      40.367 -25.904 -16.063  0.00  0.00    -0.473 OA
ATOM      2  H   UNL     1      40.554 -25.108 -16.519  0.00  0.00    +0.296 HD
ENDROOT
BRANCH   1   4
ATOM      3  O   UNL     1      41.205 -26.658 -14.077  0.00  0.00    -0.238 OA
ATOM      4  C   UNL     1      40.447 -25.946 -14.715  0.00  0.00    +0.415 C 
ENDBRANCH   1   4
TORSDOF 1
ENDMDL
MODEL 2
REMARK VINA RESULT:      -3.0     15.729     15.800
REMARK  Name = 284
REMARK  1 active torsions:
REMARK  status: ('A' for Active; 'I' for Inactive)
REMARK    1  A    between atoms: O_1  and  C_4
REMARK                            x       y       z     vdW  Elec       q    Type
REMARK                         _______ _______ _______ _____ _____    ______ ____
ROOT
ATOM      1  O   UNL     1      26.028 -20.141 -17.995  0.00  0.00    -0.473 OA
ATOM      2  H   UNL     1      26.766 -19.566 -18.025  0.00  0.00    +0.296 HD
ENDROOT
BRANCH   1   4
ATOM      3  O   UNL     1      25.580 -21.779 -16.468  0.00  0.00    -0.238 OA
ATOM      4  C   UNL     1      26.156 -21.378 -17.466  0.00  0.00    +0.415 C 
ENDBRANCH   1   4
TORSDOF 1
ENDMDL
MODEL 3
REMARK VINA RESULT:      -2.7     12.145     12.349
REMARK  Name = 284
REMARK  1 active torsions:
REMARK  status: ('A' for Active; 'I' for Inactive)
REMARK    1  A    between atoms: O_1  and  C_4
REMARK                            x       y       z     vdW  Elec       q    Type
REMARK                         _______ _______ _______ _____ _____    ______ ____
ROOT
ATOM      1  O   UNL     1      40.846 -13.254 -12.964  0.00  0.00    -0.473 OA
ATOM      2  H   UNL     1      40.189 -12.690 -12.609  0.00  0.00    +0.296 HD
ENDROOT
BRANCH   1   4
ATOM      3  O   UNL     1      40.801 -14.916 -14.531  0.00  0.00    -0.238 OA
ATOM      4  C   UNL     1      40.715 -13.739 -14.219  0.00  0.00    +0.415 C 
ENDBRANCH   1   4
TORSDOF 1
ENDMDL
MODEL 4
REMARK VINA RESULT:      -2.7      3.458      3.522
REMARK  Name = 284
REMARK  1 active torsions:
REMARK  status: ('A' for Active; 'I' for Inactive)
REMARK    1  A    between atoms: O_1  and  C_4
REMARK                            x       y       z     vdW  Elec       q    Type
REMARK                         _______ _______ _______ _____ _____    ______ ____
ROOT
ATOM      1  O   UNL     1      36.730 -27.318 -16.382  0.00  0.00    -0.473 OA
ATOM      2  H   UNL     1      35.825 -27.499 -16.544  0.00  0.00    +0.296 HD
ENDROOT
BRANCH   1   4
ATOM      3  O   UNL     1      38.149 -27.091 -14.606  0.00  0.00    -0.238 OA
ATOM      4  C   UNL     1      37.115 -26.810 -15.190  0.00  0.00    +0.415 C 
ENDBRANCH   1   4
TORSDOF 1
ENDMDL
MODEL 5
REMARK VINA RESULT:      -2.6     10.001     10.122
REMARK  Name = 284
REMARK  1 active torsions:
REMARK  status: ('A' for Active; 'I' for Inactive)
REMARK    1  A    between atoms: O_1  and  C_4
REMARK                            x       y       z     vdW  Elec       q    Type
REMARK                         _______ _______ _______ _____ _____    ______ ____
ROOT
ATOM      1  O   UNL     1      40.088 -16.050 -15.174  0.00  0.00    -0.473 OA
ATOM      2  H   UNL     1      39.328 -15.729 -15.617  0.00  0.00    +0.296 HD
ENDROOT
BRANCH   1   4
ATOM      3  O   UNL     1      42.263 -16.583 -15.626  0.00  0.00    -0.238 OA
ATOM      4  C   UNL     1      41.318 -15.813 -15.682  0.00  0.00    +0.415 C 
ENDBRANCH   1   4
TORSDOF 1
ENDMDL
MODEL 6
REMARK VINA RESULT:      -2.6     13.479     13.686
REMARK  Name = 284
REMARK  1 active torsions:
REMARK  status: ('A' for Active; 'I' for Inactive)
REMARK    1  A    between atoms: O_1  and  C_4
REMARK                            x       y       z     vdW  Elec       q    Type
REMARK                         _______ _______ _______ _____ _____    ______ ____
ROOT
ATOM      1  O   UNL     1      27.627 -23.843 -17.679  0.00  0.00    -0.473 OA
ATOM      2  H   UNL     1      27.382 -23.759 -18.578  0.00  0.00    +0.296 HD
ENDROOT
BRANCH   1   4
ATOM      3  O   UNL     1      27.500 -21.637 -17.098  0.00  0.00    -0.238 OA
ATOM      4  C   UNL     1      27.986 -22.750 -16.970  0.00  0.00    +0.415 C 
ENDBRANCH   1   4
TORSDOF 1
ENDMDL
MODEL 7
REMARK VINA RESULT:      -2.5      6.512      6.747
REMARK  Name = 284
REMARK  1 active torsions:
REMARK  status: ('A' for Active; 'I' for Inactive)
REMARK    1  A    between atoms: O_1  and  C_4
REMARK                            x       y       z     vdW  Elec       q    Type
REMARK                         _______ _______ _______ _____ _____    ______ ____
ROOT
ATOM      1  O   UNL     1      35.311 -24.575  -9.756  0.00  0.00    -0.473 OA
ATOM      2  H   UNL     1      34.500 -25.036  -9.828  0.00  0.00    +0.296 HD
ENDROOT
BRANCH   1   4
ATOM      3  O   UNL     1      37.195 -24.189 -10.989  0.00  0.00    -0.238 OA
ATOM      4  C   UNL     1      35.981 -24.206 -10.871  0.00  0.00    +0.415 C 
ENDBRANCH   1   4
TORSDOF 1
ENDMDL
MODEL 8
REMARK VINA RESULT:      -2.5      5.644      5.857
REMARK  Name = 284
REMARK  1 active torsions:
REMARK  status: ('A' for Active; 'I' for Inactive)
REMARK    1  A    between atoms: O_1  and  C_4
REMARK                            x       y       z     vdW  Elec       q    Type
REMARK                         _______ _______ _______ _____ _____    ______ ____
ROOT
ATOM      1  O   UNL     1      36.820 -24.072 -10.708  0.00  0.00    -0.473 OA
ATOM      2  H   UNL     1      35.908 -24.263 -10.621  0.00  0.00    +0.296 HD
ENDROOT
BRANCH   1   4
ATOM      3  O   UNL     1      38.366 -22.667 -11.633  0.00  0.00    -0.238 OA
ATOM      4  C   UNL     1      37.230 -23.109 -11.563  0.00  0.00    +0.415 C 
ENDBRANCH   1   4
TORSDOF 1
ENDMDL
MODEL 9
REMARK VINA RESULT:      -2.5      5.775      5.895
REMARK  Name = 284
REMARK  1 active torsions:
REMARK  status: ('A' for Active; 'I' for Inactive)
REMARK    1  A    between atoms: O_1  and  C_4
REMARK                            x       y       z     vdW  Elec       q    Type
REMARK                         _______ _______ _______ _____ _____    ______ ____
ROOT
ATOM      1  O   UNL     1      38.324 -22.743 -11.625  0.00  0.00    -0.473 OA
ATOM      2  H   UNL     1      38.884 -22.617 -10.886  0.00  0.00    +0.296 HD
ENDROOT
BRANCH   1   4
ATOM      3  O   UNL     1      36.687 -23.892 -10.523  0.00  0.00    -0.238 OA
ATOM      4  C   UNL     1      37.062 -23.192 -11.450  0.00  0.00    +0.415 C 
ENDBRANCH   1   4
TORSDOF 1
ENDMDL
