MODEL 1
REMARK VINA RESULT:      -7.5      0.000      0.000
REMARK  Name = 441478
REMARK  6 active torsions:
REMARK  status: ('A' for Active; 'I' for Inactive)
REMARK    1  A    between atoms: C_2  and  O_7
REMARK    2  A    between atoms: C_3  and  O_9
REMARK    3  A    between atoms: C_4  and  O_11
REMARK    4  A    between atoms: C_5  and  C_16
REMARK    5  A    between atoms: C_6  and  O_13
REMARK    6  A    between atoms: C_16  and  O_17
REMARK                            x       y       z     vdW  Elec       q    Type
REMARK                         _______ _______ _______ _____ _____    ______ ____
ROOT
ATOM      1  O   UNL     1      39.272 -24.573 -13.201  0.00  0.00    -0.317 OA
ATOM      2  C   UNL     1      36.697 -24.732 -14.467  0.00  0.00    +0.172 C 
ATOM      3  C   UNL     1      37.949 -25.354 -15.086  0.00  0.00    +0.178 C 
ATOM      4  C   UNL     1      37.056 -23.624 -13.476  0.00  0.00    +0.196 C 
ATOM      5  C   UNL     1      38.966 -25.707 -14.007  0.00  0.00    +0.245 C 
ATOM      6  C   UNL     1      38.133 -24.087 -12.495  0.00  0.00    +0.263 C 
ENDROOT
BRANCH   2   7
ATOM      7  O   UNL     1      35.906 -24.187 -15.525  0.00  0.00    -0.379 OA
ATOM      8  H   UNL     1      36.342 -24.357 -16.374  0.00  0.00    +0.211 HD
ENDBRANCH   2   7
BRANCH   3   9
ATOM      9  O   UNL     1      37.584 -26.547 -15.777  0.00  0.00    -0.379 OA
ATOM     10  H   UNL     1      37.963 -26.532 -16.671  0.00  0.00    +0.211 HD
ENDBRANCH   3   9
BRANCH   4  11
ATOM     11  O   UNL     1      35.895 -23.263 -12.729  0.00  0.00    -0.378 OA
ATOM     12  H   UNL     1      35.480 -22.484 -13.132  0.00  0.00    +0.211 HD
ENDBRANCH   4  11
BRANCH   6  13
ATOM     13  O   UNL     1      38.507 -22.969 -11.692  0.00  0.00    -0.358 OA
ATOM     14  H   UNL     1      38.902 -22.283 -12.253  0.00  0.00    +0.213 HD
ENDBRANCH   6  13
BRANCH   5  16
ATOM     15  O   UNL     1      41.214 -26.584 -14.010  0.00  0.00    -0.247 OA
ATOM     16  C   UNL     1      40.285 -26.065 -14.610  0.00  0.00    +0.344 C 
BRANCH  16  17
ATOM     17  O   UNL     1      40.317 -25.733 -15.924  0.00  0.00    -0.478 OA
ATOM     18  H   UNL     1      39.874 -24.963 -16.223  0.00  0.00    +0.295 HD
ENDBRANCH  16  17
ENDBRANCH   5  16
TORSDOF 6
ENDMDL
MODEL 2
REMARK VINA RESULT:      -7.2      1.934      4.127
REMARK  Name = 441478
REMARK  6 active torsions:
REMARK  status: ('A' for Active; 'I' for Inactive)
REMARK    1  A    between atoms: C_2  and  O_7
REMARK    2  A    between atoms: C_3  and  O_9
REMARK    3  A    between atoms: C_4  and  O_11
REMARK    4  A    between atoms: C_5  and  C_16
REMARK    5  A    between atoms: C_6  and  O_13
REMARK    6  A    between atoms: C_16  and  O_17
REMARK                            x       y       z     vdW  Elec       q    Type
REMARK                         _______ _______ _______ _____ _____    ______ ____
ROOT
ATOM      1  O   UNL     1      38.095 -23.503 -13.673  0.00  0.00    -0.317 OA
ATOM      2  C   UNL     1      36.753 -26.043 -13.633  0.00  0.00    +0.172 C 
ATOM      3  C   UNL     1      36.846 -25.151 -12.395  0.00  0.00    +0.178 C 
ATOM      4  C   UNL     1      37.854 -25.714 -14.642  0.00  0.00    +0.196 C 
ATOM      5  C   UNL     1      36.990 -23.688 -12.794  0.00  0.00    +0.245 C 
ATOM      6  C   UNL     1      37.935 -24.210 -14.900  0.00  0.00    +0.263 C 
ENDROOT
BRANCH   2   7
ATOM      7  O   UNL     1      36.886 -27.401 -13.210  0.00  0.00    -0.379 OA
ATOM      8  H   UNL     1      36.171 -27.618 -12.592  0.00  0.00    +0.211 HD
ENDBRANCH   2   7
BRANCH   3   9
ATOM      9  O   UNL     1      35.655 -25.300 -11.623  0.00  0.00    -0.379 OA
ATOM     10  H   UNL     1      35.119 -26.020 -11.992  0.00  0.00    +0.211 HD
ENDBRANCH   3   9
BRANCH   4  11
ATOM     11  O   UNL     1      37.573 -26.366 -15.880  0.00  0.00    -0.378 OA
ATOM     12  H   UNL     1      37.697 -27.323 -15.776  0.00  0.00    +0.211 HD
ENDBRANCH   4  11
BRANCH   6  13
ATOM     13  O   UNL     1      39.060 -23.968 -15.744  0.00  0.00    -0.358 OA
ATOM     14  H   UNL     1      38.945 -24.442 -16.583  0.00  0.00    +0.213 HD
ENDBRANCH   6  13
BRANCH   5  16
ATOM     15  O   UNL     1      36.946 -23.028 -10.473  0.00  0.00    -0.247 OA
ATOM     16  C   UNL     1      37.344 -22.843 -11.614  0.00  0.00    +0.344 C 
BRANCH  16  17
ATOM     17  O   UNL     1      38.171 -21.833 -11.978  0.00  0.00    -0.478 OA
ATOM     18  H   UNL     1      39.029 -22.025 -12.304  0.00  0.00    +0.295 HD
ENDBRANCH  16  17
ENDBRANCH   5  16
TORSDOF 6
ENDMDL
MODEL 3
REMARK VINA RESULT:      -6.9      1.607      3.223
REMARK  Name = 441478
REMARK  6 active torsions:
REMARK  status: ('A' for Active; 'I' for Inactive)
REMARK    1  A    between atoms: C_2  and  O_7
REMARK    2  A    between atoms: C_3  and  O_9
REMARK    3  A    between atoms: C_4  and  O_11
REMARK    4  A    between atoms: C_5  and  C_16
REMARK    5  A    between atoms: C_6  and  O_13
REMARK    6  A    between atoms: C_16  and  O_17
REMARK                            x       y       z     vdW  Elec       q    Type
REMARK                         _______ _______ _______ _____ _____    ______ ____
ROOT
ATOM      1  O   UNL     1      37.050 -25.235 -14.133  0.00  0.00    -0.317 OA
ATOM      2  C   UNL     1      36.728 -23.696 -11.728  0.00  0.00    +0.172 C 
ATOM      3  C   UNL     1      38.071 -24.301 -12.135  0.00  0.00    +0.178 C 
ATOM      4  C   UNL     1      35.562 -24.428 -12.395  0.00  0.00    +0.196 C 
ATOM      5  C   UNL     1      38.151 -24.474 -13.647  0.00  0.00    +0.245 C 
ATOM      6  C   UNL     1      35.800 -24.593 -13.896  0.00  0.00    +0.263 C 
ENDROOT
BRANCH   2   7
ATOM      7  O   UNL     1      36.607 -23.803 -10.309  0.00  0.00    -0.379 OA
ATOM      8  H   UNL     1      35.987 -24.515 -10.089  0.00  0.00    +0.211 HD
ENDBRANCH   2   7
BRANCH   3   9
ATOM      9  O   UNL     1      39.121 -23.428 -11.719  0.00  0.00    -0.379 OA
ATOM     10  H   UNL     1      39.259 -22.744 -12.395  0.00  0.00    +0.211 HD
ENDBRANCH   3   9
BRANCH   4  11
ATOM     11  O   UNL     1      34.363 -23.674 -12.212  0.00  0.00    -0.378 OA
ATOM     12  H   UNL     1      33.599 -24.272 -12.235  0.00  0.00    +0.211 HD
ENDBRANCH   4  11
BRANCH   6  13
ATOM     13  O   UNL     1      34.741 -25.391 -14.424  0.00  0.00    -0.358 OA
ATOM     14  H   UNL     1      34.771 -26.275 -14.024  0.00  0.00    +0.213 HD
ENDBRANCH   6  13
BRANCH   5  16
ATOM     15  O   UNL     1      40.499 -24.932 -13.960  0.00  0.00    -0.247 OA
ATOM     16  C   UNL     1      39.335 -25.299 -14.030  0.00  0.00    +0.344 C 
BRANCH  16  17
ATOM     17  O   UNL     1      38.946 -26.519 -14.475  0.00  0.00    -0.478 OA
ATOM     18  H   UNL     1      38.130 -26.882 -14.191  0.00  0.00    +0.295 HD
ENDBRANCH  16  17
ENDBRANCH   5  16
TORSDOF 6
ENDMDL
MODEL 4
REMARK VINA RESULT:      -6.6      1.829      2.088
REMARK  Name = 441478
REMARK  6 active torsions:
REMARK  status: ('A' for Active; 'I' for Inactive)
REMARK    1  A    between atoms: C_2  and  O_7
REMARK    2  A    between atoms: C_3  and  O_9
REMARK    3  A    between atoms: C_4  and  O_11
REMARK    4  A    between atoms: C_5  and  C_16
REMARK    5  A    between atoms: C_6  and  O_13
REMARK    6  A    between atoms: C_16  and  O_17
REMARK                            x       y       z     vdW  Elec       q    Type
REMARK                         _______ _______ _______ _____ _____    ______ ____
ROOT
ATOM      1  O   UNL     1      38.797 -24.028 -15.362  0.00  0.00    -0.317 OA
ATOM      2  C   UNL     1      36.327 -25.283 -14.599  0.00  0.00    +0.172 C 
ATOM      3  C   UNL     1      37.646 -26.054 -14.668  0.00  0.00    +0.178 C 
ATOM      4  C   UNL     1      36.373 -24.021 -15.462  0.00  0.00    +0.196 C 
ATOM      5  C   UNL     1      38.829 -25.120 -14.448  0.00  0.00    +0.245 C 
ATOM      6  C   UNL     1      37.641 -23.212 -15.191  0.00  0.00    +0.263 C 
ENDROOT
BRANCH   2   7
ATOM      7  O   UNL     1      35.288 -26.144 -15.069  0.00  0.00    -0.379 OA
ATOM      8  H   UNL     1      34.977 -26.702 -14.340  0.00  0.00    +0.211 HD
ENDBRANCH   2   7
BRANCH   3   9
ATOM      9  O   UNL     1      37.656 -27.052 -13.649  0.00  0.00    -0.379 OA
ATOM     10  H   UNL     1      38.550 -27.128 -13.280  0.00  0.00    +0.211 HD
ENDBRANCH   3   9
BRANCH   4  11
ATOM     11  O   UNL     1      35.244 -23.200 -15.160  0.00  0.00    -0.378 OA
ATOM     12  H   UNL     1      35.461 -22.272 -15.344  0.00  0.00    +0.211 HD
ENDBRANCH   4  11
BRANCH   6  13
ATOM     13  O   UNL     1      37.677 -22.127 -16.117  0.00  0.00    -0.358 OA
ATOM     14  H   UNL     1      36.838 -22.088 -16.604  0.00  0.00    +0.213 HD
ENDBRANCH   6  13
BRANCH   5  16
ATOM     15  O   UNL     1      40.865 -26.319 -13.956  0.00  0.00    -0.247 OA
ATOM     16  C   UNL     1      40.118 -25.802 -14.773  0.00  0.00    +0.344 C 
BRANCH  16  17
ATOM     17  O   UNL     1      40.354 -25.769 -16.108  0.00  0.00    -0.478 OA
ATOM     18  H   UNL     1      39.665 -25.536 -16.700  0.00  0.00    +0.295 HD
ENDBRANCH  16  17
ENDBRANCH   5  16
TORSDOF 6
ENDMDL
MODEL 5
REMARK VINA RESULT:      -6.5      1.659      5.061
REMARK  Name = 441478
REMARK  6 active torsions:
REMARK  status: ('A' for Active; 'I' for Inactive)
REMARK    1  A    between atoms: C_2  and  O_7
REMARK    2  A    between atoms: C_3  and  O_9
REMARK    3  A    between atoms: C_4  and  O_11
REMARK    4  A    between atoms: C_5  and  C_16
REMARK    5  A    between atoms: C_6  and  O_13
REMARK    6  A    between atoms: C_16  and  O_17
REMARK                            x       y       z     vdW  Elec       q    Type
REMARK                         _______ _______ _______ _____ _____    ______ ____
ROOT
ATOM      1  O   UNL     1      35.591 -25.468 -15.703  0.00  0.00    -0.317 OA
ATOM      2  C   UNL     1      37.564 -24.859 -13.706  0.00  0.00    +0.172 C 
ATOM      3  C   UNL     1      36.460 -23.873 -14.088  0.00  0.00    +0.178 C 
ATOM      4  C   UNL     1      37.813 -25.878 -14.819  0.00  0.00    +0.196 C 
ATOM      5  C   UNL     1      35.239 -24.610 -14.622  0.00  0.00    +0.245 C 
ATOM      6  C   UNL     1      36.501 -26.491 -15.309  0.00  0.00    +0.263 C 
ENDROOT
BRANCH   2   7
ATOM      7  O   UNL     1      38.759 -24.113 -13.468  0.00  0.00    -0.379 OA
ATOM      8  H   UNL     1      38.625 -23.520 -12.713  0.00  0.00    +0.211 HD
ENDBRANCH   2   7
BRANCH   3   9
ATOM      9  O   UNL     1      36.077 -23.131 -12.931  0.00  0.00    -0.379 OA
ATOM     10  H   UNL     1      36.707 -22.407 -12.788  0.00  0.00    +0.211 HD
ENDBRANCH   3   9
BRANCH   4  11
ATOM     11  O   UNL     1      38.641 -26.929 -14.323  0.00  0.00    -0.378 OA
ATOM     12  H   UNL     1      38.438 -27.751 -14.796  0.00  0.00    +0.211 HD
ENDBRANCH   4  11
BRANCH   6  13
ATOM     13  O   UNL     1      36.797 -27.328 -16.426  0.00  0.00    -0.358 OA
ATOM     14  H   UNL     1      36.554 -28.244 -16.219  0.00  0.00    +0.213 HD
ENDBRANCH   6  13
BRANCH   5  16
ATOM     15  O   UNL     1      34.158 -23.447 -16.439  0.00  0.00    -0.247 OA
ATOM     16  C   UNL     1      34.267 -23.660 -15.240  0.00  0.00    +0.344 C 
BRANCH  16  17
ATOM     17  O   UNL     1      33.515 -23.055 -14.287  0.00  0.00    -0.478 OA
ATOM     18  H   UNL     1      33.535 -22.123 -14.198  0.00  0.00    +0.295 HD
ENDBRANCH  16  17
ENDBRANCH   5  16
TORSDOF 6
ENDMDL
MODEL 6
REMARK VINA RESULT:      -6.4      1.955      4.416
REMARK  Name = 441478
REMARK  6 active torsions:
REMARK  status: ('A' for Active; 'I' for Inactive)
REMARK    1  A    between atoms: C_2  and  O_7
REMARK    2  A    between atoms: C_3  and  O_9
REMARK    3  A    between atoms: C_4  and  O_11
REMARK    4  A    between atoms: C_5  and  C_16
REMARK    5  A    between atoms: C_6  and  O_13
REMARK    6  A    between atoms: C_16  and  O_17
REMARK                            x       y       z     vdW  Elec       q    Type
REMARK                         _______ _______ _______ _____ _____    ______ ____
ROOT
ATOM      1  O   UNL     1      35.815 -23.893 -13.402  0.00  0.00    -0.317 OA
ATOM      2  C   UNL     1      37.238 -26.332 -13.930  0.00  0.00    +0.172 C 
ATOM      3  C   UNL     1      37.568 -25.438 -12.735  0.00  0.00    +0.178 C 
ATOM      4  C   UNL     1      36.517 -25.550 -15.029  0.00  0.00    +0.196 C 
ATOM      5  C   UNL     1      36.346 -24.634 -12.309  0.00  0.00    +0.245 C 
ATOM      6  C   UNL     1      35.357 -24.736 -14.457  0.00  0.00    +0.263 C 
ENDROOT
BRANCH   2   7
ATOM      7  O   UNL     1      38.466 -26.853 -14.444  0.00  0.00    -0.379 OA
ATOM      8  H   UNL     1      38.278 -27.594 -15.041  0.00  0.00    +0.211 HD
ENDBRANCH   2   7
BRANCH   3   9
ATOM      9  O   UNL     1      37.980 -26.256 -11.641  0.00  0.00    -0.379 OA
ATOM     10  H   UNL     1      37.980 -25.730 -10.825  0.00  0.00    +0.211 HD
ENDBRANCH   3   9
BRANCH   4  11
ATOM     11  O   UNL     1      35.991 -26.463 -15.992  0.00  0.00    -0.378 OA
ATOM     12  H   UNL     1      35.187 -26.877 -15.639  0.00  0.00    +0.211 HD
ENDBRANCH   4  11
BRANCH   6  13
ATOM     13  O   UNL     1      34.817 -23.938 -15.510  0.00  0.00    -0.358 OA
ATOM     14  H   UNL     1      33.852 -23.899 -15.425  0.00  0.00    +0.213 HD
ENDBRANCH   6  13
BRANCH   5  16
ATOM     15  O   UNL     1      37.194 -22.485 -11.611  0.00  0.00    -0.247 OA
ATOM     16  C   UNL     1      36.719 -23.574 -11.324  0.00  0.00    +0.344 C 
BRANCH  16  17
ATOM     17  O   UNL     1      36.462 -23.983 -10.058  0.00  0.00    -0.478 OA
ATOM     18  H   UNL     1      35.892 -24.713  -9.909  0.00  0.00    +0.295 HD
ENDBRANCH  16  17
ENDBRANCH   5  16
TORSDOF 6
ENDMDL
MODEL 7
REMARK VINA RESULT:      -6.4      2.467      3.316
REMARK  Name = 441478
REMARK  6 active torsions:
REMARK  status: ('A' for Active; 'I' for Inactive)
REMARK    1  A    between atoms: C_2  and  O_7
REMARK    2  A    between atoms: C_3  and  O_9
REMARK    3  A    between atoms: C_4  and  O_11
REMARK    4  A    between atoms: C_5  and  C_16
REMARK    5  A    between atoms: C_6  and  O_13
REMARK    6  A    between atoms: C_16  and  O_17
REMARK                            x       y       z     vdW  Elec       q    Type
REMARK                         _______ _______ _______ _____ _____    ______ ____
ROOT
ATOM      1  O   UNL     1      37.505 -24.010 -13.443  0.00  0.00    -0.317 OA
ATOM      2  C   UNL     1      34.689 -24.270 -12.932  0.00  0.00    +0.172 C 
ATOM      3  C   UNL     1      35.230 -23.679 -14.234  0.00  0.00    +0.178 C 
ATOM      4  C   UNL     1      35.721 -24.178 -11.806  0.00  0.00    +0.196 C 
ATOM      5  C   UNL     1      36.620 -24.224 -14.538  0.00  0.00    +0.245 C 
ATOM      6  C   UNL     1      37.085 -24.693 -12.264  0.00  0.00    +0.263 C 
ENDROOT
BRANCH   2   7
ATOM      7  O   UNL     1      33.520 -23.535 -12.566  0.00  0.00    -0.379 OA
ATOM      8  H   UNL     1      33.655 -22.594 -12.759  0.00  0.00    +0.211 HD
ENDBRANCH   2   7
BRANCH   3   9
ATOM      9  O   UNL     1      34.357 -24.034 -15.305  0.00  0.00    -0.379 OA
ATOM     10  H   UNL     1      34.870 -24.131 -16.123  0.00  0.00    +0.211 HD
ENDBRANCH   3   9
BRANCH   4  11
ATOM     11  O   UNL     1      35.289 -24.973 -10.702  0.00  0.00    -0.378 OA
ATOM     12  H   UNL     1      35.085 -24.396  -9.949  0.00  0.00    +0.211 HD
ENDBRANCH   4  11
BRANCH   6  13
ATOM     13  O   UNL     1      38.020 -24.458 -11.213  0.00  0.00    -0.358 OA
ATOM     14  H   UNL     1      38.583 -25.240 -11.097  0.00  0.00    +0.213 HD
ENDBRANCH   6  13
BRANCH   5  16
ATOM     15  O   UNL     1      36.663 -22.810 -16.492  0.00  0.00    -0.247 OA
ATOM     16  C   UNL     1      37.262 -23.465 -15.652  0.00  0.00    +0.344 C 
BRANCH  16  17
ATOM     17  O   UNL     1      38.610 -23.602 -15.611  0.00  0.00    -0.478 OA
ATOM     18  H   UNL     1      39.032 -24.247 -16.144  0.00  0.00    +0.295 HD
ENDBRANCH  16  17
ENDBRANCH   5  16
TORSDOF 6
ENDMDL
MODEL 8
REMARK VINA RESULT:      -6.4      2.809      3.956
REMARK  Name = 441478
REMARK  6 active torsions:
REMARK  status: ('A' for Active; 'I' for Inactive)
REMARK    1  A    between atoms: C_2  and  O_7
REMARK    2  A    between atoms: C_3  and  O_9
REMARK    3  A    between atoms: C_4  and  O_11
REMARK    4  A    between atoms: C_5  and  C_16
REMARK    5  A    between atoms: C_6  and  O_13
REMARK    6  A    between atoms: C_16  and  O_17
REMARK                            x       y       z     vdW  Elec       q    Type
REMARK                         _______ _______ _______ _____ _____    ______ ____
ROOT
ATOM      1  O   UNL     1      37.562 -23.327 -14.126  0.00  0.00    -0.317 OA
ATOM      2  C   UNL     1      34.768 -23.996 -14.110  0.00  0.00    +0.172 C 
ATOM      3  C   UNL     1      35.653 -24.162 -12.874  0.00  0.00    +0.178 C 
ATOM      4  C   UNL     1      35.599 -23.980 -15.394  0.00  0.00    +0.196 C 
ATOM      5  C   UNL     1      36.825 -23.190 -12.915  0.00  0.00    +0.245 C 
ATOM      6  C   UNL     1      36.779 -23.016 -15.276  0.00  0.00    +0.263 C 
ENDROOT
BRANCH   2   7
ATOM      7  O   UNL     1      33.853 -25.093 -14.148  0.00  0.00    -0.379 OA
ATOM      8  H   UNL     1      34.315 -25.888 -14.458  0.00  0.00    +0.211 HD
ENDBRANCH   2   7
BRANCH   3   9
ATOM      9  O   UNL     1      34.878 -23.895 -11.707  0.00  0.00    -0.379 OA
ATOM     10  H   UNL     1      34.777 -22.936 -11.598  0.00  0.00    +0.211 HD
ENDBRANCH   3   9
BRANCH   4  11
ATOM     11  O   UNL     1      34.780 -23.554 -16.482  0.00  0.00    -0.378 OA
ATOM     12  H   UNL     1      35.148 -23.891 -17.315  0.00  0.00    +0.211 HD
ENDBRANCH   4  11
BRANCH   6  13
ATOM     13  O   UNL     1      37.576 -23.150 -16.451  0.00  0.00    -0.358 OA
ATOM     14  H   UNL     1      37.406 -24.012 -16.863  0.00  0.00    +0.213 HD
ENDBRANCH   6  13
BRANCH   5  16
ATOM     15  O   UNL     1      38.816 -22.845 -11.596  0.00  0.00    -0.247 OA
ATOM     16  C   UNL     1      37.832 -23.519 -11.862  0.00  0.00    +0.344 C 
BRANCH  16  17
ATOM     17  O   UNL     1      37.508 -24.676 -11.234  0.00  0.00    -0.478 OA
ATOM     18  H   UNL     1      38.156 -25.343 -11.119  0.00  0.00    +0.295 HD
ENDBRANCH  16  17
ENDBRANCH   5  16
TORSDOF 6
ENDMDL
MODEL 9
REMARK VINA RESULT:      -6.4      1.473      4.822
REMARK  Name = 441478
REMARK  6 active torsions:
REMARK  status: ('A' for Active; 'I' for Inactive)
REMARK    1  A    between atoms: C_2  and  O_7
REMARK    2  A    between atoms: C_3  and  O_9
REMARK    3  A    between atoms: C_4  and  O_11
REMARK    4  A    between atoms: C_5  and  C_16
REMARK    5  A    between atoms: C_6  and  O_13
REMARK    6  A    between atoms: C_16  and  O_17
REMARK                            x       y       z     vdW  Elec       q    Type
REMARK                         _______ _______ _______ _____ _____    ______ ____
ROOT
ATOM      1  O   UNL     1      36.133 -25.634 -14.192  0.00  0.00    -0.317 OA
ATOM      2  C   UNL     1      38.809 -25.360 -13.183  0.00  0.00    +0.172 C 
ATOM      3  C   UNL     1      37.655 -24.495 -12.676  0.00  0.00    +0.178 C 
ATOM      4  C   UNL     1      38.511 -25.933 -14.569  0.00  0.00    +0.196 C 
ATOM      5  C   UNL     1      36.325 -25.218 -12.843  0.00  0.00    +0.245 C 
ATOM      6  C   UNL     1      37.122 -26.568 -14.617  0.00  0.00    +0.263 C 
ENDROOT
BRANCH   2   7
ATOM      7  O   UNL     1      39.979 -24.542 -13.247  0.00  0.00    -0.379 OA
ATOM      8  H   UNL     1      40.057 -24.024 -12.431  0.00  0.00    +0.211 HD
ENDBRANCH   2   7
BRANCH   3   9
ATOM      9  O   UNL     1      37.854 -24.217 -11.291  0.00  0.00    -0.379 OA
ATOM     10  H   UNL     1      38.804 -24.219 -11.094  0.00  0.00    +0.211 HD
ENDBRANCH   3   9
BRANCH   4  11
ATOM     11  O   UNL     1      39.475 -26.938 -14.883  0.00  0.00    -0.378 OA
ATOM     12  H   UNL     1      40.150 -26.566 -15.472  0.00  0.00    +0.211 HD
ENDBRANCH   4  11
BRANCH   6  13
ATOM     13  O   UNL     1      36.864 -26.962 -15.964  0.00  0.00    -0.358 OA
ATOM     14  H   UNL     1      36.856 -27.930 -16.023  0.00  0.00    +0.213 HD
ENDBRANCH   6  13
BRANCH   5  16
ATOM     15  O   UNL     1      34.001 -24.623 -12.580  0.00  0.00    -0.247 OA
ATOM     16  C   UNL     1      35.177 -24.293 -12.602  0.00  0.00    +0.344 C 
BRANCH  16  17
ATOM     17  O   UNL     1      35.617 -23.024 -12.413  0.00  0.00    -0.478 OA
ATOM     18  H   UNL     1      36.462 -22.873 -12.038  0.00  0.00    +0.295 HD
ENDBRANCH  16  17
ENDBRANCH   5  16
TORSDOF 6
ENDMDL
