MODEL 1
REMARK VINA RESULT:     -11.1      0.000      0.000
REMARK  Name = 23661697
REMARK  6 active torsions:
REMARK  status: ('A' for Active; 'I' for Inactive)
REMARK    1  A    between atoms: C_10  and  C_17
REMARK    2  A    between atoms: C_12  and  C_16
REMARK    3  A    between atoms: C_17  and  C_18
REMARK    4  A    between atoms: C_18  and  N_19
REMARK    5  A    between atoms: C_18  and  C_23
REMARK    6  A    between atoms: C_23  and  C_27
REMARK                            x       y       z     vdW  Elec       q    Type
REMARK                         _______ _______ _______ _____ _____    ______ ____
ROOT
ATOM      1  O   UNL     1      34.668 -17.229 -25.856  0.00  0.00    -0.275 OA
ATOM      2  N   UNL     1      33.916 -15.320 -24.759  0.00  0.00    -0.272 N 
ATOM      3  N   UNL     1      33.485 -12.627 -25.205  0.00  0.00    -0.176 N 
ATOM      4  N   UNL     1      33.828 -11.960 -23.158  0.00  0.00    -0.332 NA
ATOM      5  N   UNL     1      33.422 -11.295 -25.314  0.00  0.00    -0.107 NA
ATOM      6  C   UNL     1      33.854 -14.468 -23.541  0.00  0.00    +0.145 C 
ATOM      7  C   UNL     1      33.046 -14.925 -25.880  0.00  0.00    +0.117 C 
ATOM      8  C   UNL     1      33.372 -13.510 -26.342  0.00  0.00    +0.141 C 
ATOM      9  C   UNL     1      33.732 -13.028 -23.923  0.00  0.00    +0.209 C 
ATOM     10  C   UNL     1      34.675 -16.489 -24.869  0.00  0.00    +0.224 C 
ATOM     11  C   UNL     1      32.693 -14.892 -22.641  0.00  0.00    +0.031 C 
ATOM     12  C   UNL     1      33.632 -10.936 -24.045  0.00  0.00    +0.176 C 
ENDROOT
BRANCH  12  16
ATOM     13  F   UNL     1      34.898  -8.967 -23.705  0.00  0.00    -0.157 F 
ATOM     14  F   UNL     1      32.844  -8.726 -24.377  0.00  0.00    -0.157 F 
ATOM     15  F   UNL     1      33.251  -9.369 -22.335  0.00  0.00    -0.157 F 
ATOM     16  C   UNL     1      33.655  -9.529 -23.628  0.00  0.00    +0.490 C 
ENDBRANCH  12  16
BRANCH  10  17
ATOM     17  C   UNL     1      35.561 -16.835 -23.697  0.00  0.00    +0.064 C 
BRANCH  17  18
ATOM     18  C   UNL     1      35.236 -18.219 -23.133  0.00  0.00    -0.052 C 
BRANCH  18  19
ATOM     19  N   UNL     1      34.482 -18.943 -24.165  0.00  0.00    +0.382 N 
ATOM     20  H   UNL     1      34.603 -18.476 -25.064  0.00  0.00    -0.089 HD
ATOM     21  H   UNL     1      33.492 -18.954 -23.920  0.00  0.00    -0.089 HD
ATOM     22  H   UNL     1      34.827 -19.900 -24.230  0.00  0.00    -0.089 HD
ENDBRANCH  18  19
BRANCH  18  23
ATOM     23  C   UNL     1      34.381 -18.172 -21.848  0.00  0.00    +0.007 C 
BRANCH  23  27
ATOM     24  F   UNL     1      32.109 -19.469 -20.778  0.00  0.00    -0.204 F 
ATOM     25  F   UNL     1      37.006 -21.611 -19.619  0.00  0.00    -0.202 F 
ATOM     26  F   UNL     1      34.736 -22.775 -18.641  0.00  0.00    -0.202 F 
ATOM     27  C   UNL     1      34.473 -19.409 -20.986  0.00  0.00    +0.006 C 
ATOM     28  C   UNL     1      33.313 -19.987 -20.497  0.00  0.00    +0.138 C 
ATOM     29  C   UNL     1      35.720 -19.941 -20.700  0.00  0.00    +0.030 C 
ATOM     30  C   UNL     1      35.808 -21.083 -19.904  0.00  0.00    +0.167 C 
ATOM     31  C   UNL     1      33.402 -21.129 -19.701  0.00  0.00    +0.061 C 
ATOM     32  C   UNL     1      34.650 -21.677 -19.404  0.00  0.00    +0.170 C 
ENDBRANCH  23  27
ENDBRANCH  18  23
ENDBRANCH  17  18
ENDBRANCH  10  17
TORSDOF 6
ENDMDL
MODEL 2
REMARK VINA RESULT:     -11.0      2.377      2.884
REMARK  Name = 23661697
REMARK  6 active torsions:
REMARK  status: ('A' for Active; 'I' for Inactive)
REMARK    1  A    between atoms: C_10  and  C_17
REMARK    2  A    between atoms: C_12  and  C_16
REMARK    3  A    between atoms: C_17  and  C_18
REMARK    4  A    between atoms: C_18  and  N_19
REMARK    5  A    between atoms: C_18  and  C_23
REMARK    6  A    between atoms: C_23  and  C_27
REMARK                            x       y       z     vdW  Elec       q    Type
REMARK                         _______ _______ _______ _____ _____    ______ ____
ROOT
ATOM      1  O   UNL     1      35.057 -16.225 -23.983  0.00  0.00    -0.275 OA
ATOM      2  N   UNL     1      33.590 -15.229 -22.475  0.00  0.00    -0.272 N 
ATOM      3  N   UNL     1      32.349 -12.810 -21.979  0.00  0.00    -0.176 N 
ATOM      4  N   UNL     1      32.205 -13.025 -19.815  0.00  0.00    -0.332 NA
ATOM      5  N   UNL     1      31.863 -11.623 -21.597  0.00  0.00    -0.107 NA
ATOM      6  C   UNL     1      33.105 -15.029 -21.084  0.00  0.00    +0.145 C 
ATOM      7  C   UNL     1      32.780 -14.624 -23.546  0.00  0.00    +0.117 C 
ATOM      8  C   UNL     1      32.671 -13.116 -23.353  0.00  0.00    +0.141 C 
ATOM      9  C   UNL     1      32.560 -13.646 -20.920  0.00  0.00    +0.209 C 
ATOM     10  C   UNL     1      34.700 -16.005 -22.822  0.00  0.00    +0.224 C 
ATOM     11  C   UNL     1      32.050 -16.075 -20.721  0.00  0.00    +0.031 C 
ATOM     12  C   UNL     1      31.789 -11.805 -20.275  0.00  0.00    +0.176 C 
ENDROOT
BRANCH  12  16
ATOM     13  F   UNL     1      31.977  -9.580 -19.494  0.00  0.00    -0.157 F 
ATOM     14  F   UNL     1      29.982 -10.441 -19.574  0.00  0.00    -0.157 F 
ATOM     15  F   UNL     1      31.398 -11.118 -18.062  0.00  0.00    -0.157 F 
ATOM     16  C   UNL     1      31.295 -10.758 -19.373  0.00  0.00    +0.490 C 
ENDBRANCH  12  16
BRANCH  10  17
ATOM     17  C   UNL     1      35.504 -16.585 -21.685  0.00  0.00    +0.064 C 
BRANCH  17  18
ATOM     18  C   UNL     1      35.785 -18.074 -21.894  0.00  0.00    -0.052 C 
BRANCH  18  19
ATOM     19  N   UNL     1      36.478 -18.208 -23.182  0.00  0.00    +0.382 N 
ATOM     20  H   UNL     1      37.150 -18.973 -23.128  0.00  0.00    -0.089 HD
ATOM     21  H   UNL     1      36.969 -17.340 -23.397  0.00  0.00    -0.089 HD
ATOM     22  H   UNL     1      35.797 -18.404 -23.916  0.00  0.00    -0.089 HD
ENDBRANCH  18  19
BRANCH  18  23
ATOM     23  C   UNL     1      34.508 -18.940 -21.935  0.00  0.00    +0.007 C 
BRANCH  23  27
ATOM     24  F   UNL     1      32.059 -19.870 -20.875  0.00  0.00    -0.204 F 
ATOM     25  F   UNL     1      36.656 -22.054 -18.872  0.00  0.00    -0.202 F 
ATOM     26  F   UNL     1      34.226 -22.870 -17.926  0.00  0.00    -0.202 F 
ATOM     27  C   UNL     1      34.429 -19.996 -20.858  0.00  0.00    +0.006 C 
ATOM     28  C   UNL     1      33.189 -20.400 -20.388  0.00  0.00    +0.138 C 
ATOM     29  C   UNL     1      35.601 -20.541 -20.359  0.00  0.00    +0.030 C 
ATOM     30  C   UNL     1      35.531 -21.516 -19.363  0.00  0.00    +0.167 C 
ATOM     31  C   UNL     1      33.121 -21.375 -19.393  0.00  0.00    +0.061 C 
ATOM     32  C   UNL     1      34.291 -21.933 -18.881  0.00  0.00    +0.170 C 
ENDBRANCH  23  27
ENDBRANCH  18  23
ENDBRANCH  17  18
ENDBRANCH  10  17
TORSDOF 6
ENDMDL
MODEL 3
REMARK VINA RESULT:     -10.8      0.730      1.690
REMARK  Name = 23661697
REMARK  6 active torsions:
REMARK  status: ('A' for Active; 'I' for Inactive)
REMARK    1  A    between atoms: C_10  and  C_17
REMARK    2  A    between atoms: C_12  and  C_16
REMARK    3  A    between atoms: C_17  and  C_18
REMARK    4  A    between atoms: C_18  and  N_19
REMARK    5  A    between atoms: C_18  and  C_23
REMARK    6  A    between atoms: C_23  and  C_27
REMARK                            x       y       z     vdW  Elec       q    Type
REMARK                         _______ _______ _______ _____ _____    ______ ____
ROOT
ATOM      1  O   UNL     1      34.626 -17.173 -25.909  0.00  0.00    -0.275 OA
ATOM      2  N   UNL     1      33.896 -15.268 -24.789  0.00  0.00    -0.272 N 
ATOM      3  N   UNL     1      33.459 -12.573 -25.216  0.00  0.00    -0.176 N 
ATOM      4  N   UNL     1      33.841 -11.915 -23.173  0.00  0.00    -0.332 NA
ATOM      5  N   UNL     1      33.395 -11.240 -25.318  0.00  0.00    -0.107 NA
ATOM      6  C   UNL     1      33.859 -14.422 -23.567  0.00  0.00    +0.145 C 
ATOM      7  C   UNL     1      33.006 -14.868 -25.892  0.00  0.00    +0.117 C 
ATOM      8  C   UNL     1      33.323 -13.451 -26.354  0.00  0.00    +0.141 C 
ATOM      9  C   UNL     1      33.730 -12.979 -23.940  0.00  0.00    +0.209 C 
ATOM     10  C   UNL     1      34.652 -16.437 -24.919  0.00  0.00    +0.224 C 
ATOM     11  C   UNL     1      32.715 -14.848 -22.646  0.00  0.00    +0.031 C 
ATOM     12  C   UNL     1      33.629 -10.887 -24.051  0.00  0.00    +0.176 C 
ENDROOT
BRANCH  12  16
ATOM     13  F   UNL     1      32.843  -8.679 -24.372  0.00  0.00    -0.157 F 
ATOM     14  F   UNL     1      33.277  -9.295 -22.332  0.00  0.00    -0.157 F 
ATOM     15  F   UNL     1      34.910  -8.942 -23.732  0.00  0.00    -0.157 F 
ATOM     16  C   UNL     1      33.661  -9.482 -23.629  0.00  0.00    +0.490 C 
ENDBRANCH  12  16
BRANCH  10  17
ATOM     17  C   UNL     1      35.560 -16.789 -23.766  0.00  0.00    +0.064 C 
BRANCH  17  18
ATOM     18  C   UNL     1      35.223 -18.160 -23.179  0.00  0.00    -0.052 C 
BRANCH  18  19
ATOM     19  N   UNL     1      34.256 -18.794 -24.085  0.00  0.00    +0.382 N 
ATOM     20  H   UNL     1      33.722 -18.073 -24.570  0.00  0.00    -0.089 HD
ATOM     21  H   UNL     1      33.619 -19.382 -23.546  0.00  0.00    -0.089 HD
ATOM     22  H   UNL     1      34.752 -19.367 -24.766  0.00  0.00    -0.089 HD
ENDBRANCH  18  19
BRANCH  18  23
ATOM     23  C   UNL     1      34.596 -18.087 -21.770  0.00  0.00    +0.007 C 
BRANCH  23  27
ATOM     24  F   UNL     1      37.160 -19.031 -21.050  0.00  0.00    -0.204 F 
ATOM     25  F   UNL     1      32.842 -21.860 -19.244  0.00  0.00    -0.202 F 
ATOM     26  F   UNL     1      35.373 -22.674 -18.615  0.00  0.00    -0.202 F 
ATOM     27  C   UNL     1      34.808 -19.319 -20.923  0.00  0.00    +0.006 C 
ATOM     28  C   UNL     1      36.097 -19.720 -20.612  0.00  0.00    +0.138 C 
ATOM     29  C   UNL     1      33.705 -20.027 -20.472  0.00  0.00    +0.030 C 
ATOM     30  C   UNL     1      33.898 -21.166 -19.689  0.00  0.00    +0.167 C 
ATOM     31  C   UNL     1      36.289 -20.858 -19.829  0.00  0.00    +0.061 C 
ATOM     32  C   UNL     1      35.189 -21.581 -19.368  0.00  0.00    +0.170 C 
ENDBRANCH  23  27
ENDBRANCH  18  23
ENDBRANCH  17  18
ENDBRANCH  10  17
TORSDOF 6
ENDMDL
MODEL 4
REMARK VINA RESULT:     -10.6      4.020     10.330
REMARK  Name = 23661697
REMARK  6 active torsions:
REMARK  status: ('A' for Active; 'I' for Inactive)
REMARK    1  A    between atoms: C_10  and  C_17
REMARK    2  A    between atoms: C_12  and  C_16
REMARK    3  A    between atoms: C_17  and  C_18
REMARK    4  A    between atoms: C_18  and  N_19
REMARK    5  A    between atoms: C_18  and  C_23
REMARK    6  A    between atoms: C_23  and  C_27
REMARK                            x       y       z     vdW  Elec       q    Type
REMARK                         _______ _______ _______ _____ _____    ______ ____
ROOT
ATOM      1  O   UNL     1      32.491 -20.125 -20.907  0.00  0.00    -0.275 OA
ATOM      2  N   UNL     1      34.274 -21.178 -19.845  0.00  0.00    -0.272 N 
ATOM      3  N   UNL     1      34.841 -22.664 -17.585  0.00  0.00    -0.176 N 
ATOM      4  N   UNL     1      36.914 -22.026 -17.360  0.00  0.00    -0.332 NA
ATOM      5  N   UNL     1      35.202 -23.233 -16.429  0.00  0.00    -0.107 NA
ATOM      6  C   UNL     1      35.703 -21.199 -19.431  0.00  0.00    +0.145 C 
ATOM      7  C   UNL     1      33.503 -22.409 -19.603  0.00  0.00    +0.117 C 
ATOM      8  C   UNL     1      33.504 -22.764 -18.120  0.00  0.00    +0.141 C 
ATOM      9  C   UNL     1      35.857 -21.938 -18.140  0.00  0.00    +0.209 C 
ATOM     10  C   UNL     1      33.657 -20.110 -20.504  0.00  0.00    +0.224 C 
ATOM     11  C   UNL     1      36.574 -21.824 -20.521  0.00  0.00    +0.031 C 
ATOM     12  C   UNL     1      36.469 -22.821 -16.338  0.00  0.00    +0.176 C 
ENDROOT
BRANCH  12  16
ATOM     13  F   UNL     1      37.384 -22.237 -14.236  0.00  0.00    -0.157 F 
ATOM     14  F   UNL     1      36.933 -24.336 -14.577  0.00  0.00    -0.157 F 
ATOM     15  F   UNL     1      38.621 -23.407 -15.596  0.00  0.00    -0.157 F 
ATOM     16  C   UNL     1      37.330 -23.193 -15.210  0.00  0.00    +0.490 C 
ENDBRANCH  12  16
BRANCH  10  17
ATOM     17  C   UNL     1      34.490 -18.868 -20.709  0.00  0.00    +0.064 C 
BRANCH  17  18
ATOM     18  C   UNL     1      34.311 -18.294 -22.115  0.00  0.00    -0.052 C 
BRANCH  18  19
ATOM     19  N   UNL     1      34.839 -19.287 -23.060  0.00  0.00    +0.382 N 
ATOM     20  H   UNL     1      35.179 -18.812 -23.896  0.00  0.00    -0.089 HD
ATOM     21  H   UNL     1      34.099 -19.939 -23.318  0.00  0.00    -0.089 HD
ATOM     22  H   UNL     1      35.606 -19.798 -22.623  0.00  0.00    -0.089 HD
ENDBRANCH  18  19
BRANCH  18  23
ATOM     23  C   UNL     1      35.063 -16.964 -22.335  0.00  0.00    +0.007 C 
BRANCH  23  27
ATOM     24  F   UNL     1      34.355 -15.735 -24.779  0.00  0.00    -0.204 F 
ATOM     25  F   UNL     1      32.370 -13.526 -20.186  0.00  0.00    -0.202 F 
ATOM     26  F   UNL     1      31.757 -12.426 -22.611  0.00  0.00    -0.202 F 
ATOM     27  C   UNL     1      34.175 -15.745 -22.412  0.00  0.00    +0.006 C 
ATOM     28  C   UNL     1      33.873 -15.198 -23.649  0.00  0.00    +0.138 C 
ATOM     29  C   UNL     1      33.679 -15.195 -21.241  0.00  0.00    +0.030 C 
ATOM     30  C   UNL     1      32.859 -14.068 -21.309  0.00  0.00    +0.167 C 
ATOM     31  C   UNL     1      33.053 -14.072 -23.717  0.00  0.00    +0.061 C 
ATOM     32  C   UNL     1      32.546 -13.507 -22.547  0.00  0.00    +0.170 C 
ENDBRANCH  23  27
ENDBRANCH  18  23
ENDBRANCH  17  18
ENDBRANCH  10  17
TORSDOF 6
ENDMDL
MODEL 5
REMARK VINA RESULT:     -10.3      4.970      7.201
REMARK  Name = 23661697
REMARK  6 active torsions:
REMARK  status: ('A' for Active; 'I' for Inactive)
REMARK    1  A    between atoms: C_10  and  C_17
REMARK    2  A    between atoms: C_12  and  C_16
REMARK    3  A    between atoms: C_17  and  C_18
REMARK    4  A    between atoms: C_18  and  N_19
REMARK    5  A    between atoms: C_18  and  C_23
REMARK    6  A    between atoms: C_23  and  C_27
REMARK                            x       y       z     vdW  Elec       q    Type
REMARK                         _______ _______ _______ _____ _____    ______ ____
ROOT
ATOM      1  O   UNL     1      31.550 -10.567 -19.818  0.00  0.00    -0.275 OA
ATOM      2  N   UNL     1      32.152  -9.083 -21.507  0.00  0.00    -0.272 N 
ATOM      3  N   UNL     1      32.003  -6.399 -22.147  0.00  0.00    -0.176 N 
ATOM      4  N   UNL     1      31.953  -6.644 -24.313  0.00  0.00    -0.332 NA
ATOM      5  N   UNL     1      31.806  -5.148 -22.582  0.00  0.00    -0.107 NA
ATOM      6  C   UNL     1      32.297  -8.758 -22.951  0.00  0.00    +0.145 C 
ATOM      7  C   UNL     1      32.702  -8.103 -20.554  0.00  0.00    +0.117 C 
ATOM      8  C   UNL     1      32.047  -6.739 -20.745  0.00  0.00    +0.141 C 
ATOM      9  C   UNL     1      32.086  -7.294 -23.175  0.00  0.00    +0.209 C 
ATOM     10  C   UNL     1      31.605 -10.272 -21.015  0.00  0.00    +0.224 C 
ATOM     11  C   UNL     1      33.668  -9.194 -23.470  0.00  0.00    +0.031 C 
ATOM     12  C   UNL     1      31.788  -5.349 -23.902  0.00  0.00    +0.176 C 
ENDROOT
BRANCH  12  16
ATOM     13  F   UNL     1      30.282  -3.959 -25.084  0.00  0.00    -0.157 F 
ATOM     14  F   UNL     1      32.163  -3.074 -24.448  0.00  0.00    -0.157 F 
ATOM     15  F   UNL     1      32.140  -4.524 -26.075  0.00  0.00    -0.157 F 
ATOM     16  C   UNL     1      31.597  -4.249 -24.854  0.00  0.00    +0.490 C 
ENDBRANCH  12  16
BRANCH  10  17
ATOM     17  C   UNL     1      31.040 -11.230 -22.034  0.00  0.00    +0.064 C 
BRANCH  17  18
ATOM     18  C   UNL     1      31.826 -12.541 -22.073  0.00  0.00    -0.052 C 
BRANCH  18  19
ATOM     19  N   UNL     1      32.203 -12.864 -20.690  0.00  0.00    +0.382 N 
ATOM     20  H   UNL     1      33.005 -12.296 -20.416  0.00  0.00    -0.089 HD
ATOM     21  H   UNL     1      32.449 -13.851 -20.626  0.00  0.00    -0.089 HD
ATOM     22  H   UNL     1      31.419 -12.667 -20.069  0.00  0.00    -0.089 HD
ENDBRANCH  18  19
BRANCH  18  23
ATOM     23  C   UNL     1      33.114 -12.459 -22.922  0.00  0.00    +0.007 C 
BRANCH  23  27
ATOM     24  F   UNL     1      34.855 -14.353 -21.751  0.00  0.00    -0.204 F 
ATOM     25  F   UNL     1      32.849 -15.508 -26.707  0.00  0.00    -0.202 F 
ATOM     26  F   UNL     1      34.544 -17.260 -25.472  0.00  0.00    -0.202 F 
ATOM     27  C   UNL     1      33.500 -13.750 -23.605  0.00  0.00    +0.006 C 
ATOM     28  C   UNL     1      34.360 -14.628 -22.966  0.00  0.00    +0.138 C 
ATOM     29  C   UNL     1      32.985 -14.030 -24.860  0.00  0.00    +0.030 C 
ATOM     30  C   UNL     1      33.340 -15.222 -25.493  0.00  0.00    +0.167 C 
ATOM     31  C   UNL     1      34.715 -15.819 -23.600  0.00  0.00    +0.061 C 
ATOM     32  C   UNL     1      34.205 -16.116 -24.864  0.00  0.00    +0.170 C 
ENDBRANCH  23  27
ENDBRANCH  18  23
ENDBRANCH  17  18
ENDBRANCH  10  17
TORSDOF 6
ENDMDL
MODEL 6
REMARK VINA RESULT:     -10.3      4.325      6.833
REMARK  Name = 23661697
REMARK  6 active torsions:
REMARK  status: ('A' for Active; 'I' for Inactive)
REMARK    1  A    between atoms: C_10  and  C_17
REMARK    2  A    between atoms: C_12  and  C_16
REMARK    3  A    between atoms: C_17  and  C_18
REMARK    4  A    between atoms: C_18  and  N_19
REMARK    5  A    between atoms: C_18  and  C_23
REMARK    6  A    between atoms: C_23  and  C_27
REMARK                            x       y       z     vdW  Elec       q    Type
REMARK                         _______ _______ _______ _____ _____    ______ ____
ROOT
ATOM      1  O   UNL     1      31.941 -10.383 -20.914  0.00  0.00    -0.275 OA
ATOM      2  N   UNL     1      32.565  -8.510 -22.146  0.00  0.00    -0.272 N 
ATOM      3  N   UNL     1      31.895  -5.850 -22.481  0.00  0.00    -0.176 N 
ATOM      4  N   UNL     1      32.500  -5.684 -24.568  0.00  0.00    -0.332 NA
ATOM      5  N   UNL     1      31.501  -4.613 -22.804  0.00  0.00    -0.107 NA
ATOM      6  C   UNL     1      33.005  -7.892 -23.426  0.00  0.00    +0.145 C 
ATOM      7  C   UNL     1      32.559  -7.634 -20.962  0.00  0.00    +0.117 C 
ATOM      8  C   UNL     1      31.646  -6.434 -21.184  0.00  0.00    +0.141 C 
ATOM      9  C   UNL     1      32.485  -6.494 -23.530  0.00  0.00    +0.209 C 
ATOM     10  C   UNL     1      32.238  -9.861 -21.991  0.00  0.00    +0.224 C 
ATOM     11  C   UNL     1      34.530  -7.914 -23.543  0.00  0.00    +0.031 C 
ATOM     12  C   UNL     1      31.895  -4.557 -24.080  0.00  0.00    +0.176 C 
ENDROOT
BRANCH  12  16
ATOM     13  F   UNL     1      30.368  -3.049 -25.074  0.00  0.00    -0.157 F 
ATOM     14  F   UNL     1      32.268  -2.238 -24.395  0.00  0.00    -0.157 F 
ATOM     15  F   UNL     1      32.198  -3.512 -26.163  0.00  0.00    -0.157 F 
ATOM     16  C   UNL     1      31.686  -3.363 -24.907  0.00  0.00    +0.490 C 
ENDBRANCH  12  16
BRANCH  10  17
ATOM     17  C   UNL     1      32.243 -10.707 -23.241  0.00  0.00    +0.064 C 
BRANCH  17  18
ATOM     18  C   UNL     1      33.278 -11.830 -23.158  0.00  0.00    -0.052 C 
BRANCH  18  19
ATOM     19  N   UNL     1      34.225 -11.630 -24.264  0.00  0.00    +0.382 N 
ATOM     20  H   UNL     1      34.994 -12.295 -24.176  0.00  0.00    -0.089 HD
ATOM     21  H   UNL     1      34.593 -10.680 -24.229  0.00  0.00    -0.089 HD
ATOM     22  H   UNL     1      33.747 -11.778 -25.152  0.00  0.00    -0.089 HD
ENDBRANCH  18  19
BRANCH  18  23
ATOM     23  C   UNL     1      32.664 -13.241 -23.291  0.00  0.00    +0.007 C 
BRANCH  23  27
ATOM     24  F   UNL     1      32.659 -13.461 -20.474  0.00  0.00    -0.204 F 
ATOM     25  F   UNL     1      35.533 -17.172 -23.282  0.00  0.00    -0.202 F 
ATOM     26  F   UNL     1      35.453 -17.280 -20.553  0.00  0.00    -0.202 F 
ATOM     27  C   UNL     1      33.413 -14.324 -22.553  0.00  0.00    +0.006 C 
ATOM     28  C   UNL     1      33.362 -14.366 -21.169  0.00  0.00    +0.138 C 
ATOM     29  C   UNL     1      34.137 -15.258 -23.276  0.00  0.00    +0.030 C 
ATOM     30  C   UNL     1      34.830 -16.261 -22.596  0.00  0.00    +0.167 C 
ATOM     31  C   UNL     1      34.055 -15.369 -20.490  0.00  0.00    +0.061 C 
ATOM     32  C   UNL     1      34.789 -16.316 -21.204  0.00  0.00    +0.170 C 
ENDBRANCH  23  27
ENDBRANCH  18  23
ENDBRANCH  17  18
ENDBRANCH  10  17
TORSDOF 6
ENDMDL
MODEL 7
REMARK VINA RESULT:     -10.2      4.313      6.787
REMARK  Name = 23661697
REMARK  6 active torsions:
REMARK  status: ('A' for Active; 'I' for Inactive)
REMARK    1  A    between atoms: C_10  and  C_17
REMARK    2  A    between atoms: C_12  and  C_16
REMARK    3  A    between atoms: C_17  and  C_18
REMARK    4  A    between atoms: C_18  and  N_19
REMARK    5  A    between atoms: C_18  and  C_23
REMARK    6  A    between atoms: C_23  and  C_27
REMARK                            x       y       z     vdW  Elec       q    Type
REMARK                         _______ _______ _______ _____ _____    ______ ____
ROOT
ATOM      1  O   UNL     1      31.893 -10.335 -20.588  0.00  0.00    -0.275 OA
ATOM      2  N   UNL     1      32.490  -8.606 -22.027  0.00  0.00    -0.272 N 
ATOM      3  N   UNL     1      31.912  -5.952 -22.537  0.00  0.00    -0.176 N 
ATOM      4  N   UNL     1      32.341  -5.992 -24.674  0.00  0.00    -0.332 NA
ATOM      5  N   UNL     1      31.547  -4.728 -22.934  0.00  0.00    -0.107 NA
ATOM      6  C   UNL     1      32.845  -8.121 -23.388  0.00  0.00    +0.145 C 
ATOM      7  C   UNL     1      32.626  -7.636 -20.928  0.00  0.00    +0.117 C 
ATOM      8  C   UNL     1      31.751  -6.412 -21.178  0.00  0.00    +0.141 C 
ATOM      9  C   UNL     1      32.380  -6.711 -23.571  0.00  0.00    +0.209 C 
ATOM     10  C   UNL     1      32.118  -9.921 -21.729  0.00  0.00    +0.224 C 
ATOM     11  C   UNL     1      34.351  -8.232 -23.628  0.00  0.00    +0.031 C 
ATOM     12  C   UNL     1      31.831  -4.799 -24.238  0.00  0.00    +0.176 C 
ENDROOT
BRANCH  12  16
ATOM     13  F   UNL     1      32.000  -3.925 -26.429  0.00  0.00    -0.157 F 
ATOM     14  F   UNL     1      30.294  -3.297 -25.236  0.00  0.00    -0.157 F 
ATOM     15  F   UNL     1      32.287  -2.553 -24.759  0.00  0.00    -0.157 F 
ATOM     16  C   UNL     1      31.605  -3.670 -25.146  0.00  0.00    +0.490 C 
ENDBRANCH  12  16
BRANCH  10  17
ATOM     17  C   UNL     1      31.977 -10.867 -22.895  0.00  0.00    +0.064 C 
BRANCH  17  18
ATOM     18  C   UNL     1      32.988 -12.012 -22.819  0.00  0.00    -0.052 C 
BRANCH  18  19
ATOM     19  N   UNL     1      33.986 -11.782 -23.872  0.00  0.00    +0.382 N 
ATOM     20  H   UNL     1      34.643 -11.064 -23.565  0.00  0.00    -0.089 HD
ATOM     21  H   UNL     1      33.518 -11.471 -24.723  0.00  0.00    -0.089 HD
ATOM     22  H   UNL     1      34.491 -12.648 -24.058  0.00  0.00    -0.089 HD
ENDBRANCH  18  19
BRANCH  18  23
ATOM     23  C   UNL     1      32.357 -13.404 -23.042  0.00  0.00    +0.007 C 
BRANCH  23  27
ATOM     24  F   UNL     1      33.296 -14.893 -25.253  0.00  0.00    -0.204 F 
ATOM     25  F   UNL     1      35.101 -16.340 -20.297  0.00  0.00    -0.202 F 
ATOM     26  F   UNL     1      35.936 -17.705 -22.511  0.00  0.00    -0.202 F 
ATOM     27  C   UNL     1      33.319 -14.560 -22.903  0.00  0.00    +0.006 C 
ATOM     28  C   UNL     1      33.733 -15.243 -24.035  0.00  0.00    +0.138 C 
ATOM     29  C   UNL     1      33.768 -14.916 -21.641  0.00  0.00    +0.030 C 
ATOM     30  C   UNL     1      34.656 -15.984 -21.509  0.00  0.00    +0.167 C 
ATOM     31  C   UNL     1      34.621 -16.310 -23.902  0.00  0.00    +0.061 C 
ATOM     32  C   UNL     1      35.082 -16.681 -22.639  0.00  0.00    +0.170 C 
ENDBRANCH  23  27
ENDBRANCH  18  23
ENDBRANCH  17  18
ENDBRANCH  10  17
TORSDOF 6
ENDMDL
MODEL 8
REMARK VINA RESULT:     -10.1      2.138      9.395
REMARK  Name = 23661697
REMARK  6 active torsions:
REMARK  status: ('A' for Active; 'I' for Inactive)
REMARK    1  A    between atoms: C_10  and  C_17
REMARK    2  A    between atoms: C_12  and  C_16
REMARK    3  A    between atoms: C_17  and  C_18
REMARK    4  A    between atoms: C_18  and  N_19
REMARK    5  A    between atoms: C_18  and  C_23
REMARK    6  A    between atoms: C_23  and  C_27
REMARK                            x       y       z     vdW  Elec       q    Type
REMARK                         _______ _______ _______ _____ _____    ______ ____
ROOT
ATOM      1  O   UNL     1      33.001 -13.631 -24.532  0.00  0.00    -0.275 OA
ATOM      2  N   UNL     1      33.901 -15.103 -22.970  0.00  0.00    -0.272 N 
ATOM      3  N   UNL     1      34.757 -17.721 -22.744  0.00  0.00    -0.176 N 
ATOM      4  N   UNL     1      34.303 -17.968 -20.626  0.00  0.00    -0.332 NA
ATOM      5  N   UNL     1      35.020 -19.017 -22.535  0.00  0.00    -0.107 NA
ATOM      6  C   UNL     1      33.957 -15.644 -21.585  0.00  0.00    +0.145 C 
ATOM      7  C   UNL     1      34.929 -15.588 -23.906  0.00  0.00    +0.117 C 
ATOM      8  C   UNL     1      34.860 -17.105 -24.046  0.00  0.00    +0.141 C 
ATOM      9  C   UNL     1      34.324 -17.094 -21.611  0.00  0.00    +0.209 C 
ATOM     10  C   UNL     1      32.998 -14.127 -23.401  0.00  0.00    +0.224 C 
ATOM     11  C   UNL     1      34.947 -14.850 -20.732  0.00  0.00    +0.031 C 
ATOM     12  C   UNL     1      34.734 -19.116 -21.234  0.00  0.00    +0.176 C 
ENDROOT
BRANCH  12  16
ATOM     13  F   UNL     1      33.709 -20.780 -19.901  0.00  0.00    -0.157 F 
ATOM     14  F   UNL     1      35.249 -21.429 -21.292  0.00  0.00    -0.157 F 
ATOM     15  F   UNL     1      35.800 -20.304 -19.508  0.00  0.00    -0.157 F 
ATOM     16  C   UNL     1      34.869 -20.381 -20.502  0.00  0.00    +0.490 C 
ENDBRANCH  12  16
BRANCH  10  17
ATOM     17  C   UNL     1      31.956 -13.681 -22.406  0.00  0.00    +0.064 C 
BRANCH  17  18
ATOM     18  C   UNL     1      32.338 -12.357 -21.743  0.00  0.00    -0.052 C 
BRANCH  18  19
ATOM     19  N   UNL     1      31.905 -12.433 -20.341  0.00  0.00    +0.382 N 
ATOM     20  H   UNL     1      32.524 -11.863 -19.764  0.00  0.00    -0.089 HD
ATOM     21  H   UNL     1      31.943 -13.402 -20.024  0.00  0.00    -0.089 HD
ATOM     22  H   UNL     1      30.950 -12.086 -20.261  0.00  0.00    -0.089 HD
ENDBRANCH  18  19
BRANCH  18  23
ATOM     23  C   UNL     1      31.668 -11.128 -22.394  0.00  0.00    +0.007 C 
BRANCH  23  27
ATOM     24  F   UNL     1      31.576  -8.563 -21.210  0.00  0.00    -0.204 F 
ATOM     25  F   UNL     1      35.409  -9.442 -25.012  0.00  0.00    -0.202 F 
ATOM     26  F   UNL     1      35.219  -7.002 -23.797  0.00  0.00    -0.202 F 
ATOM     27  C   UNL     1      32.621 -10.017 -22.769  0.00  0.00    +0.006 C 
ATOM     28  C   UNL     1      32.512  -8.785 -22.144  0.00  0.00    +0.138 C 
ATOM     29  C   UNL     1      33.587 -10.253 -23.733  0.00  0.00    +0.030 C 
ATOM     30  C   UNL     1      34.468  -9.229 -24.082  0.00  0.00    +0.167 C 
ATOM     31  C   UNL     1      33.393  -7.762 -22.493  0.00  0.00    +0.061 C 
ATOM     32  C   UNL     1      34.371  -7.984 -23.462  0.00  0.00    +0.170 C 
ENDBRANCH  23  27
ENDBRANCH  18  23
ENDBRANCH  17  18
ENDBRANCH  10  17
TORSDOF 6
ENDMDL
MODEL 9
REMARK VINA RESULT:      -9.8      3.300     10.341
REMARK  Name = 23661697
REMARK  6 active torsions:
REMARK  status: ('A' for Active; 'I' for Inactive)
REMARK    1  A    between atoms: C_10  and  C_17
REMARK    2  A    between atoms: C_12  and  C_16
REMARK    3  A    between atoms: C_17  and  C_18
REMARK    4  A    between atoms: C_18  and  N_19
REMARK    5  A    between atoms: C_18  and  C_23
REMARK    6  A    between atoms: C_23  and  C_27
REMARK                            x       y       z     vdW  Elec       q    Type
REMARK                         _______ _______ _______ _____ _____    ______ ____
ROOT
ATOM      1  O   UNL     1      32.314 -10.281 -22.675  0.00  0.00    -0.275 OA
ATOM      2  N   UNL     1      32.997 -12.448 -23.181  0.00  0.00    -0.272 N 
ATOM      3  N   UNL     1      33.363 -14.910 -21.979  0.00  0.00    -0.176 N 
ATOM      4  N   UNL     1      34.966 -15.606 -23.283  0.00  0.00    -0.332 NA
ATOM      5  N   UNL     1      33.720 -16.069 -21.415  0.00  0.00    -0.107 NA
ATOM      6  C   UNL     1      33.906 -13.383 -23.896  0.00  0.00    +0.145 C 
ATOM      7  C   UNL     1      31.862 -13.055 -22.465  0.00  0.00    +0.117 C 
ATOM      8  C   UNL     1      32.353 -14.045 -21.415  0.00  0.00    +0.141 C 
ATOM      9  C   UNL     1      34.107 -14.627 -23.089  0.00  0.00    +0.209 C 
ATOM     10  C   UNL     1      33.111 -11.055 -23.212  0.00  0.00    +0.224 C 
ATOM     11  C   UNL     1      33.357 -13.718 -25.283  0.00  0.00    +0.031 C 
ATOM     12  C   UNL     1      34.693 -16.455 -22.245  0.00  0.00    +0.176 C 
ENDROOT
BRANCH  12  16
ATOM     13  F   UNL     1      36.556 -17.795 -22.815  0.00  0.00    -0.157 F 
ATOM     14  F   UNL     1      35.838 -17.911 -20.767  0.00  0.00    -0.157 F 
ATOM     15  F   UNL     1      34.673 -18.802 -22.379  0.00  0.00    -0.157 F 
ATOM     16  C   UNL     1      35.426 -17.712 -22.054  0.00  0.00    +0.490 C 
ENDBRANCH  12  16
BRANCH  10  17
ATOM     17  C   UNL     1      34.303 -10.489 -23.944  0.00  0.00    +0.064 C 
BRANCH  17  18
ATOM     18  C   UNL     1      34.091  -9.022 -24.320  0.00  0.00    -0.052 C 
BRANCH  18  19
ATOM     19  N   UNL     1      35.020  -8.714 -25.415  0.00  0.00    +0.382 N 
ATOM     20  H   UNL     1      34.610  -9.009 -26.301  0.00  0.00    -0.089 HD
ATOM     21  H   UNL     1      35.898  -9.212 -25.266  0.00  0.00    -0.089 HD
ATOM     22  H   UNL     1      35.198  -7.711 -25.439  0.00  0.00    -0.089 HD
ENDBRANCH  18  19
BRANCH  18  23
ATOM     23  C   UNL     1      34.369  -8.044 -23.157  0.00  0.00    +0.007 C 
BRANCH  23  27
ATOM     24  F   UNL     1      33.382  -7.805 -20.519  0.00  0.00    -0.204 F 
ATOM     25  F   UNL     1      30.907  -4.860 -24.407  0.00  0.00    -0.202 F 
ATOM     26  F   UNL     1      30.043  -4.714 -21.819  0.00  0.00    -0.202 F 
ATOM     27  C   UNL     1      33.207  -7.151 -22.794  0.00  0.00    +0.006 C 
ATOM     28  C   UNL     1      32.780  -7.088 -21.477  0.00  0.00    +0.138 C 
ATOM     29  C   UNL     1      32.589  -6.410 -23.789  0.00  0.00    +0.030 C 
ATOM     30  C   UNL     1      31.514  -5.584 -23.457  0.00  0.00    +0.167 C 
ATOM     31  C   UNL     1      31.706  -6.261 -21.147  0.00  0.00    +0.061 C 
ATOM     32  C   UNL     1      31.073  -5.509 -22.136  0.00  0.00    +0.170 C 
ENDBRANCH  23  27
ENDBRANCH  18  23
ENDBRANCH  17  18
ENDBRANCH  10  17
TORSDOF 6
ENDMDL
