MODEL 1
REMARK VINA RESULT:     -10.2      0.000      0.000
REMARK  Name = 208901
REMARK  12 active torsions:
REMARK  status: ('A' for Active; 'I' for Inactive)
REMARK    1  A    between atoms: C_1  and  C_21
REMARK    2  A    between atoms: C_4  and  O_7
REMARK    3  A    between atoms: O_7  and  C_8
REMARK    4  A    between atoms: C_8  and  C_9
REMARK    5  A    between atoms: C_9  and  C_10
REMARK    6  A    between atoms: C_13  and  O_16
REMARK    7  A    between atoms: O_16  and  S_17
REMARK    8  A    between atoms: C_21  and  C_22
REMARK    9  A    between atoms: C_22  and  C_24
REMARK   10  A    between atoms: C_22  and  O_27
REMARK   11  A    between atoms: C_24  and  O_25
REMARK   12  A    between atoms: O_27  and  C_28
REMARK                            x       y       z     vdW  Elec       q    Type
REMARK                         _______ _______ _______ _____ _____    ______ ____
ROOT
ATOM      1  C   UNL     1      34.989 -19.436 -20.992  0.00  0.00    -0.019 C 
ATOM      2  C   UNL     1      33.596 -19.371 -21.001  0.00  0.00    -0.001 C 
ATOM      3  C   UNL     1      35.636 -20.447 -20.282  0.00  0.00    -0.001 C 
ATOM      4  C   UNL     1      33.496 -21.330 -19.592  0.00  0.00    +0.139 C 
ATOM      5  C   UNL     1      32.850 -20.318 -20.301  0.00  0.00    +0.037 C 
ATOM      6  C   UNL     1      34.890 -21.394 -19.582  0.00  0.00    +0.037 C 
ENDROOT
BRANCH   4   7
ATOM      7  O   UNL     1      32.763 -22.260 -18.903  0.00  0.00    -0.475 OA
BRANCH   7   8
ATOM      8  C   UNL     1      33.490 -23.294 -18.251  0.00  0.00    +0.210 C 
BRANCH   8   9
ATOM      9  C   UNL     1      33.370 -23.126 -16.733  0.00  0.00    +0.074 C 
BRANCH   9  10
ATOM     10  C   UNL     1      34.671 -23.298 -16.023  0.00  0.00    -0.018 C 
ATOM     11  C   UNL     1      34.733 -24.051 -14.851  0.00  0.00    -0.001 C 
ATOM     12  C   UNL     1      35.827 -22.706 -16.534  0.00  0.00    -0.001 C 
ATOM     13  C   UNL     1      37.105 -23.620 -14.699  0.00  0.00    +0.171 C 
ATOM     14  C   UNL     1      35.949 -24.213 -14.189  0.00  0.00    +0.039 C 
ATOM     15  C   UNL     1      37.044 -22.867 -15.871  0.00  0.00    +0.039 C 
BRANCH  13  16
ATOM     16  O   UNL     1      38.292 -23.779 -14.052  0.00  0.00    -0.360 OA
BRANCH  16  17
ATOM     17  S   UNL     1      39.131 -25.186 -14.053  0.00  0.00    +0.032 S 
ATOM     18  O   UNL     1      38.610 -26.062 -15.082  0.00  0.00    -0.062 OA
ATOM     19  O   UNL     1      40.547 -24.907 -13.919  0.00  0.00    -0.062 OA
ATOM     20  C   UNL     1      38.547 -25.782 -12.487  0.00  0.00    +0.194 C 
ENDBRANCH  16  17
ENDBRANCH  13  16
ENDBRANCH   9  10
ENDBRANCH   8   9
ENDBRANCH   7   8
ENDBRANCH   4   7
BRANCH   1  21
ATOM     21  C   UNL     1      35.787 -18.422 -21.741  0.00  0.00    +0.067 C 
BRANCH  21  22
ATOM     22  C   UNL     1      34.905 -17.381 -22.450  0.00  0.00    +0.217 C 
BRANCH  22  24
ATOM     23  O   UNL     1      34.950 -15.928 -20.499  0.00  0.00    -0.248 OA
ATOM     24  C   UNL     1      34.919 -16.055 -21.716  0.00  0.00    +0.342 C 
BRANCH  24  25
ATOM     25  O   UNL     1      34.911 -14.997 -22.569  0.00  0.00    -0.479 OA
ATOM     26  H   UNL     1      34.941 -14.124 -22.232  0.00  0.00    +0.295 HD
ENDBRANCH  24  25
ENDBRANCH  22  24
BRANCH  22  27
ATOM     27  O   UNL     1      35.431 -17.154 -23.752  0.00  0.00    -0.345 OA
BRANCH  27  28
ATOM     28  C   UNL     1      34.486 -17.481 -24.760  0.00  0.00    +0.143 C 
ATOM     29  C   UNL     1      34.371 -18.988 -24.858  0.00  0.00    +0.035 C 
ENDBRANCH  27  28
ENDBRANCH  22  27
ENDBRANCH  21  22
ENDBRANCH   1  21
TORSDOF 12
ENDMDL
MODEL 2
REMARK VINA RESULT:     -10.1      3.160     10.312
REMARK  Name = 208901
REMARK  12 active torsions:
REMARK  status: ('A' for Active; 'I' for Inactive)
REMARK    1  A    between atoms: C_1  and  C_21
REMARK    2  A    between atoms: C_4  and  O_7
REMARK    3  A    between atoms: O_7  and  C_8
REMARK    4  A    between atoms: C_8  and  C_9
REMARK    5  A    between atoms: C_9  and  C_10
REMARK    6  A    between atoms: C_13  and  O_16
REMARK    7  A    between atoms: O_16  and  S_17
REMARK    8  A    between atoms: C_21  and  C_22
REMARK    9  A    between atoms: C_22  and  C_24
REMARK   10  A    between atoms: C_22  and  O_27
REMARK   11  A    between atoms: C_24  and  O_25
REMARK   12  A    between atoms: O_27  and  C_28
REMARK                            x       y       z     vdW  Elec       q    Type
REMARK                         _______ _______ _______ _____ _____    ______ ____
ROOT
ATOM      1  C   UNL     1      34.967 -23.751 -14.128  0.00  0.00    -0.019 C 
ATOM      2  C   UNL     1      36.132 -23.235 -14.693  0.00  0.00    -0.001 C 
ATOM      3  C   UNL     1      33.802 -23.843 -14.890  0.00  0.00    -0.001 C 
ATOM      4  C   UNL     1      34.970 -22.903 -16.784  0.00  0.00    +0.139 C 
ATOM      5  C   UNL     1      36.134 -22.810 -16.022  0.00  0.00    +0.037 C 
ATOM      6  C   UNL     1      33.804 -23.419 -16.219  0.00  0.00    +0.037 C 
ENDROOT
BRANCH   4   7
ATOM      7  O   UNL     1      34.971 -22.486 -18.090  0.00  0.00    -0.475 OA
BRANCH   7   8
ATOM      8  C   UNL     1      36.088 -21.717 -18.517  0.00  0.00    +0.210 C 
BRANCH   8   9
ATOM      9  C   UNL     1      36.111 -21.653 -20.047  0.00  0.00    +0.074 C 
BRANCH   9  10
ATOM     10  C   UNL     1      35.600 -20.358 -20.584  0.00  0.00    -0.018 C 
ATOM     11  C   UNL     1      34.227 -20.118 -20.638  0.00  0.00    -0.001 C 
ATOM     12  C   UNL     1      36.497 -19.387 -21.031  0.00  0.00    -0.001 C 
ATOM     13  C   UNL     1      34.647 -17.936 -21.586  0.00  0.00    +0.171 C 
ATOM     14  C   UNL     1      33.750 -18.907 -21.139  0.00  0.00    +0.039 C 
ATOM     15  C   UNL     1      36.020 -18.176 -21.532  0.00  0.00    +0.039 C 
BRANCH  13  16
ATOM     16  O   UNL     1      34.181 -16.754 -22.075  0.00  0.00    -0.360 OA
BRANCH  16  17
ATOM     17  S   UNL     1      33.784 -15.484 -21.118  0.00  0.00    +0.032 S 
ATOM     18  O   UNL     1      32.388 -15.575 -20.744  0.00  0.00    -0.062 OA
ATOM     19  O   UNL     1      34.834 -15.264 -20.144  0.00  0.00    -0.062 OA
ATOM     20  C   UNL     1      33.931 -14.228 -22.363  0.00  0.00    +0.194 C 
ENDBRANCH  16  17
ENDBRANCH  13  16
ENDBRANCH   9  10
ENDBRANCH   8   9
ENDBRANCH   7   8
ENDBRANCH   4   7
BRANCH   1  21
ATOM     21  C   UNL     1      34.966 -24.204 -12.707  0.00  0.00    +0.067 C 
BRANCH  21  22
ATOM     22  C   UNL     1      36.384 -24.382 -12.141  0.00  0.00    +0.217 C 
BRANCH  22  24
ATOM     23  O   UNL     1      36.179 -24.023  -9.744  0.00  0.00    -0.248 OA
ATOM     24  C   UNL     1      36.557 -23.627 -10.838  0.00  0.00    +0.342 C 
BRANCH  24  25
ATOM     25  O   UNL     1      37.209 -22.448 -11.013  0.00  0.00    -0.479 OA
ATOM     26  H   UNL     1      37.524 -21.972 -10.270  0.00  0.00    +0.295 HD
ENDBRANCH  24  25
ENDBRANCH  22  24
BRANCH  22  27
ATOM     27  O   UNL     1      36.592 -25.762 -11.866  0.00  0.00    -0.345 OA
BRANCH  27  28
ATOM     28  C   UNL     1      37.301 -26.402 -12.917  0.00  0.00    +0.143 C 
ATOM     29  C   UNL     1      38.609 -25.673 -13.145  0.00  0.00    +0.035 C 
ENDBRANCH  27  28
ENDBRANCH  22  27
ENDBRANCH  21  22
ENDBRANCH   1  21
TORSDOF 12
ENDMDL
MODEL 3
REMARK VINA RESULT:      -9.9      1.891      2.360
REMARK  Name = 208901
REMARK  12 active torsions:
REMARK  status: ('A' for Active; 'I' for Inactive)
REMARK    1  A    between atoms: C_1  and  C_21
REMARK    2  A    between atoms: C_4  and  O_7
REMARK    3  A    between atoms: O_7  and  C_8
REMARK    4  A    between atoms: C_8  and  C_9
REMARK    5  A    between atoms: C_9  and  C_10
REMARK    6  A    between atoms: C_13  and  O_16
REMARK    7  A    between atoms: O_16  and  S_17
REMARK    8  A    between atoms: C_21  and  C_22
REMARK    9  A    between atoms: C_22  and  C_24
REMARK   10  A    between atoms: C_22  and  O_27
REMARK   11  A    between atoms: C_24  and  O_25
REMARK   12  A    between atoms: O_27  and  C_28
REMARK                            x       y       z     vdW  Elec       q    Type
REMARK                         _______ _______ _______ _____ _____    ______ ____
ROOT
ATOM      1  C   UNL     1      35.076 -19.168 -21.183  0.00  0.00    -0.019 C 
ATOM      2  C   UNL     1      33.683 -19.217 -21.232  0.00  0.00    -0.001 C 
ATOM      3  C   UNL     1      35.785 -20.145 -20.485  0.00  0.00    -0.001 C 
ATOM      4  C   UNL     1      33.707 -21.223 -19.886  0.00  0.00    +0.139 C 
ATOM      5  C   UNL     1      32.999 -20.245 -20.584  0.00  0.00    +0.037 C 
ATOM      6  C   UNL     1      35.100 -21.173 -19.836  0.00  0.00    +0.037 C 
ENDROOT
BRANCH   4   7
ATOM      7  O   UNL     1      33.035 -22.232 -19.248  0.00  0.00    -0.475 OA
BRANCH   7   8
ATOM      8  C   UNL     1      33.653 -22.783 -18.092  0.00  0.00    +0.210 C 
BRANCH   8   9
ATOM      9  C   UNL     1      32.597 -23.013 -17.007  0.00  0.00    +0.074 C 
BRANCH   9  10
ATOM     10  C   UNL     1      33.180 -23.483 -15.716  0.00  0.00    -0.018 C 
ATOM     11  C   UNL     1      34.486 -23.968 -15.676  0.00  0.00    -0.001 C 
ATOM     12  C   UNL     1      32.417 -23.435 -14.549  0.00  0.00    -0.001 C 
ATOM     13  C   UNL     1      34.267 -24.359 -13.302  0.00  0.00    +0.171 C 
ATOM     14  C   UNL     1      35.031 -24.407 -14.469  0.00  0.00    +0.039 C 
ATOM     15  C   UNL     1      32.961 -23.873 -13.342  0.00  0.00    +0.039 C 
BRANCH  13  16
ATOM     16  O   UNL     1      34.800 -24.786 -12.124  0.00  0.00    -0.360 OA
BRANCH  16  17
ATOM     17  S   UNL     1      36.130 -24.112 -11.446  0.00  0.00    +0.032 S 
ATOM     18  O   UNL     1      36.412 -22.843 -12.085  0.00  0.00    -0.062 OA
ATOM     19  O   UNL     1      36.067 -24.255 -10.006  0.00  0.00    -0.062 OA
ATOM     20  C   UNL     1      37.302 -25.297 -12.055  0.00  0.00    +0.194 C 
ENDBRANCH  16  17
ENDBRANCH  13  16
ENDBRANCH   9  10
ENDBRANCH   8   9
ENDBRANCH   7   8
ENDBRANCH   4   7
BRANCH   1  21
ATOM     21  C   UNL     1      35.807 -18.069 -21.877  0.00  0.00    +0.067 C 
BRANCH  21  22
ATOM     22  C   UNL     1      34.875 -16.937 -22.339  0.00  0.00    +0.217 C 
BRANCH  22  24
ATOM     23  O   UNL     1      35.024 -15.949 -20.120  0.00  0.00    -0.248 OA
ATOM     24  C   UNL     1      34.822 -15.816 -21.320  0.00  0.00    +0.342 C 
BRANCH  24  25
ATOM     25  O   UNL     1      34.538 -14.617 -21.892  0.00  0.00    -0.479 OA
ATOM     26  H   UNL     1      34.572 -14.523 -22.823  0.00  0.00    +0.295 HD
ENDBRANCH  24  25
ENDBRANCH  22  24
BRANCH  22  27
ATOM     27  O   UNL     1      35.390 -16.391 -23.547  0.00  0.00    -0.345 OA
BRANCH  27  28
ATOM     28  C   UNL     1      34.545 -16.682 -24.651  0.00  0.00    +0.143 C 
ATOM     29  C   UNL     1      34.453 -18.185 -24.819  0.00  0.00    +0.035 C 
ENDBRANCH  27  28
ENDBRANCH  22  27
ENDBRANCH  21  22
ENDBRANCH   1  21
TORSDOF 12
ENDMDL
MODEL 4
REMARK VINA RESULT:      -9.9      4.077      9.627
REMARK  Name = 208901
REMARK  12 active torsions:
REMARK  status: ('A' for Active; 'I' for Inactive)
REMARK    1  A    between atoms: C_1  and  C_21
REMARK    2  A    between atoms: C_4  and  O_7
REMARK    3  A    between atoms: O_7  and  C_8
REMARK    4  A    between atoms: C_8  and  C_9
REMARK    5  A    between atoms: C_9  and  C_10
REMARK    6  A    between atoms: C_13  and  O_16
REMARK    7  A    between atoms: O_16  and  S_17
REMARK    8  A    between atoms: C_21  and  C_22
REMARK    9  A    between atoms: C_22  and  C_24
REMARK   10  A    between atoms: C_22  and  O_27
REMARK   11  A    between atoms: C_24  and  O_25
REMARK   12  A    between atoms: O_27  and  C_28
REMARK                            x       y       z     vdW  Elec       q    Type
REMARK                         _______ _______ _______ _____ _____    ______ ____
ROOT
ATOM      1  C   UNL     1      31.562 -22.965 -15.464  0.00  0.00    -0.019 C 
ATOM      2  C   UNL     1      32.710 -23.112 -14.687  0.00  0.00    -0.001 C 
ATOM      3  C   UNL     1      31.667 -22.868 -16.852  0.00  0.00    -0.001 C 
ATOM      4  C   UNL     1      34.068 -23.069 -16.684  0.00  0.00    +0.139 C 
ATOM      5  C   UNL     1      33.964 -23.164 -15.297  0.00  0.00    +0.037 C 
ATOM      6  C   UNL     1      32.920 -22.920 -17.462  0.00  0.00    +0.037 C 
ENDROOT
BRANCH   4   7
ATOM      7  O   UNL     1      35.299 -23.119 -17.283  0.00  0.00    -0.475 OA
BRANCH   7   8
ATOM      8  C   UNL     1      35.710 -21.963 -18.003  0.00  0.00    +0.210 C 
BRANCH   8   9
ATOM      9  C   UNL     1      35.291 -22.096 -19.470  0.00  0.00    +0.074 C 
BRANCH   9  10
ATOM     10  C   UNL     1      35.076 -20.779 -20.136  0.00  0.00    -0.018 C 
ATOM     11  C   UNL     1      33.782 -20.337 -20.409  0.00  0.00    -0.001 C 
ATOM     12  C   UNL     1      36.172 -19.988 -20.486  0.00  0.00    -0.001 C 
ATOM     13  C   UNL     1      34.677 -18.315 -21.381  0.00  0.00    +0.171 C 
ATOM     14  C   UNL     1      33.582 -19.105 -21.031  0.00  0.00    +0.039 C 
ATOM     15  C   UNL     1      35.971 -18.756 -21.108  0.00  0.00    +0.039 C 
BRANCH  13  16
ATOM     16  O   UNL     1      34.481 -17.112 -21.988  0.00  0.00    -0.360 OA
BRANCH  16  17
ATOM     17  S   UNL     1      33.997 -15.771 -21.181  0.00  0.00    +0.032 S 
ATOM     18  O   UNL     1      32.559 -15.800 -21.009  0.00  0.00    -0.062 OA
ATOM     19  O   UNL     1      34.903 -15.512 -20.080  0.00  0.00    -0.062 OA
ATOM     20  C   UNL     1      34.364 -14.606 -22.468  0.00  0.00    +0.194 C 
ENDBRANCH  16  17
ENDBRANCH  13  16
ENDBRANCH   9  10
ENDBRANCH   8   9
ENDBRANCH   7   8
ENDBRANCH   4   7
BRANCH   1  21
ATOM     21  C   UNL     1      30.223 -22.909 -14.811  0.00  0.00    +0.067 C 
BRANCH  21  22
ATOM     22  C   UNL     1      29.233 -23.925 -15.403  0.00  0.00    +0.217 C 
BRANCH  22  24
ATOM     23  O   UNL     1      30.484 -25.905 -14.745  0.00  0.00    -0.248 OA
ATOM     24  C   UNL     1      29.422 -25.299 -14.792  0.00  0.00    +0.342 C 
BRANCH  24  25
ATOM     25  O   UNL     1      28.267 -25.792 -14.273  0.00  0.00    -0.479 OA
ATOM     26  H   UNL     1      27.732 -26.367 -14.783  0.00  0.00    +0.295 HD
ENDBRANCH  24  25
ENDBRANCH  22  24
BRANCH  22  27
ATOM     27  O   UNL     1      27.910 -23.500 -15.098  0.00  0.00    -0.345 OA
BRANCH  27  28
ATOM     28  C   UNL     1      27.484 -22.460 -15.967  0.00  0.00    +0.143 C 
ATOM     29  C   UNL     1      27.748 -22.876 -17.399  0.00  0.00    +0.035 C 
ENDBRANCH  27  28
ENDBRANCH  22  27
ENDBRANCH  21  22
ENDBRANCH   1  21
TORSDOF 12
ENDMDL
MODEL 5
REMARK VINA RESULT:      -9.8      3.296      5.756
REMARK  Name = 208901
REMARK  12 active torsions:
REMARK  status: ('A' for Active; 'I' for Inactive)
REMARK    1  A    between atoms: C_1  and  C_21
REMARK    2  A    between atoms: C_4  and  O_7
REMARK    3  A    between atoms: O_7  and  C_8
REMARK    4  A    between atoms: C_8  and  C_9
REMARK    5  A    between atoms: C_9  and  C_10
REMARK    6  A    between atoms: C_13  and  O_16
REMARK    7  A    between atoms: O_16  and  S_17
REMARK    8  A    between atoms: C_21  and  C_22
REMARK    9  A    between atoms: C_22  and  C_24
REMARK   10  A    between atoms: C_22  and  O_27
REMARK   11  A    between atoms: C_24  and  O_25
REMARK   12  A    between atoms: O_27  and  C_28
REMARK                            x       y       z     vdW  Elec       q    Type
REMARK                         _______ _______ _______ _____ _____    ______ ____
ROOT
ATOM      1  C   UNL     1      33.380 -14.546 -23.226  0.00  0.00    -0.019 C 
ATOM      2  C   UNL     1      34.397 -15.372 -23.701  0.00  0.00    -0.001 C 
ATOM      3  C   UNL     1      32.997 -14.609 -21.886  0.00  0.00    -0.001 C 
ATOM      4  C   UNL     1      34.652 -16.325 -21.496  0.00  0.00    +0.139 C 
ATOM      5  C   UNL     1      35.034 -16.262 -22.836  0.00  0.00    +0.037 C 
ATOM      6  C   UNL     1      33.634 -15.499 -21.021  0.00  0.00    +0.037 C 
ENDROOT
BRANCH   4   7
ATOM      7  O   UNL     1      35.277 -17.200 -20.646  0.00  0.00    -0.475 OA
BRANCH   7   8
ATOM      8  C   UNL     1      35.726 -18.428 -21.205  0.00  0.00    +0.210 C 
BRANCH   8   9
ATOM      9  C   UNL     1      34.548 -19.398 -21.326  0.00  0.00    +0.074 C 
BRANCH   9  10
ATOM     10  C   UNL     1      34.566 -20.469 -20.288  0.00  0.00    -0.018 C 
ATOM     11  C   UNL     1      33.370 -21.041 -19.853  0.00  0.00    -0.001 C 
ATOM     12  C   UNL     1      35.780 -20.899 -19.751  0.00  0.00    -0.001 C 
ATOM     13  C   UNL     1      34.602 -22.472 -18.347  0.00  0.00    +0.171 C 
ATOM     14  C   UNL     1      33.388 -22.043 -18.883  0.00  0.00    +0.039 C 
ATOM     15  C   UNL     1      35.798 -21.900 -18.781  0.00  0.00    +0.039 C 
BRANCH  13  16
ATOM     16  O   UNL     1      34.619 -23.450 -17.400  0.00  0.00    -0.360 OA
BRANCH  16  17
ATOM     17  S   UNL     1      34.766 -23.142 -15.797  0.00  0.00    +0.032 S 
ATOM     18  O   UNL     1      35.853 -22.211 -15.579  0.00  0.00    -0.062 OA
ATOM     19  O   UNL     1      33.452 -22.947 -15.218  0.00  0.00    -0.062 OA
ATOM     20  C   UNL     1      35.330 -24.756 -15.323  0.00  0.00    +0.194 C 
ENDBRANCH  16  17
ENDBRANCH  13  16
ENDBRANCH   9  10
ENDBRANCH   8   9
ENDBRANCH   7   8
ENDBRANCH   4   7
BRANCH   1  21
ATOM     21  C   UNL     1      32.699 -13.595 -24.152  0.00  0.00    +0.067 C 
BRANCH  21  22
ATOM     22  C   UNL     1      33.621 -13.107 -25.282  0.00  0.00    +0.217 C 
BRANCH  22  24
ATOM     23  O   UNL     1      33.810 -13.516 -27.672  0.00  0.00    -0.248 OA
ATOM     24  C   UNL     1      33.236 -13.723 -26.612  0.00  0.00    +0.342 C 
BRANCH  24  25
ATOM     25  O   UNL     1      32.175 -14.565 -26.499  0.00  0.00    -0.479 OA
ATOM     26  H   UNL     1      31.382 -14.267 -26.099  0.00  0.00    +0.295 HD
ENDBRANCH  24  25
ENDBRANCH  22  24
BRANCH  22  27
ATOM     27  O   UNL     1      33.477 -11.698 -25.406  0.00  0.00    -0.345 OA
BRANCH  27  28
ATOM     28  C   UNL     1      34.576 -11.009 -24.827  0.00  0.00    +0.143 C 
ATOM     29  C   UNL     1      35.456 -10.464 -25.933  0.00  0.00    +0.035 C 
ENDBRANCH  27  28
ENDBRANCH  22  27
ENDBRANCH  21  22
ENDBRANCH   1  21
TORSDOF 12
ENDMDL
MODEL 6
REMARK VINA RESULT:      -9.5      3.116      5.807
REMARK  Name = 208901
REMARK  12 active torsions:
REMARK  status: ('A' for Active; 'I' for Inactive)
REMARK    1  A    between atoms: C_1  and  C_21
REMARK    2  A    between atoms: C_4  and  O_7
REMARK    3  A    between atoms: O_7  and  C_8
REMARK    4  A    between atoms: C_8  and  C_9
REMARK    5  A    between atoms: C_9  and  C_10
REMARK    6  A    between atoms: C_13  and  O_16
REMARK    7  A    between atoms: O_16  and  S_17
REMARK    8  A    between atoms: C_21  and  C_22
REMARK    9  A    between atoms: C_22  and  C_24
REMARK   10  A    between atoms: C_22  and  O_27
REMARK   11  A    between atoms: C_24  and  O_25
REMARK   12  A    between atoms: O_27  and  C_28
REMARK                            x       y       z     vdW  Elec       q    Type
REMARK                         _______ _______ _______ _____ _____    ______ ____
ROOT
ATOM      1  C   UNL     1      33.800 -14.805 -23.976  0.00  0.00    -0.019 C 
ATOM      2  C   UNL     1      33.939 -15.844 -24.896  0.00  0.00    -0.001 C 
ATOM      3  C   UNL     1      34.306 -14.944 -22.684  0.00  0.00    -0.001 C 
ATOM      4  C   UNL     1      35.094 -17.161 -23.232  0.00  0.00    +0.139 C 
ATOM      5  C   UNL     1      34.586 -17.022 -24.524  0.00  0.00    +0.037 C 
ATOM      6  C   UNL     1      34.953 -16.123 -22.312  0.00  0.00    +0.037 C 
ENDROOT
BRANCH   4   7
ATOM      7  O   UNL     1      35.729 -18.319 -22.866  0.00  0.00    -0.475 OA
BRANCH   7   8
ATOM      8  C   UNL     1      35.602 -18.718 -21.507  0.00  0.00    +0.210 C 
BRANCH   8   9
ATOM      9  C   UNL     1      34.275 -19.457 -21.312  0.00  0.00    +0.074 C 
BRANCH   9  10
ATOM     10  C   UNL     1      34.351 -20.528 -20.276  0.00  0.00    -0.018 C 
ATOM     11  C   UNL     1      35.592 -20.978 -19.826  0.00  0.00    -0.001 C 
ATOM     12  C   UNL     1      33.179 -21.080 -19.757  0.00  0.00    -0.001 C 
ATOM     13  C   UNL     1      34.491 -22.530 -18.339  0.00  0.00    +0.171 C 
ATOM     14  C   UNL     1      35.663 -21.978 -18.857  0.00  0.00    +0.039 C 
ATOM     15  C   UNL     1      33.250 -22.081 -18.788  0.00  0.00    +0.039 C 
BRANCH  13  16
ATOM     16  O   UNL     1      34.560 -23.506 -17.393  0.00  0.00    -0.360 OA
BRANCH  16  17
ATOM     17  S   UNL     1      34.572 -23.195 -15.784  0.00  0.00    +0.032 S 
ATOM     18  O   UNL     1      35.591 -22.210 -15.487  0.00  0.00    -0.062 OA
ATOM     19  O   UNL     1      33.210 -23.068 -15.304  0.00  0.00    -0.062 OA
ATOM     20  C   UNL     1      35.181 -24.778 -15.266  0.00  0.00    +0.194 C 
ENDBRANCH  16  17
ENDBRANCH  13  16
ENDBRANCH   9  10
ENDBRANCH   8   9
ENDBRANCH   7   8
ENDBRANCH   4   7
BRANCH   1  21
ATOM     21  C   UNL     1      33.107 -13.546 -24.374  0.00  0.00    +0.067 C 
BRANCH  21  22
ATOM     22  C   UNL     1      33.134 -12.480 -23.266  0.00  0.00    +0.217 C 
BRANCH  22  24
ATOM     23  O   UNL     1      32.928 -10.074 -23.562  0.00  0.00    -0.248 OA
ATOM     24  C   UNL     1      33.510 -11.120 -23.818  0.00  0.00    +0.342 C 
BRANCH  24  25
ATOM     25  O   UNL     1      34.598 -11.179 -24.630  0.00  0.00    -0.479 OA
ATOM     26  H   UNL     1      34.617 -11.786 -25.344  0.00  0.00    +0.295 HD
ENDBRANCH  24  25
ENDBRANCH  22  24
BRANCH  22  27
ATOM     27  O   UNL     1      31.829 -12.371 -22.712  0.00  0.00    -0.345 OA
BRANCH  27  28
ATOM     28  C   UNL     1      31.827 -12.658 -21.321  0.00  0.00    +0.143 C 
ATOM     29  C   UNL     1      31.511 -11.390 -20.556  0.00  0.00    +0.035 C 
ENDBRANCH  27  28
ENDBRANCH  22  27
ENDBRANCH  21  22
ENDBRANCH   1  21
TORSDOF 12
ENDMDL
MODEL 7
REMARK VINA RESULT:      -9.3      5.807     12.050
REMARK  Name = 208901
REMARK  12 active torsions:
REMARK  status: ('A' for Active; 'I' for Inactive)
REMARK    1  A    between atoms: C_1  and  C_21
REMARK    2  A    between atoms: C_4  and  O_7
REMARK    3  A    between atoms: O_7  and  C_8
REMARK    4  A    between atoms: C_8  and  C_9
REMARK    5  A    between atoms: C_9  and  C_10
REMARK    6  A    between atoms: C_13  and  O_16
REMARK    7  A    between atoms: O_16  and  S_17
REMARK    8  A    between atoms: C_21  and  C_22
REMARK    9  A    between atoms: C_22  and  C_24
REMARK   10  A    between atoms: C_22  and  O_27
REMARK   11  A    between atoms: C_24  and  O_25
REMARK   12  A    between atoms: O_27  and  C_28
REMARK                            x       y       z     vdW  Elec       q    Type
REMARK                         _______ _______ _______ _____ _____    ______ ____
ROOT
ATOM      1  C   UNL     1      34.960 -18.842 -22.065  0.00  0.00    -0.019 C 
ATOM      2  C   UNL     1      34.915 -18.460 -23.405  0.00  0.00    -0.001 C 
ATOM      3  C   UNL     1      34.973 -17.873 -21.063  0.00  0.00    -0.001 C 
ATOM      4  C   UNL     1      34.896 -16.138 -22.742  0.00  0.00    +0.139 C 
ATOM      5  C   UNL     1      34.883 -17.107 -23.744  0.00  0.00    +0.037 C 
ATOM      6  C   UNL     1      34.942 -16.520 -21.401  0.00  0.00    +0.037 C 
ENDROOT
BRANCH   4   7
ATOM      7  O   UNL     1      34.866 -14.809 -23.074  0.00  0.00    -0.475 OA
BRANCH   7   8
ATOM      8  C   UNL     1      33.678 -14.328 -23.691  0.00  0.00    +0.210 C 
BRANCH   8   9
ATOM      9  C   UNL     1      32.619 -14.055 -22.620  0.00  0.00    +0.074 C 
BRANCH   9  10
ATOM     10  C   UNL     1      32.340 -12.601 -22.434  0.00  0.00    -0.018 C 
ATOM     11  C   UNL     1      31.517 -12.175 -21.392  0.00  0.00    -0.001 C 
ATOM     12  C   UNL     1      32.905 -11.666 -23.303  0.00  0.00    -0.001 C 
ATOM     13  C   UNL     1      31.822  -9.882 -22.087  0.00  0.00    +0.171 C 
ATOM     14  C   UNL     1      31.257 -10.816 -21.218  0.00  0.00    +0.039 C 
ATOM     15  C   UNL     1      32.646 -10.307 -23.129  0.00  0.00    +0.039 C 
BRANCH  13  16
ATOM     16  O   UNL     1      31.569  -8.556 -21.916  0.00  0.00    -0.360 OA
BRANCH  16  17
ATOM     17  S   UNL     1      32.671  -7.505 -21.311  0.00  0.00    +0.032 S 
ATOM     18  O   UNL     1      32.818  -7.722 -19.886  0.00  0.00    -0.062 OA
ATOM     19  O   UNL     1      33.810  -7.427 -22.203  0.00  0.00    -0.062 OA
ATOM     20  C   UNL     1      31.707  -6.033 -21.537  0.00  0.00    +0.194 C 
ENDBRANCH  16  17
ENDBRANCH  13  16
ENDBRANCH   9  10
ENDBRANCH   8   9
ENDBRANCH   7   8
ENDBRANCH   4   7
BRANCH   1  21
ATOM     21  C   UNL     1      34.994 -20.289 -21.704  0.00  0.00    +0.067 C 
BRANCH  21  22
ATOM     22  C   UNL     1      34.759 -20.530 -20.204  0.00  0.00    +0.217 C 
BRANCH  22  24
ATOM     23  O   UNL     1      32.360 -20.131 -20.127  0.00  0.00    -0.248 OA
ATOM     24  C   UNL     1      33.310 -20.874 -19.921  0.00  0.00    +0.342 C 
BRANCH  24  25
ATOM     25  O   UNL     1      33.170 -22.131 -19.422  0.00  0.00    -0.479 OA
ATOM     26  H   UNL     1      33.830 -22.775 -19.585  0.00  0.00    +0.295 HD
ENDBRANCH  24  25
ENDBRANCH  22  24
BRANCH  22  27
ATOM     27  O   UNL     1      35.549 -21.639 -19.794  0.00  0.00    -0.345 OA
BRANCH  27  28
ATOM     28  C   UNL     1      36.603 -21.237 -18.932  0.00  0.00    +0.143 C 
ATOM     29  C   UNL     1      36.432 -21.920 -17.591  0.00  0.00    +0.035 C 
ENDBRANCH  27  28
ENDBRANCH  22  27
ENDBRANCH  21  22
ENDBRANCH   1  21
TORSDOF 12
ENDMDL
MODEL 8
REMARK VINA RESULT:      -9.3      1.673      2.334
REMARK  Name = 208901
REMARK  12 active torsions:
REMARK  status: ('A' for Active; 'I' for Inactive)
REMARK    1  A    between atoms: C_1  and  C_21
REMARK    2  A    between atoms: C_4  and  O_7
REMARK    3  A    between atoms: O_7  and  C_8
REMARK    4  A    between atoms: C_8  and  C_9
REMARK    5  A    between atoms: C_9  and  C_10
REMARK    6  A    between atoms: C_13  and  O_16
REMARK    7  A    between atoms: O_16  and  S_17
REMARK    8  A    between atoms: C_21  and  C_22
REMARK    9  A    between atoms: C_22  and  C_24
REMARK   10  A    between atoms: C_22  and  O_27
REMARK   11  A    between atoms: C_24  and  O_25
REMARK   12  A    between atoms: O_27  and  C_28
REMARK                            x       y       z     vdW  Elec       q    Type
REMARK                         _______ _______ _______ _____ _____    ______ ____
ROOT
ATOM      1  C   UNL     1      34.699 -17.592 -21.327  0.00  0.00    -0.019 C 
ATOM      2  C   UNL     1      33.649 -18.473 -21.070  0.00  0.00    -0.001 C 
ATOM      3  C   UNL     1      36.019 -18.037 -21.249  0.00  0.00    -0.001 C 
ATOM      4  C   UNL     1      35.238 -20.245 -20.658  0.00  0.00    +0.139 C 
ATOM      5  C   UNL     1      33.919 -19.800 -20.735  0.00  0.00    +0.037 C 
ATOM      6  C   UNL     1      36.288 -19.364 -20.914  0.00  0.00    +0.037 C 
ENDROOT
BRANCH   4   7
ATOM      7  O   UNL     1      35.503 -21.549 -20.328  0.00  0.00    -0.475 OA
BRANCH   7   8
ATOM      8  C   UNL     1      35.223 -21.942 -18.990  0.00  0.00    +0.210 C 
BRANCH   8   9
ATOM      9  C   UNL     1      36.426 -21.619 -18.099  0.00  0.00    +0.074 C 
BRANCH   9  10
ATOM     10  C   UNL     1      36.427 -22.388 -16.821  0.00  0.00    -0.018 C 
ATOM     11  C   UNL     1      35.243 -22.946 -16.340  0.00  0.00    -0.001 C 
ATOM     12  C   UNL     1      37.614 -22.550 -16.106  0.00  0.00    -0.001 C 
ATOM     13  C   UNL     1      36.432 -23.827 -14.431  0.00  0.00    +0.171 C 
ATOM     14  C   UNL     1      35.244 -23.666 -15.145  0.00  0.00    +0.039 C 
ATOM     15  C   UNL     1      37.616 -23.269 -14.911  0.00  0.00    +0.039 C 
BRANCH  13  16
ATOM     16  O   UNL     1      36.433 -24.529 -13.265  0.00  0.00    -0.360 OA
BRANCH  16  17
ATOM     17  S   UNL     1      37.442 -25.788 -12.979  0.00  0.00    +0.032 S 
ATOM     18  O   UNL     1      38.816 -25.347 -13.105  0.00  0.00    -0.062 OA
ATOM     19  O   UNL     1      36.972 -26.537 -11.831  0.00  0.00    -0.062 OA
ATOM     20  C   UNL     1      37.037 -26.719 -14.434  0.00  0.00    +0.194 C 
ENDBRANCH  16  17
ENDBRANCH  13  16
ENDBRANCH   9  10
ENDBRANCH   8   9
ENDBRANCH   7   8
ENDBRANCH   4   7
BRANCH   1  21
ATOM     21  C   UNL     1      34.410 -16.173 -21.685  0.00  0.00    +0.067 C 
BRANCH  21  22
ATOM     22  C   UNL     1      34.009 -16.005 -23.159  0.00  0.00    +0.217 C 
BRANCH  22  24
ATOM     23  O   UNL     1      32.473 -14.283 -23.929  0.00  0.00    -0.248 OA
ATOM     24  C   UNL     1      33.556 -14.588 -23.449  0.00  0.00    +0.342 C 
BRANCH  24  25
ATOM     25  O   UNL     1      34.492 -13.668 -23.094  0.00  0.00    -0.479 OA
ATOM     26  H   UNL     1      35.349 -13.704 -23.470  0.00  0.00    +0.295 HD
ENDBRANCH  24  25
ENDBRANCH  22  24
BRANCH  22  27
ATOM     27  O   UNL     1      35.149 -16.264 -23.971  0.00  0.00    -0.345 OA
BRANCH  27  28
ATOM     28  C   UNL     1      34.788 -16.908 -25.184  0.00  0.00    +0.143 C 
ATOM     29  C   UNL     1      34.410 -18.344 -24.886  0.00  0.00    +0.035 C 
ENDBRANCH  27  28
ENDBRANCH  22  27
ENDBRANCH  21  22
ENDBRANCH   1  21
TORSDOF 12
ENDMDL
MODEL 9
REMARK VINA RESULT:      -9.2      2.253      3.525
REMARK  Name = 208901
REMARK  12 active torsions:
REMARK  status: ('A' for Active; 'I' for Inactive)
REMARK    1  A    between atoms: C_1  and  C_21
REMARK    2  A    between atoms: C_4  and  O_7
REMARK    3  A    between atoms: O_7  and  C_8
REMARK    4  A    between atoms: C_8  and  C_9
REMARK    5  A    between atoms: C_9  and  C_10
REMARK    6  A    between atoms: C_13  and  O_16
REMARK    7  A    between atoms: O_16  and  S_17
REMARK    8  A    between atoms: C_21  and  C_22
REMARK    9  A    between atoms: C_22  and  C_24
REMARK   10  A    between atoms: C_22  and  O_27
REMARK   11  A    between atoms: C_24  and  O_25
REMARK   12  A    between atoms: O_27  and  C_28
REMARK                            x       y       z     vdW  Elec       q    Type
REMARK                         _______ _______ _______ _____ _____    ______ ____
ROOT
ATOM      1  C   UNL     1      34.609 -16.201 -23.010  0.00  0.00    -0.019 C 
ATOM      2  C   UNL     1      34.765 -16.500 -21.657  0.00  0.00    -0.001 C 
ATOM      3  C   UNL     1      34.618 -17.225 -23.957  0.00  0.00    -0.001 C 
ATOM      4  C   UNL     1      34.938 -18.848 -22.197  0.00  0.00    +0.139 C 
ATOM      5  C   UNL     1      34.930 -17.824 -21.250  0.00  0.00    +0.037 C 
ATOM      6  C   UNL     1      34.782 -18.549 -23.550  0.00  0.00    +0.037 C 
ENDROOT
BRANCH   4   7
ATOM      7  O   UNL     1      35.100 -20.149 -21.798  0.00  0.00    -0.475 OA
BRANCH   7   8
ATOM      8  C   UNL     1      35.554 -20.360 -20.467  0.00  0.00    +0.210 C 
BRANCH   8   9
ATOM      9  C   UNL     1      34.750 -21.496 -19.826  0.00  0.00    +0.074 C 
BRANCH   9  10
ATOM     10  C   UNL     1      35.296 -21.923 -18.505  0.00  0.00    -0.018 C 
ATOM     11  C   UNL     1      34.502 -22.658 -17.625  0.00  0.00    -0.001 C 
ATOM     12  C   UNL     1      36.603 -21.587 -18.150  0.00  0.00    -0.001 C 
ATOM     13  C   UNL     1      36.320 -22.721 -16.036  0.00  0.00    +0.171 C 
ATOM     14  C   UNL     1      35.013 -23.057 -16.391  0.00  0.00    +0.039 C 
ATOM     15  C   UNL     1      37.115 -21.986 -16.915  0.00  0.00    +0.039 C 
BRANCH  13  16
ATOM     16  O   UNL     1      36.819 -23.112 -14.832  0.00  0.00    -0.360 OA
BRANCH  16  17
ATOM     17  S   UNL     1      37.783 -24.424 -14.645  0.00  0.00    +0.032 S 
ATOM     18  O   UNL     1      37.058 -25.618 -15.026  0.00  0.00    -0.062 OA
ATOM     19  O   UNL     1      39.108 -24.129 -15.152  0.00  0.00    -0.062 OA
ATOM     20  C   UNL     1      37.861 -24.379 -12.873  0.00  0.00    +0.194 C 
ENDBRANCH  16  17
ENDBRANCH  13  16
ENDBRANCH   9  10
ENDBRANCH   8   9
ENDBRANCH   7   8
ENDBRANCH   4   7
BRANCH   1  21
ATOM     21  C   UNL     1      34.434 -14.785 -23.444  0.00  0.00    +0.067 C 
BRANCH  21  22
ATOM     22  C   UNL     1      32.957 -14.403 -23.634  0.00  0.00    +0.217 C 
BRANCH  22  24
ATOM     23  O   UNL     1      32.299 -12.316 -22.570  0.00  0.00    -0.248 OA
ATOM     24  C   UNL     1      32.463 -13.527 -22.500  0.00  0.00    +0.342 C 
BRANCH  24  25
ATOM     25  O   UNL     1      32.198 -14.244 -21.377  0.00  0.00    -0.479 OA
ATOM     26  H   UNL     1      32.740 -14.146 -20.619  0.00  0.00    +0.295 HD
ENDBRANCH  24  25
ENDBRANCH  22  24
BRANCH  22  27
ATOM     27  O   UNL     1      32.834 -13.654 -24.837  0.00  0.00    -0.345 OA
BRANCH  27  28
ATOM     28  C   UNL     1      33.116 -14.451 -25.978  0.00  0.00    +0.143 C 
ATOM     29  C   UNL     1      33.272 -13.548 -27.184  0.00  0.00    +0.035 C 
ENDBRANCH  27  28
ENDBRANCH  22  27
ENDBRANCH  21  22
ENDBRANCH   1  21
TORSDOF 12
ENDMDL
