MODEL 1
REMARK VINA RESULT:      -8.0      0.000      0.000
REMARK  Name = 29327
REMARK  7 active torsions:
REMARK  status: ('A' for Active; 'I' for Inactive)
REMARK    1  A    between atoms: C_2  and  O_15
REMARK    2  A    between atoms: C_3  and  N_8
REMARK    3  A    between atoms: C_4  and  O_17
REMARK    4  A    between atoms: C_5  and  C_21
REMARK    5  A    between atoms: C_6  and  O_19
REMARK    6  A    between atoms: N_9  and  N_14
REMARK    7  A    between atoms: C_21  and  O_22
REMARK                            x       y       z     vdW  Elec       q    Type
REMARK                         _______ _______ _______ _____ _____    ______ ____
ROOT
ATOM      1  O   UNL     1      38.427 -23.698 -14.724  0.00  0.00    -0.327 OA
ATOM      2  C   UNL     1      36.517 -25.855 -14.698  0.00  0.00    +0.163 C 
ATOM      3  C   UNL     1      36.117 -24.399 -14.949  0.00  0.00    +0.159 C 
ATOM      4  C   UNL     1      37.989 -26.076 -15.063  0.00  0.00    +0.169 C 
ATOM      5  C   UNL     1      38.888 -25.018 -14.414  0.00  0.00    +0.176 C 
ATOM      6  C   UNL     1      37.098 -23.438 -14.270  0.00  0.00    +0.253 C 
ENDROOT
BRANCH   3   8
ATOM      7  O   UNL     1      34.028 -23.463 -16.591  0.00  0.00    -0.251 OA
ATOM      8  N   UNL     1      34.760 -24.147 -14.522  0.00  0.00    -0.282 N 
ATOM      9  N   UNL     1      32.510 -23.487 -14.840  0.00  0.00    -0.162 N 
ATOM     10  C   UNL     1      33.783 -23.683 -15.401  0.00  0.00    +0.320 C 
ATOM     11  C   UNL     1      31.393 -23.007 -15.643  0.00  0.00    +0.140 C 
ATOM     12  H   UNL     1      34.517 -24.308 -13.582  0.00  0.00    +0.151 HD
BRANCH   9  14
ATOM     13  O   UNL     1      32.077 -24.972 -13.157  0.00  0.00    -0.078 OA
ATOM     14  N   UNL     1      32.276 -23.776 -13.397  0.00  0.00    +0.054 NA
ENDBRANCH   9  14
ENDBRANCH   3   8
BRANCH   2  15
ATOM     15  O   UNL     1      35.709 -26.700 -15.519  0.00  0.00    -0.380 OA
ATOM     16  H   UNL     1      34.818 -26.762 -15.142  0.00  0.00    +0.211 HD
ENDBRANCH   2  15
BRANCH   4  17
ATOM     17  O   UNL     1      38.361 -27.380 -14.624  0.00  0.00    -0.379 OA
ATOM     18  H   UNL     1      38.750 -27.324 -13.738  0.00  0.00    +0.211 HD
ENDBRANCH   4  17
BRANCH   6  19
ATOM     19  O   UNL     1      36.989 -23.536 -12.850  0.00  0.00    -0.359 OA
ATOM     20  H   UNL     1      37.783 -23.158 -12.439  0.00  0.00    +0.213 HD
ENDBRANCH   6  19
BRANCH   5  21
ATOM     21  C   UNL     1      40.331 -25.114 -14.904  0.00  0.00    +0.169 C 
BRANCH  21  22
ATOM     22  O   UNL     1      40.358 -25.931 -16.060  0.00  0.00    -0.379 OA
ATOM     23  H   UNL     1      41.226 -26.360 -16.133  0.00  0.00    +0.211 HD
ENDBRANCH  21  22
ENDBRANCH   5  21
TORSDOF 7
ENDMDL
MODEL 2
REMARK VINA RESULT:      -7.6      3.733      5.790
REMARK  Name = 29327
REMARK  7 active torsions:
REMARK  status: ('A' for Active; 'I' for Inactive)
REMARK    1  A    between atoms: C_2  and  O_15
REMARK    2  A    between atoms: C_3  and  N_8
REMARK    3  A    between atoms: C_4  and  O_17
REMARK    4  A    between atoms: C_5  and  C_21
REMARK    5  A    between atoms: C_6  and  O_19
REMARK    6  A    between atoms: N_9  and  N_14
REMARK    7  A    between atoms: C_21  and  O_22
REMARK                            x       y       z     vdW  Elec       q    Type
REMARK                         _______ _______ _______ _____ _____    ______ ____
ROOT
ATOM      1  O   UNL     1      32.249 -23.722 -13.445  0.00  0.00    -0.327 OA
ATOM      2  C   UNL     1      32.295 -23.492 -16.317  0.00  0.00    +0.163 C 
ATOM      3  C   UNL     1      31.102 -23.040 -15.470  0.00  0.00    +0.159 C 
ATOM      4  C   UNL     1      33.578 -23.488 -15.480  0.00  0.00    +0.169 C 
ATOM      5  C   UNL     1      33.382 -24.235 -14.155  0.00  0.00    +0.176 C 
ATOM      6  C   UNL     1      31.022 -23.842 -14.167  0.00  0.00    +0.253 C 
ENDROOT
BRANCH   3   8
ATOM      7  O   UNL     1      28.720 -21.666 -14.861  0.00  0.00    -0.251 OA
ATOM      8  N   UNL     1      29.867 -23.127 -16.214  0.00  0.00    -0.282 N 
ATOM      9  N   UNL     1      27.606 -22.599 -16.666  0.00  0.00    -0.162 N 
ATOM     10  C   UNL     1      28.730 -22.412 -15.844  0.00  0.00    +0.320 C 
ATOM     11  C   UNL     1      26.349 -21.912 -16.400  0.00  0.00    +0.140 C 
ATOM     12  H   UNL     1      29.827 -23.710 -17.006  0.00  0.00    +0.151 HD
BRANCH   9  14
ATOM     13  O   UNL     1      27.748 -24.705 -17.541  0.00  0.00    -0.078 OA
ATOM     14  N   UNL     1      27.683 -23.510 -17.844  0.00  0.00    +0.054 NA
ENDBRANCH   9  14
ENDBRANCH   3   8
BRANCH   2  15
ATOM     15  O   UNL     1      32.455 -22.582 -17.406  0.00  0.00    -0.380 OA
ATOM     16  H   UNL     1      32.458 -21.672 -17.070  0.00  0.00    +0.211 HD
ENDBRANCH   2  15
BRANCH   4  17
ATOM     17  O   UNL     1      34.607 -24.105 -16.249  0.00  0.00    -0.379 OA
ATOM     18  H   UNL     1      34.914 -24.905 -15.796  0.00  0.00    +0.211 HD
ENDBRANCH   4  17
BRANCH   6  19
ATOM     19  O   UNL     1      30.694 -25.203 -14.440  0.00  0.00    -0.359 OA
ATOM     20  H   UNL     1      31.481 -25.666 -14.770  0.00  0.00    +0.213 HD
ENDBRANCH   6  19
BRANCH   5  21
ATOM     21  C   UNL     1      34.590 -24.092 -13.233  0.00  0.00    +0.169 C 
BRANCH  21  22
ATOM     22  O   UNL     1      34.418 -24.963 -12.130  0.00  0.00    -0.379 OA
ATOM     23  H   UNL     1      34.097 -24.458 -11.366  0.00  0.00    +0.211 HD
ENDBRANCH  21  22
ENDBRANCH   5  21
TORSDOF 7
ENDMDL
MODEL 3
REMARK VINA RESULT:      -7.4      8.443     10.599
REMARK  Name = 29327
REMARK  7 active torsions:
REMARK  status: ('A' for Active; 'I' for Inactive)
REMARK    1  A    between atoms: C_2  and  O_15
REMARK    2  A    between atoms: C_3  and  N_8
REMARK    3  A    between atoms: C_4  and  O_17
REMARK    4  A    between atoms: C_5  and  C_21
REMARK    5  A    between atoms: C_6  and  O_19
REMARK    6  A    between atoms: N_9  and  N_14
REMARK    7  A    between atoms: C_21  and  O_22
REMARK                            x       y       z     vdW  Elec       q    Type
REMARK                         _______ _______ _______ _____ _____    ______ ____
ROOT
ATOM      1  O   UNL     1      33.542 -16.134 -21.806  0.00  0.00    -0.327 OA
ATOM      2  C   UNL     1      35.010 -18.259 -23.083  0.00  0.00    +0.163 C 
ATOM      3  C   UNL     1      34.175 -18.475 -21.818  0.00  0.00    +0.159 C 
ATOM      4  C   UNL     1      34.499 -17.042 -23.861  0.00  0.00    +0.169 C 
ATOM      5  C   UNL     1      34.348 -15.820 -22.947  0.00  0.00    +0.176 C 
ATOM      6  C   UNL     1      34.079 -17.184 -21.000  0.00  0.00    +0.253 C 
ENDROOT
BRANCH   3   8
ATOM      7  O   UNL     1      32.639 -20.319 -20.343  0.00  0.00    -0.251 OA
ATOM      8  N   UNL     1      34.700 -19.561 -21.022  0.00  0.00    -0.282 N 
ATOM      9  N   UNL     1      34.524 -21.438 -19.593  0.00  0.00    -0.162 N 
ATOM     10  C   UNL     1      33.868 -20.431 -20.320  0.00  0.00    +0.320 C 
ATOM     11  C   UNL     1      33.781 -22.419 -18.815  0.00  0.00    +0.140 C 
ATOM     12  H   UNL     1      35.674 -19.690 -20.973  0.00  0.00    +0.151 HD
BRANCH   9  14
ATOM     13  O   UNL     1      36.567 -20.652 -18.933  0.00  0.00    -0.078 OA
ATOM     14  N   UNL     1      36.013 -21.524 -19.609  0.00  0.00    +0.054 NA
ENDBRANCH   9  14
ENDBRANCH   3   8
BRANCH   2  15
ATOM     15  O   UNL     1      34.893 -19.416 -23.913  0.00  0.00    -0.380 OA
ATOM     16  H   UNL     1      34.343 -19.207 -24.684  0.00  0.00    +0.211 HD
ENDBRANCH   2  15
BRANCH   4  17
ATOM     17  O   UNL     1      35.427 -16.767 -24.907  0.00  0.00    -0.379 OA
ATOM     18  H   UNL     1      35.218 -17.317 -25.678  0.00  0.00    +0.211 HD
ENDBRANCH   4  17
BRANCH   6  19
ATOM     19  O   UNL     1      35.355 -16.841 -20.459  0.00  0.00    -0.359 OA
ATOM     20  H   UNL     1      35.400 -15.882 -20.320  0.00  0.00    +0.213 HD
ENDBRANCH   6  19
BRANCH   5  21
ATOM     21  C   UNL     1      33.676 -14.651 -23.661  0.00  0.00    +0.169 C 
BRANCH  21  22
ATOM     22  O   UNL     1      34.369 -13.462 -23.326  0.00  0.00    -0.379 OA
ATOM     23  H   UNL     1      35.236 -13.688 -22.954  0.00  0.00    +0.211 HD
ENDBRANCH  21  22
ENDBRANCH   5  21
TORSDOF 7
ENDMDL
MODEL 4
REMARK VINA RESULT:      -7.2      1.942      6.376
REMARK  Name = 29327
REMARK  7 active torsions:
REMARK  status: ('A' for Active; 'I' for Inactive)
REMARK    1  A    between atoms: C_2  and  O_15
REMARK    2  A    between atoms: C_3  and  N_8
REMARK    3  A    between atoms: C_4  and  O_17
REMARK    4  A    between atoms: C_5  and  C_21
REMARK    5  A    between atoms: C_6  and  O_19
REMARK    6  A    between atoms: N_9  and  N_14
REMARK    7  A    between atoms: C_21  and  O_22
REMARK                            x       y       z     vdW  Elec       q    Type
REMARK                         _______ _______ _______ _____ _____    ______ ____
ROOT
ATOM      1  O   UNL     1      31.242 -24.333 -14.558  0.00  0.00    -0.327 OA
ATOM      2  C   UNL     1      33.501 -23.416 -16.093  0.00  0.00    +0.163 C 
ATOM      3  C   UNL     1      33.628 -24.453 -14.974  0.00  0.00    +0.159 C 
ATOM      4  C   UNL     1      32.077 -23.409 -16.658  0.00  0.00    +0.169 C 
ATOM      5  C   UNL     1      31.034 -23.311 -15.538  0.00  0.00    +0.176 C 
ATOM      6  C   UNL     1      32.524 -24.268 -13.929  0.00  0.00    +0.253 C 
ENDROOT
BRANCH   3   8
ATOM      7  O   UNL     1      35.785 -26.155 -15.598  0.00  0.00    -0.251 OA
ATOM      8  N   UNL     1      34.937 -24.410 -14.365  0.00  0.00    -0.282 N 
ATOM      9  N   UNL     1      37.170 -25.125 -14.051  0.00  0.00    -0.162 N 
ATOM     10  C   UNL     1      35.952 -25.291 -14.731  0.00  0.00    +0.320 C 
ATOM     11  C   UNL     1      38.319 -25.975 -14.334  0.00  0.00    +0.140 C 
ATOM     12  H   UNL     1      35.117 -23.739 -13.668  0.00  0.00    +0.151 HD
BRANCH   9  14
ATOM     13  O   UNL     1      37.645 -22.964 -13.479  0.00  0.00    -0.078 OA
ATOM     14  N   UNL     1      37.311 -24.060 -13.017  0.00  0.00    +0.054 NA
ENDBRANCH   9  14
ENDBRANCH   3   8
BRANCH   2  15
ATOM     15  O   UNL     1      34.409 -23.759 -17.141  0.00  0.00    -0.380 OA
ATOM     16  H   UNL     1      34.731 -22.951 -17.569  0.00  0.00    +0.211 HD
ENDBRANCH   2  15
BRANCH   4  17
ATOM     17  O   UNL     1      31.960 -22.299 -17.543  0.00  0.00    -0.379 OA
ATOM     18  H   UNL     1      31.088 -22.313 -17.967  0.00  0.00    +0.211 HD
ENDBRANCH   4  17
BRANCH   6  19
ATOM     19  O   UNL     1      32.709 -23.043 -13.221  0.00  0.00    -0.359 OA
ATOM     20  H   UNL     1      32.101 -22.372 -13.571  0.00  0.00    +0.213 HD
ENDBRANCH   6  19
BRANCH   5  21
ATOM     21  C   UNL     1      29.611 -23.479 -16.065  0.00  0.00    +0.169 C 
BRANCH  21  22
ATOM     22  O   UNL     1      29.326 -22.402 -16.939  0.00  0.00    -0.379 OA
ATOM     23  H   UNL     1      28.761 -21.757 -16.483  0.00  0.00    +0.211 HD
ENDBRANCH  21  22
ENDBRANCH   5  21
TORSDOF 7
ENDMDL
MODEL 5
REMARK VINA RESULT:      -7.1      2.418      6.871
REMARK  Name = 29327
REMARK  7 active torsions:
REMARK  status: ('A' for Active; 'I' for Inactive)
REMARK    1  A    between atoms: C_2  and  O_15
REMARK    2  A    between atoms: C_3  and  N_8
REMARK    3  A    between atoms: C_4  and  O_17
REMARK    4  A    between atoms: C_5  and  C_21
REMARK    5  A    between atoms: C_6  and  O_19
REMARK    6  A    between atoms: N_9  and  N_14
REMARK    7  A    between atoms: C_21  and  O_22
REMARK                            x       y       z     vdW  Elec       q    Type
REMARK                         _______ _______ _______ _____ _____    ______ ____
ROOT
ATOM      1  O   UNL     1      30.946 -22.473 -15.890  0.00  0.00    -0.327 OA
ATOM      2  C   UNL     1      31.599 -24.881 -14.449  0.00  0.00    +0.163 C 
ATOM      3  C   UNL     1      32.619 -23.769 -14.707  0.00  0.00    +0.159 C 
ATOM      4  C   UNL     1      30.174 -24.320 -14.492  0.00  0.00    +0.169 C 
ATOM      5  C   UNL     1      29.942 -23.485 -15.757  0.00  0.00    +0.176 C 
ATOM      6  C   UNL     1      32.273 -22.994 -15.982  0.00  0.00    +0.253 C 
ENDROOT
BRANCH   3   8
ATOM      7  O   UNL     1      34.375 -24.024 -12.518  0.00  0.00    -0.251 OA
ATOM      8  N   UNL     1      33.964 -24.294 -14.763  0.00  0.00    -0.282 N 
ATOM      9  N   UNL     1      36.052 -24.918 -13.843  0.00  0.00    -0.162 N 
ATOM     10  C   UNL     1      34.770 -24.386 -13.630  0.00  0.00    +0.320 C 
ATOM     11  C   UNL     1      37.000 -25.075 -12.748  0.00  0.00    +0.140 C 
ATOM     12  H   UNL     1      34.323 -24.595 -15.629  0.00  0.00    +0.151 HD
BRANCH   9  14
ATOM     13  O   UNL     1      36.005 -26.435 -15.552  0.00  0.00    -0.078 OA
ATOM     14  N   UNL     1      36.469 -25.343 -15.210  0.00  0.00    +0.054 NA
ENDBRANCH   9  14
ENDBRANCH   3   8
BRANCH   2  15
ATOM     15  O   UNL     1      31.837 -25.429 -13.151  0.00  0.00    -0.380 OA
ATOM     16  H   UNL     1      31.409 -26.296 -13.082  0.00  0.00    +0.211 HD
ENDBRANCH   2  15
BRANCH   4  17
ATOM     17  O   UNL     1      29.267 -25.419 -14.451  0.00  0.00    -0.379 OA
ATOM     18  H   UNL     1      29.572 -26.065 -13.796  0.00  0.00    +0.211 HD
ENDBRANCH   4  17
BRANCH   6  19
ATOM     19  O   UNL     1      32.441 -23.825 -17.130  0.00  0.00    -0.359 OA
ATOM     20  H   UNL     1      32.006 -23.413 -17.894  0.00  0.00    +0.213 HD
ENDBRANCH   6  19
BRANCH   5  21
ATOM     21  C   UNL     1      28.591 -22.775 -15.735  0.00  0.00    +0.169 C 
BRANCH  21  22
ATOM     22  O   UNL     1      28.465 -22.014 -16.922  0.00  0.00    -0.379 OA
ATOM     23  H   UNL     1      28.056 -22.558 -17.614  0.00  0.00    +0.211 HD
ENDBRANCH  21  22
ENDBRANCH   5  21
TORSDOF 7
ENDMDL
MODEL 6
REMARK VINA RESULT:      -7.1      2.684      6.906
REMARK  Name = 29327
REMARK  7 active torsions:
REMARK  status: ('A' for Active; 'I' for Inactive)
REMARK    1  A    between atoms: C_2  and  O_15
REMARK    2  A    between atoms: C_3  and  N_8
REMARK    3  A    between atoms: C_4  and  O_17
REMARK    4  A    between atoms: C_5  and  C_21
REMARK    5  A    between atoms: C_6  and  O_19
REMARK    6  A    between atoms: N_9  and  N_14
REMARK    7  A    between atoms: C_21  and  O_22
REMARK                            x       y       z     vdW  Elec       q    Type
REMARK                         _______ _______ _______ _____ _____    ______ ____
ROOT
ATOM      1  O   UNL     1      30.020 -25.423 -14.850  0.00  0.00    -0.327 OA
ATOM      2  C   UNL     1      32.065 -23.433 -15.250  0.00  0.00    +0.163 C 
ATOM      3  C   UNL     1      32.315 -24.733 -14.480  0.00  0.00    +0.159 C 
ATOM      4  C   UNL     1      30.896 -23.605 -16.225  0.00  0.00    +0.169 C 
ATOM      5  C   UNL     1      29.672 -24.210 -15.526  0.00  0.00    +0.176 C 
ATOM      6  C   UNL     1      31.020 -25.249 -13.845  0.00  0.00    +0.253 C 
ENDROOT
BRANCH   3   8
ATOM      7  O   UNL     1      35.077 -25.066 -14.921  0.00  0.00    -0.251 OA
ATOM      8  N   UNL     1      33.352 -24.564 -13.488  0.00  0.00    -0.282 N 
ATOM      9  N   UNL     1      35.590 -24.548 -12.722  0.00  0.00    -0.162 N 
ATOM     10  C   UNL     1      34.700 -24.749 -13.789  0.00  0.00    +0.320 C 
ATOM     11  C   UNL     1      37.028 -24.704 -12.893  0.00  0.00    +0.140 C 
ATOM     12  H   UNL     1      33.099 -24.312 -12.571  0.00  0.00    +0.151 HD
BRANCH   9  14
ATOM     13  O   UNL     1      35.275 -25.010 -10.505  0.00  0.00    -0.078 OA
ATOM     14  N   UNL     1      35.072 -24.160 -11.378  0.00  0.00    +0.054 NA
ENDBRANCH   9  14
ENDBRANCH   3   8
BRANCH   2  15
ATOM     15  O   UNL     1      33.240 -23.110 -15.995  0.00  0.00    -0.380 OA
ATOM     16  H   UNL     1      33.867 -23.848 -15.949  0.00  0.00    +0.211 HD
ENDBRANCH   2  15
BRANCH   4  17
ATOM     17  O   UNL     1      30.578 -22.323 -16.761  0.00  0.00    -0.379 OA
ATOM     18  H   UNL     1      29.670 -22.331 -17.100  0.00  0.00    +0.211 HD
ENDBRANCH   4  17
BRANCH   6  19
ATOM     19  O   UNL     1      30.587 -24.368 -12.809  0.00  0.00    -0.359 OA
ATOM     20  H   UNL     1      30.884 -24.709 -11.950  0.00  0.00    +0.213 HD
ENDBRANCH   6  19
BRANCH   5  21
ATOM     21  C   UNL     1      28.560 -24.551 -16.514  0.00  0.00    +0.169 C 
BRANCH  21  22
ATOM     22  O   UNL     1      27.776 -23.390 -16.725  0.00  0.00    -0.379 OA
ATOM     23  H   UNL     1      27.692 -23.226 -17.678  0.00  0.00    +0.211 HD
ENDBRANCH  21  22
ENDBRANCH   5  21
TORSDOF 7
ENDMDL
MODEL 7
REMARK VINA RESULT:      -7.1      1.380      2.662
REMARK  Name = 29327
REMARK  7 active torsions:
REMARK  status: ('A' for Active; 'I' for Inactive)
REMARK    1  A    between atoms: C_2  and  O_15
REMARK    2  A    between atoms: C_3  and  N_8
REMARK    3  A    between atoms: C_4  and  O_17
REMARK    4  A    between atoms: C_5  and  C_21
REMARK    5  A    between atoms: C_6  and  O_19
REMARK    6  A    between atoms: N_9  and  N_14
REMARK    7  A    between atoms: C_21  and  O_22
REMARK                            x       y       z     vdW  Elec       q    Type
REMARK                         _______ _______ _______ _____ _____    ______ ____
ROOT
ATOM      1  O   UNL     1      37.483 -26.094 -13.913  0.00  0.00    -0.327 OA
ATOM      2  C   UNL     1      36.687 -23.753 -15.392  0.00  0.00    +0.163 C 
ATOM      3  C   UNL     1      35.748 -24.478 -14.425  0.00  0.00    +0.159 C 
ATOM      4  C   UNL     1      38.149 -24.024 -15.024  0.00  0.00    +0.169 C 
ATOM      5  C   UNL     1      38.409 -25.525 -14.845  0.00  0.00    +0.176 C 
ATOM      6  C   UNL     1      36.117 -25.961 -14.314  0.00  0.00    +0.253 C 
ENDROOT
BRANCH   3   8
ATOM      7  O   UNL     1      33.595 -24.031 -12.663  0.00  0.00    -0.251 OA
ATOM      8  N   UNL     1      34.366 -24.312 -14.811  0.00  0.00    -0.282 N 
ATOM      9  N   UNL     1      32.064 -23.950 -14.401  0.00  0.00    -0.162 N 
ATOM     10  C   UNL     1      33.358 -24.094 -13.874  0.00  0.00    +0.320 C 
ATOM     11  C   UNL     1      30.914 -23.715 -13.538  0.00  0.00    +0.140 C 
ATOM     12  H   UNL     1      34.128 -24.354 -15.765  0.00  0.00    +0.151 HD
BRANCH   9  14
ATOM     13  O   UNL     1      32.304 -23.068 -16.497  0.00  0.00    -0.078 OA
ATOM     14  N   UNL     1      31.843 -24.030 -15.874  0.00  0.00    +0.054 NA
ENDBRANCH   9  14
ENDBRANCH   3   8
BRANCH   2  15
ATOM     15  O   UNL     1      36.444 -22.348 -15.299  0.00  0.00    -0.380 OA
ATOM     16  H   UNL     1      37.099 -21.944 -14.709  0.00  0.00    +0.211 HD
ENDBRANCH   2  15
BRANCH   4  17
ATOM     17  O   UNL     1      38.970 -23.500 -16.064  0.00  0.00    -0.379 OA
ATOM     18  H   UNL     1      39.743 -23.062 -15.677  0.00  0.00    +0.211 HD
ENDBRANCH   4  17
BRANCH   6  19
ATOM     19  O   UNL     1      35.854 -26.633 -15.544  0.00  0.00    -0.359 OA
ATOM     20  H   UNL     1      35.937 -27.591 -15.413  0.00  0.00    +0.213 HD
ENDBRANCH   6  19
BRANCH   5  21
ATOM     21  C   UNL     1      39.811 -25.802 -14.308  0.00  0.00    +0.169 C 
BRANCH  21  22
ATOM     22  O   UNL     1      40.677 -26.020 -15.407  0.00  0.00    -0.379 OA
ATOM     23  H   UNL     1      40.200 -25.844 -16.234  0.00  0.00    +0.211 HD
ENDBRANCH  21  22
ENDBRANCH   5  21
TORSDOF 7
ENDMDL
MODEL 8
REMARK VINA RESULT:      -7.0     13.112     15.598
REMARK  Name = 29327
REMARK  7 active torsions:
REMARK  status: ('A' for Active; 'I' for Inactive)
REMARK    1  A    between atoms: C_2  and  O_15
REMARK    2  A    between atoms: C_3  and  N_8
REMARK    3  A    between atoms: C_4  and  O_17
REMARK    4  A    between atoms: C_5  and  C_21
REMARK    5  A    between atoms: C_6  and  O_19
REMARK    6  A    between atoms: N_9  and  N_14
REMARK    7  A    between atoms: C_21  and  O_22
REMARK                            x       y       z     vdW  Elec       q    Type
REMARK                         _______ _______ _______ _____ _____    ______ ____
ROOT
ATOM      1  O   UNL     1      33.891 -10.637 -23.546  0.00  0.00    -0.327 OA
ATOM      2  C   UNL     1      32.269 -12.961 -23.026  0.00  0.00    +0.163 C 
ATOM      3  C   UNL     1      33.731 -13.056 -23.470  0.00  0.00    +0.159 C 
ATOM      4  C   UNL     1      32.003 -11.614 -22.346  0.00  0.00    +0.169 C 
ATOM      5  C   UNL     1      32.515 -10.448 -23.199  0.00  0.00    +0.176 C 
ATOM      6  C   UNL     1      34.131 -11.829 -24.296  0.00  0.00    +0.253 C 
ENDROOT
BRANCH   3   8
ATOM      7  O   UNL     1      34.664 -15.468 -22.353  0.00  0.00    -0.251 OA
ATOM      8  N   UNL     1      33.980 -14.279 -24.197  0.00  0.00    -0.282 N 
ATOM      9  N   UNL     1      34.636 -16.542 -24.406  0.00  0.00    -0.162 N 
ATOM     10  C   UNL     1      34.443 -15.432 -23.567  0.00  0.00    +0.320 C 
ATOM     11  C   UNL     1      35.114 -17.815 -23.882  0.00  0.00    +0.140 C 
ATOM     12  H   UNL     1      33.818 -14.299 -25.168  0.00  0.00    +0.151 HD
BRANCH   9  14
ATOM     13  O   UNL     1      33.168 -16.167 -26.117  0.00  0.00    -0.078 OA
ATOM     14  N   UNL     1      34.346 -16.438 -25.865  0.00  0.00    +0.054 NA
ENDBRANCH   9  14
ENDBRANCH   3   8
BRANCH   2  15
ATOM     15  O   UNL     1      32.007 -14.007 -22.089  0.00  0.00    -0.380 OA
ATOM     16  H   UNL     1      32.197 -14.865 -22.500  0.00  0.00    +0.211 HD
ENDBRANCH   2  15
BRANCH   4  17
ATOM     17  O   UNL     1      30.598 -11.496 -22.137  0.00  0.00    -0.379 OA
ATOM     18  H   UNL     1      30.171 -11.218 -22.962  0.00  0.00    +0.211 HD
ENDBRANCH   4  17
BRANCH   6  19
ATOM     19  O   UNL     1      33.440 -11.822 -25.545  0.00  0.00    -0.359 OA
ATOM     20  H   UNL     1      33.649 -11.006 -26.026  0.00  0.00    +0.213 HD
ENDBRANCH   6  19
BRANCH   5  21
ATOM     21  C   UNL     1      32.418  -9.114 -22.464  0.00  0.00    +0.169 C 
BRANCH  21  22
ATOM     22  O   UNL     1      32.180  -9.375 -21.092  0.00  0.00    -0.379 OA
ATOM     23  H   UNL     1      33.017  -9.317 -20.603  0.00  0.00    +0.211 HD
ENDBRANCH  21  22
ENDBRANCH   5  21
TORSDOF 7
ENDMDL
MODEL 9
REMARK VINA RESULT:      -7.0      3.070      4.466
REMARK  Name = 29327
REMARK  7 active torsions:
REMARK  status: ('A' for Active; 'I' for Inactive)
REMARK    1  A    between atoms: C_2  and  O_15
REMARK    2  A    between atoms: C_3  and  N_8
REMARK    3  A    between atoms: C_4  and  O_17
REMARK    4  A    between atoms: C_5  and  C_21
REMARK    5  A    between atoms: C_6  and  O_19
REMARK    6  A    between atoms: N_9  and  N_14
REMARK    7  A    between atoms: C_21  and  O_22
REMARK                            x       y       z     vdW  Elec       q    Type
REMARK                         _______ _______ _______ _____ _____    ______ ____
ROOT
ATOM      1  O   UNL     1      35.325 -23.471 -13.136  0.00  0.00    -0.327 OA
ATOM      2  C   UNL     1      37.286 -23.932 -15.196  0.00  0.00    +0.163 C 
ATOM      3  C   UNL     1      36.147 -22.922 -15.351  0.00  0.00    +0.159 C 
ATOM      4  C   UNL     1      37.591 -24.172 -13.714  0.00  0.00    +0.169 C 
ATOM      5  C   UNL     1      36.314 -24.485 -12.926  0.00  0.00    +0.176 C 
ATOM      6  C   UNL     1      34.937 -23.329 -14.504  0.00  0.00    +0.253 C 
ENDROOT
BRANCH   3   8
ATOM      7  O   UNL     1      37.229 -21.008 -17.112  0.00  0.00    -0.251 OA
ATOM      8  N   UNL     1      35.780 -22.753 -16.738  0.00  0.00    -0.282 N 
ATOM      9  N   UNL     1      35.907 -21.737 -18.871  0.00  0.00    -0.162 N 
ATOM     10  C   UNL     1      36.365 -21.778 -17.544  0.00  0.00    +0.320 C 
ATOM     11  C   UNL     1      36.433 -20.771 -19.826  0.00  0.00    +0.140 C 
ATOM     12  H   UNL     1      35.096 -23.344 -17.127  0.00  0.00    +0.151 HD
BRANCH   9  14
ATOM     13  O   UNL     1      33.723 -22.407 -18.965  0.00  0.00    -0.078 OA
ATOM     14  N   UNL     1      34.865 -22.699 -19.333  0.00  0.00    +0.054 NA
ENDBRANCH   9  14
ENDBRANCH   3   8
BRANCH   2  15
ATOM     15  O   UNL     1      38.455 -23.404 -15.825  0.00  0.00    -0.380 OA
ATOM     16  H   UNL     1      38.303 -23.328 -16.780  0.00  0.00    +0.211 HD
ENDBRANCH   2  15
BRANCH   4  17
ATOM     17  O   UNL     1      38.508 -25.259 -13.623  0.00  0.00    -0.379 OA
ATOM     18  H   UNL     1      39.279 -25.081 -14.183  0.00  0.00    +0.211 HD
ENDBRANCH   4  17
BRANCH   6  19
ATOM     19  O   UNL     1      34.348 -24.523 -15.018  0.00  0.00    -0.359 OA
ATOM     20  H   UNL     1      35.008 -25.235 -15.019  0.00  0.00    +0.213 HD
ENDBRANCH   6  19
BRANCH   5  21
ATOM     21  C   UNL     1      36.571 -24.553 -11.423  0.00  0.00    +0.169 C 
BRANCH  21  22
ATOM     22  O   UNL     1      35.405 -25.049 -10.790  0.00  0.00    -0.379 OA
ATOM     23  H   UNL     1      34.663 -25.024 -11.415  0.00  0.00    +0.211 HD
ENDBRANCH  21  22
ENDBRANCH   5  21
TORSDOF 7
ENDMDL
