MODEL 1
REMARK VINA RESULT:     -10.9      0.000      0.000
REMARK  Name = 22489160
REMARK  9 active torsions:
REMARK  status: ('A' for Active; 'I' for Inactive)
REMARK    1  A    between atoms: C_1  and  C_22
REMARK    2  A    between atoms: C_2  and  C_8
REMARK    3  A    between atoms: C_7  and  C_13
REMARK    4  A    between atoms: C_13  and  C_15
REMARK    5  A    between atoms: C_15  and  N_16
REMARK    6  A    between atoms: N_16  and  S_18
REMARK    7  A    between atoms: C_22  and  C_24
REMARK    8  A    between atoms: C_24  and  N_25
REMARK    9  A    between atoms: N_25  and  S_27
REMARK                            x       y       z     vdW  Elec       q    Type
REMARK                         _______ _______ _______ _____ _____    ______ ____
ROOT
ATOM      1  C   UNL     1      34.941 -23.547 -16.190  0.00  0.00    -0.021 C 
ATOM      2  C   UNL     1      35.136 -21.849 -18.394  0.00  0.00    -0.000 C 
ATOM      3  C   UNL     1      33.865 -23.419 -17.069  0.00  0.00    -0.004 C 
ATOM      4  C   UNL     1      36.113 -22.826 -16.413  0.00  0.00    -0.004 C 
ATOM      5  C   UNL     1      33.962 -22.569 -18.171  0.00  0.00    -0.000 C 
ATOM      6  C   UNL     1      36.211 -21.976 -17.515  0.00  0.00    -0.000 C 
ENDROOT
BRANCH   2   8
ATOM      7  C   UNL     1      35.429 -19.264 -21.738  0.00  0.00    -0.021 C 
ATOM      8  C   UNL     1      35.236 -20.967 -19.537  0.00  0.00    -0.000 C 
ATOM      9  C   UNL     1      36.577 -19.620 -21.029  0.00  0.00    -0.004 C 
ATOM     10  C   UNL     1      34.186 -19.758 -21.345  0.00  0.00    -0.004 C 
ATOM     11  C   UNL     1      36.480 -20.472 -19.928  0.00  0.00    -0.000 C 
ATOM     12  C   UNL     1      34.089 -20.610 -20.245  0.00  0.00    -0.000 C 
BRANCH   7  13
ATOM     13  C   UNL     1      35.532 -18.354 -22.914  0.00  0.00    +0.040 C 
ATOM     14  C   UNL     1      34.582 -18.774 -24.056  0.00  0.00    +0.006 C 
BRANCH  13  15
ATOM     15  C   UNL     1      35.266 -16.866 -22.578  0.00  0.00    +0.095 C 
BRANCH  15  16
ATOM     16  N   UNL     1      34.197 -16.338 -23.459  0.00  0.00    -0.183 NA
ATOM     17  H   UNL     1      34.578 -16.299 -24.403  0.00  0.00    +0.148 HD
BRANCH  16  18
ATOM     18  S   UNL     1      33.537 -14.803 -23.124  0.00  0.00    +0.043 S 
ATOM     19  O   UNL     1      34.586 -13.894 -22.705  0.00  0.00    -0.157 OA
ATOM     20  O   UNL     1      32.348 -14.987 -22.314  0.00  0.00    -0.157 OA
ATOM     21  C   UNL     1      33.004 -14.312 -24.747  0.00  0.00    +0.196 C 
ENDBRANCH  16  18
ENDBRANCH  15  16
ENDBRANCH  13  15
ENDBRANCH   7  13
ENDBRANCH   2   8
BRANCH   1  22
ATOM     22  C   UNL     1      34.836 -24.472 -14.988  0.00  0.00    +0.040 C 
ATOM     23  C   UNL     1      35.998 -25.470 -14.963  0.00  0.00    +0.006 C 
BRANCH  22  24
ATOM     24  C   UNL     1      34.769 -23.708 -13.656  0.00  0.00    +0.095 C 
BRANCH  24  25
ATOM     25  N   UNL     1      34.637 -24.659 -12.526  0.00  0.00    -0.183 NA
ATOM     26  H   UNL     1      33.767 -24.431 -12.044  0.00  0.00    +0.148 HD
BRANCH  25  27
ATOM     27  S   UNL     1      35.864 -24.711 -11.346  0.00  0.00    +0.043 S 
ATOM     28  O   UNL     1      36.737 -25.843 -11.589  0.00  0.00    -0.157 OA
ATOM     29  O   UNL     1      35.253 -24.511 -10.047  0.00  0.00    -0.157 OA
ATOM     30  C   UNL     1      36.765 -23.231 -11.743  0.00  0.00    +0.196 C 
ENDBRANCH  25  27
ENDBRANCH  24  25
ENDBRANCH  22  24
ENDBRANCH   1  22
TORSDOF 9
ENDMDL
MODEL 2
REMARK VINA RESULT:     -10.9      0.116     11.058
REMARK  Name = 22489160
REMARK  9 active torsions:
REMARK  status: ('A' for Active; 'I' for Inactive)
REMARK    1  A    between atoms: C_1  and  C_22
REMARK    2  A    between atoms: C_2  and  C_8
REMARK    3  A    between atoms: C_7  and  C_13
REMARK    4  A    between atoms: C_13  and  C_15
REMARK    5  A    between atoms: C_15  and  N_16
REMARK    6  A    between atoms: N_16  and  S_18
REMARK    7  A    between atoms: C_22  and  C_24
REMARK    8  A    between atoms: C_24  and  N_25
REMARK    9  A    between atoms: N_25  and  S_27
REMARK                            x       y       z     vdW  Elec       q    Type
REMARK                         _______ _______ _______ _____ _____    ______ ____
ROOT
ATOM      1  C   UNL     1      35.414 -19.279 -21.748  0.00  0.00    -0.021 C 
ATOM      2  C   UNL     1      35.185 -20.971 -19.543  0.00  0.00    -0.000 C 
ATOM      3  C   UNL     1      36.548 -19.621 -21.012  0.00  0.00    -0.004 C 
ATOM      4  C   UNL     1      34.167 -19.783 -21.383  0.00  0.00    -0.004 C 
ATOM      5  C   UNL     1      36.433 -20.467 -19.908  0.00  0.00    -0.000 C 
ATOM      6  C   UNL     1      34.051 -20.629 -20.280  0.00  0.00    -0.000 C 
ENDROOT
BRANCH   2   8
ATOM      7  C   UNL     1      34.836 -23.537 -16.190  0.00  0.00    -0.021 C 
ATOM      8  C   UNL     1      35.066 -21.848 -18.398  0.00  0.00    -0.000 C 
ATOM      9  C   UNL     1      33.768 -23.401 -17.078  0.00  0.00    -0.004 C 
ATOM     10  C   UNL     1      36.017 -22.827 -16.405  0.00  0.00    -0.004 C 
ATOM     11  C   UNL     1      33.884 -22.557 -18.183  0.00  0.00    -0.000 C 
ATOM     12  C   UNL     1      36.132 -21.983 -17.510  0.00  0.00    -0.000 C 
BRANCH   7  13
ATOM     13  C   UNL     1      34.713 -24.438 -15.009  0.00  0.00    +0.040 C 
ATOM     14  C   UNL     1      35.807 -25.526 -14.996  0.00  0.00    +0.006 C 
BRANCH  13  15
ATOM     15  C   UNL     1      34.742 -23.697 -13.651  0.00  0.00    +0.095 C 
BRANCH  15  16
ATOM     16  N   UNL     1      34.654 -24.678 -12.543  0.00  0.00    -0.183 NA
ATOM     17  H   UNL     1      33.782 -24.495 -12.049  0.00  0.00    +0.148 HD
BRANCH  16  18
ATOM     18  S   UNL     1      35.892 -24.714 -11.373  0.00  0.00    +0.043 S 
ATOM     19  O   UNL     1      36.776 -25.836 -11.621  0.00  0.00    -0.157 OA
ATOM     20  O   UNL     1      35.290 -24.518 -10.069  0.00  0.00    -0.157 OA
ATOM     21  C   UNL     1      36.773 -23.224 -11.781  0.00  0.00    +0.196 C 
ENDBRANCH  16  18
ENDBRANCH  15  16
ENDBRANCH  13  15
ENDBRANCH   7  13
ENDBRANCH   2   8
BRANCH   1  22
ATOM     22  C   UNL     1      35.538 -18.356 -22.950  0.00  0.00    +0.040 C 
ATOM     23  C   UNL     1      34.585 -18.786 -24.071  0.00  0.00    +0.006 C 
BRANCH  22  24
ATOM     24  C   UNL     1      35.298 -16.881 -22.592  0.00  0.00    +0.095 C 
BRANCH  24  25
ATOM     25  N   UNL     1      34.094 -16.373 -23.294  0.00  0.00    -0.183 NA
ATOM     26  H   UNL     1      34.306 -16.382 -24.293  0.00  0.00    +0.148 HD
BRANCH  25  27
ATOM     27  S   UNL     1      33.517 -14.815 -22.918  0.00  0.00    +0.043 S 
ATOM     28  O   UNL     1      34.605 -13.988 -22.436  0.00  0.00    -0.157 OA
ATOM     29  O   UNL     1      32.296 -14.956 -22.150  0.00  0.00    -0.157 OA
ATOM     30  C   UNL     1      33.063 -14.234 -24.536  0.00  0.00    +0.196 C 
ENDBRANCH  25  27
ENDBRANCH  24  25
ENDBRANCH  22  24
ENDBRANCH   1  22
TORSDOF 9
ENDMDL
MODEL 3
REMARK VINA RESULT:     -10.6      2.011     10.541
REMARK  Name = 22489160
REMARK  9 active torsions:
REMARK  status: ('A' for Active; 'I' for Inactive)
REMARK    1  A    between atoms: C_1  and  C_22
REMARK    2  A    between atoms: C_2  and  C_8
REMARK    3  A    between atoms: C_7  and  C_13
REMARK    4  A    between atoms: C_13  and  C_15
REMARK    5  A    between atoms: C_15  and  N_16
REMARK    6  A    between atoms: N_16  and  S_18
REMARK    7  A    between atoms: C_22  and  C_24
REMARK    8  A    between atoms: C_24  and  N_25
REMARK    9  A    between atoms: N_25  and  S_27
REMARK                            x       y       z     vdW  Elec       q    Type
REMARK                         _______ _______ _______ _____ _____    ______ ____
ROOT
ATOM      1  C   UNL     1      35.312 -19.330 -21.995  0.00  0.00    -0.021 C 
ATOM      2  C   UNL     1      35.334 -20.880 -19.677  0.00  0.00    -0.000 C 
ATOM      3  C   UNL     1      34.115 -19.820 -21.473  0.00  0.00    -0.004 C 
ATOM      4  C   UNL     1      36.519 -19.615 -21.359  0.00  0.00    -0.004 C 
ATOM      5  C   UNL     1      34.126 -20.596 -20.313  0.00  0.00    -0.000 C 
ATOM      6  C   UNL     1      36.531 -20.390 -20.199  0.00  0.00    -0.000 C 
ENDROOT
BRANCH   2   8
ATOM      7  C   UNL     1      35.369 -23.236 -16.155  0.00  0.00    -0.021 C 
ATOM      8  C   UNL     1      35.346 -21.685 -18.474  0.00  0.00    -0.000 C 
ATOM      9  C   UNL     1      34.237 -23.218 -16.971  0.00  0.00    -0.004 C 
ATOM     10  C   UNL     1      36.488 -22.478 -16.498  0.00  0.00    -0.004 C 
ATOM     11  C   UNL     1      34.226 -22.443 -18.132  0.00  0.00    -0.000 C 
ATOM     12  C   UNL     1      36.477 -21.703 -17.659  0.00  0.00    -0.000 C 
BRANCH   7  13
ATOM     13  C   UNL     1      35.381 -24.063 -14.916  0.00  0.00    +0.040 C 
ATOM     14  C   UNL     1      34.069 -23.922 -14.113  0.00  0.00    +0.006 C 
BRANCH  13  15
ATOM     15  C   UNL     1      35.640 -25.568 -15.171  0.00  0.00    +0.095 C 
BRANCH  15  16
ATOM     16  N   UNL     1      37.055 -25.773 -15.561  0.00  0.00    -0.183 NA
ATOM     17  H   UNL     1      37.115 -26.692 -15.999  0.00  0.00    +0.148 HD
BRANCH  16  18
ATOM     18  S   UNL     1      38.258 -25.716 -14.356  0.00  0.00    +0.043 S 
ATOM     19  O   UNL     1      38.648 -24.341 -14.110  0.00  0.00    -0.157 OA
ATOM     20  O   UNL     1      39.253 -26.726 -14.660  0.00  0.00    -0.157 OA
ATOM     21  C   UNL     1      37.338 -26.284 -12.944  0.00  0.00    +0.196 C 
ENDBRANCH  16  18
ENDBRANCH  15  16
ENDBRANCH  13  15
ENDBRANCH   7  13
ENDBRANCH   2   8
BRANCH   1  22
ATOM     22  C   UNL     1      35.300 -18.486 -23.259  0.00  0.00    +0.040 C 
ATOM     23  C   UNL     1      34.685 -19.261 -24.429  0.00  0.00    +0.006 C 
BRANCH  22  24
ATOM     24  C   UNL     1      34.568 -17.148 -23.072  0.00  0.00    +0.095 C 
BRANCH  24  25
ATOM     25  N   UNL     1      34.993 -16.504 -21.805  0.00  0.00    -0.183 NA
ATOM     26  H   UNL     1      34.721 -17.131 -21.047  0.00  0.00    +0.148 HD
BRANCH  25  27
ATOM     27  S   UNL     1      34.386 -14.960 -21.421  0.00  0.00    +0.043 S 
ATOM     28  O   UNL     1      34.424 -14.108 -22.593  0.00  0.00    -0.157 OA
ATOM     29  O   UNL     1      34.988 -14.533 -20.174  0.00  0.00    -0.157 OA
ATOM     30  C   UNL     1      32.684 -15.351 -21.084  0.00  0.00    +0.196 C 
ENDBRANCH  25  27
ENDBRANCH  24  25
ENDBRANCH  22  24
ENDBRANCH   1  22
TORSDOF 9
ENDMDL
MODEL 4
REMARK VINA RESULT:     -10.5      2.005      2.576
REMARK  Name = 22489160
REMARK  9 active torsions:
REMARK  status: ('A' for Active; 'I' for Inactive)
REMARK    1  A    between atoms: C_1  and  C_22
REMARK    2  A    between atoms: C_2  and  C_8
REMARK    3  A    between atoms: C_7  and  C_13
REMARK    4  A    between atoms: C_13  and  C_15
REMARK    5  A    between atoms: C_15  and  N_16
REMARK    6  A    between atoms: N_16  and  S_18
REMARK    7  A    between atoms: C_22  and  C_24
REMARK    8  A    between atoms: C_24  and  N_25
REMARK    9  A    between atoms: N_25  and  S_27
REMARK                            x       y       z     vdW  Elec       q    Type
REMARK                         _______ _______ _______ _____ _____    ______ ____
ROOT
ATOM      1  C   UNL     1      35.436 -23.275 -16.121  0.00  0.00    -0.021 C 
ATOM      2  C   UNL     1      35.416 -21.701 -18.423  0.00  0.00    -0.000 C 
ATOM      3  C   UNL     1      36.550 -22.503 -16.446  0.00  0.00    -0.004 C 
ATOM      4  C   UNL     1      34.312 -23.260 -16.945  0.00  0.00    -0.004 C 
ATOM      5  C   UNL     1      36.541 -21.716 -17.598  0.00  0.00    -0.000 C 
ATOM      6  C   UNL     1      34.301 -22.473 -18.097  0.00  0.00    -0.000 C 
ENDROOT
BRANCH   2   8
ATOM      7  C   UNL     1      35.389 -19.314 -21.923  0.00  0.00    -0.021 C 
ATOM      8  C   UNL     1      35.407 -20.885 -19.618  0.00  0.00    -0.000 C 
ATOM      9  C   UNL     1      34.197 -19.853 -21.437  0.00  0.00    -0.004 C 
ATOM     10  C   UNL     1      36.588 -19.561 -21.257  0.00  0.00    -0.004 C 
ATOM     11  C   UNL     1      34.206 -20.638 -20.284  0.00  0.00    -0.000 C 
ATOM     12  C   UNL     1      36.597 -20.347 -20.103  0.00  0.00    -0.000 C 
BRANCH   7  13
ATOM     13  C   UNL     1      35.379 -18.475 -23.155  0.00  0.00    +0.040 C 
ATOM     14  C   UNL     1      34.711 -19.200 -24.343  0.00  0.00    +0.006 C 
BRANCH  13  15
ATOM     15  C   UNL     1      34.693 -17.100 -22.971  0.00  0.00    +0.095 C 
BRANCH  15  16
ATOM     16  N   UNL     1      34.694 -16.729 -21.535  0.00  0.00    -0.183 NA
ATOM     17  H   UNL     1      34.117 -17.414 -21.049  0.00  0.00    +0.148 HD
BRANCH  16  18
ATOM     18  S   UNL     1      34.127 -15.188 -21.082  0.00  0.00    +0.043 S 
ATOM     19  O   UNL     1      35.079 -14.552 -20.192  0.00  0.00    -0.157 OA
ATOM     20  O   UNL     1      32.731 -15.308 -20.711  0.00  0.00    -0.157 OA
ATOM     21  C   UNL     1      34.190 -14.341 -22.645  0.00  0.00    +0.196 C 
ENDBRANCH  16  18
ENDBRANCH  15  16
ENDBRANCH  13  15
ENDBRANCH   7  13
ENDBRANCH   2   8
BRANCH   1  22
ATOM     22  C   UNL     1      35.446 -24.135 -14.867  0.00  0.00    +0.040 C 
ATOM     23  C   UNL     1      34.122 -24.006 -14.105  0.00  0.00    +0.006 C 
BRANCH  22  24
ATOM     24  C   UNL     1      35.740 -25.614 -15.163  0.00  0.00    +0.095 C 
BRANCH  24  25
ATOM     25  N   UNL     1      37.165 -25.787 -15.536  0.00  0.00    -0.183 NA
ATOM     26  H   UNL     1      37.249 -26.707 -15.971  0.00  0.00    +0.148 HD
BRANCH  25  27
ATOM     27  S   UNL     1      38.352 -25.699 -14.318  0.00  0.00    +0.043 S 
ATOM     28  O   UNL     1      38.706 -24.316 -14.071  0.00  0.00    -0.157 OA
ATOM     29  O   UNL     1      39.374 -26.686 -14.607  0.00  0.00    -0.157 OA
ATOM     30  C   UNL     1      37.428 -26.286 -12.916  0.00  0.00    +0.196 C 
ENDBRANCH  25  27
ENDBRANCH  24  25
ENDBRANCH  22  24
ENDBRANCH   1  22
TORSDOF 9
ENDMDL
MODEL 5
REMARK VINA RESULT:     -10.5      2.331      2.818
REMARK  Name = 22489160
REMARK  9 active torsions:
REMARK  status: ('A' for Active; 'I' for Inactive)
REMARK    1  A    between atoms: C_1  and  C_22
REMARK    2  A    between atoms: C_2  and  C_8
REMARK    3  A    between atoms: C_7  and  C_13
REMARK    4  A    between atoms: C_13  and  C_15
REMARK    5  A    between atoms: C_15  and  N_16
REMARK    6  A    between atoms: N_16  and  S_18
REMARK    7  A    between atoms: C_22  and  C_24
REMARK    8  A    between atoms: C_24  and  N_25
REMARK    9  A    between atoms: N_25  and  S_27
REMARK                            x       y       z     vdW  Elec       q    Type
REMARK                         _______ _______ _______ _____ _____    ______ ____
ROOT
ATOM      1  C   UNL     1      34.833 -23.602 -16.078  0.00  0.00    -0.021 C 
ATOM      2  C   UNL     1      34.970 -21.971 -18.335  0.00  0.00    -0.000 C 
ATOM      3  C   UNL     1      33.747 -23.526 -16.950  0.00  0.00    -0.004 C 
ATOM      4  C   UNL     1      35.987 -22.863 -16.334  0.00  0.00    -0.004 C 
ATOM      5  C   UNL     1      33.815 -22.710 -18.079  0.00  0.00    -0.000 C 
ATOM      6  C   UNL     1      36.056 -22.047 -17.463  0.00  0.00    -0.000 C 
ENDROOT
BRANCH   2   8
ATOM      7  C   UNL     1      35.179 -19.491 -21.765  0.00  0.00    -0.021 C 
ATOM      8  C   UNL     1      35.041 -21.123 -19.506  0.00  0.00    -0.000 C 
ATOM      9  C   UNL     1      33.940 -19.921 -21.289  0.00  0.00    -0.004 C 
ATOM     10  C   UNL     1      36.349 -19.877 -21.111  0.00  0.00    -0.004 C 
ATOM     11  C   UNL     1      33.871 -20.737 -20.159  0.00  0.00    -0.000 C 
ATOM     12  C   UNL     1      36.280 -20.693 -19.981  0.00  0.00    -0.000 C 
BRANCH   7  13
ATOM     13  C   UNL     1      35.253 -18.619 -22.971  0.00  0.00    +0.040 C 
ATOM     14  C   UNL     1      34.761 -19.346 -24.241  0.00  0.00    +0.006 C 
BRANCH  13  15
ATOM     15  C   UNL     1      34.470 -17.291 -22.833  0.00  0.00    +0.095 C 
BRANCH  15  16
ATOM     16  N   UNL     1      34.909 -16.576 -21.610  0.00  0.00    -0.183 NA
ATOM     17  H   UNL     1      34.580 -17.119 -20.812  0.00  0.00    +0.148 HD
BRANCH  16  18
ATOM     18  S   UNL     1      34.397 -14.970 -21.366  0.00  0.00    +0.043 S 
ATOM     19  O   UNL     1      34.459 -14.235 -22.615  0.00  0.00    -0.157 OA
ATOM     20  O   UNL     1      35.048 -14.462 -20.174  0.00  0.00    -0.157 OA
ATOM     21  C   UNL     1      32.683 -15.227 -20.968  0.00  0.00    +0.196 C 
ENDBRANCH  16  18
ENDBRANCH  15  16
ENDBRANCH  13  15
ENDBRANCH   7  13
ENDBRANCH   2   8
BRANCH   1  22
ATOM     22  C   UNL     1      34.758 -24.491 -14.847  0.00  0.00    +0.040 C 
ATOM     23  C   UNL     1      36.146 -24.682 -14.225  0.00  0.00    +0.006 C 
BRANCH  22  24
ATOM     24  C   UNL     1      33.777 -23.960 -13.790  0.00  0.00    +0.095 C 
BRANCH  24  25
ATOM     25  N   UNL     1      32.750 -24.984 -13.484  0.00  0.00    -0.183 NA
ATOM     26  H   UNL     1      32.979 -25.811 -14.037  0.00  0.00    +0.148 HD
BRANCH  25  27
ATOM     27  S   UNL     1      31.112 -24.622 -13.779  0.00  0.00    +0.043 S 
ATOM     28  O   UNL     1      30.413 -24.432 -12.523  0.00  0.00    -0.157 OA
ATOM     29  O   UNL     1      30.612 -25.553 -14.772  0.00  0.00    -0.157 OA
ATOM     30  C   UNL     1      31.262 -23.036 -14.567  0.00  0.00    +0.196 C 
ENDBRANCH  25  27
ENDBRANCH  24  25
ENDBRANCH  22  24
ENDBRANCH   1  22
TORSDOF 9
ENDMDL
MODEL 6
REMARK VINA RESULT:     -10.3      2.049     10.588
REMARK  Name = 22489160
REMARK  9 active torsions:
REMARK  status: ('A' for Active; 'I' for Inactive)
REMARK    1  A    between atoms: C_1  and  C_22
REMARK    2  A    between atoms: C_2  and  C_8
REMARK    3  A    between atoms: C_7  and  C_13
REMARK    4  A    between atoms: C_13  and  C_15
REMARK    5  A    between atoms: C_15  and  N_16
REMARK    6  A    between atoms: N_16  and  S_18
REMARK    7  A    between atoms: C_22  and  C_24
REMARK    8  A    between atoms: C_24  and  N_25
REMARK    9  A    between atoms: N_25  and  S_27
REMARK                            x       y       z     vdW  Elec       q    Type
REMARK                         _______ _______ _______ _____ _____    ______ ____
ROOT
ATOM      1  C   UNL     1      35.334 -19.278 -21.647  0.00  0.00    -0.021 C 
ATOM      2  C   UNL     1      35.104 -21.025 -19.485  0.00  0.00    -0.000 C 
ATOM      3  C   UNL     1      34.080 -19.754 -21.266  0.00  0.00    -0.004 C 
ATOM      4  C   UNL     1      36.473 -19.675 -20.947  0.00  0.00    -0.004 C 
ATOM      5  C   UNL     1      33.965 -20.628 -20.184  0.00  0.00    -0.000 C 
ATOM      6  C   UNL     1      36.359 -20.549 -19.866  0.00  0.00    -0.000 C 
ENDROOT
BRANCH   2   8
ATOM      7  C   UNL     1      34.755 -23.680 -16.202  0.00  0.00    -0.021 C 
ATOM      8  C   UNL     1      34.985 -21.933 -18.364  0.00  0.00    -0.000 C 
ATOM      9  C   UNL     1      33.689 -23.522 -17.087  0.00  0.00    -0.004 C 
ATOM     10  C   UNL     1      35.936 -22.964 -16.398  0.00  0.00    -0.004 C 
ATOM     11  C   UNL     1      33.804 -22.648 -18.169  0.00  0.00    -0.000 C 
ATOM     12  C   UNL     1      36.051 -22.090 -17.479  0.00  0.00    -0.000 C 
BRANCH   7  13
ATOM     13  C   UNL     1      34.633 -24.613 -15.046  0.00  0.00    +0.040 C 
ATOM     14  C   UNL     1      35.995 -25.218 -14.643  0.00  0.00    +0.006 C 
BRANCH  13  15
ATOM     15  C   UNL     1      33.990 -23.974 -13.792  0.00  0.00    +0.095 C 
BRANCH  15  16
ATOM     16  N   UNL     1      32.763 -24.720 -13.422  0.00  0.00    -0.183 NA
ATOM     17  H   UNL     1      32.773 -25.592 -13.950  0.00  0.00    +0.148 HD
BRANCH  16  18
ATOM     18  S   UNL     1      31.246 -23.993 -13.686  0.00  0.00    +0.043 S 
ATOM     19  O   UNL     1      31.414 -22.737 -14.391  0.00  0.00    -0.157 OA
ATOM     20  O   UNL     1      30.492 -24.053 -12.449  0.00  0.00    -0.157 OA
ATOM     21  C   UNL     1      30.514 -25.158 -14.812  0.00  0.00    +0.196 C 
ENDBRANCH  16  18
ENDBRANCH  15  16
ENDBRANCH  13  15
ENDBRANCH   7  13
ENDBRANCH   2   8
BRANCH   1  22
ATOM     22  C   UNL     1      35.460 -18.326 -22.825  0.00  0.00    +0.040 C 
ATOM     23  C   UNL     1      34.583 -18.784 -23.995  0.00  0.00    +0.006 C 
BRANCH  22  24
ATOM     24  C   UNL     1      35.124 -16.873 -22.453  0.00  0.00    +0.095 C 
BRANCH  24  25
ATOM     25  N   UNL     1      34.226 -16.278 -23.472  0.00  0.00    -0.183 NA
ATOM     26  H   UNL     1      34.771 -16.180 -24.329  0.00  0.00    +0.148 HD
BRANCH  25  27
ATOM     27  S   UNL     1      33.512 -14.764 -23.157  0.00  0.00    +0.043 S 
ATOM     28  O   UNL     1      34.531 -13.807 -22.774  0.00  0.00    -0.157 OA
ATOM     29  O   UNL     1      32.344 -14.977 -22.326  0.00  0.00    -0.157 OA
ATOM     30  C   UNL     1      32.935 -14.329 -24.782  0.00  0.00    +0.196 C 
ENDBRANCH  25  27
ENDBRANCH  24  25
ENDBRANCH  22  24
ENDBRANCH   1  22
TORSDOF 9
ENDMDL
MODEL 7
REMARK VINA RESULT:     -10.0      3.144     11.627
REMARK  Name = 22489160
REMARK  9 active torsions:
REMARK  status: ('A' for Active; 'I' for Inactive)
REMARK    1  A    between atoms: C_1  and  C_22
REMARK    2  A    between atoms: C_2  and  C_8
REMARK    3  A    between atoms: C_7  and  C_13
REMARK    4  A    between atoms: C_13  and  C_15
REMARK    5  A    between atoms: C_15  and  N_16
REMARK    6  A    between atoms: N_16  and  S_18
REMARK    7  A    between atoms: C_22  and  C_24
REMARK    8  A    between atoms: C_24  and  N_25
REMARK    9  A    between atoms: N_25  and  S_27
REMARK                            x       y       z     vdW  Elec       q    Type
REMARK                         _______ _______ _______ _____ _____    ______ ____
ROOT
ATOM      1  C   UNL     1      34.229 -16.170 -23.523  0.00  0.00    -0.021 C 
ATOM      2  C   UNL     1      34.322 -18.347 -21.783  0.00  0.00    -0.000 C 
ATOM      3  C   UNL     1      33.895 -16.003 -22.180  0.00  0.00    -0.004 C 
ATOM      4  C   UNL     1      34.610 -17.425 -23.997  0.00  0.00    -0.004 C 
ATOM      5  C   UNL     1      33.941 -17.092 -21.309  0.00  0.00    -0.000 C 
ATOM      6  C   UNL     1      34.656 -18.514 -23.127  0.00  0.00    -0.000 C 
ENDROOT
BRANCH   2   8
ATOM      7  C   UNL     1      34.458 -21.658 -19.142  0.00  0.00    -0.021 C 
ATOM      8  C   UNL     1      34.368 -19.477 -20.880  0.00  0.00    -0.000 C 
ATOM      9  C   UNL     1      35.643 -21.093 -19.614  0.00  0.00    -0.004 C 
ATOM     10  C   UNL     1      33.229 -21.133 -19.540  0.00  0.00    -0.004 C 
ATOM     11  C   UNL     1      35.599 -20.002 -20.483  0.00  0.00    -0.000 C 
ATOM     12  C   UNL     1      33.184 -20.042 -20.409  0.00  0.00    -0.000 C 
BRANCH   7  13
ATOM     13  C   UNL     1      34.505 -22.823 -18.214  0.00  0.00    +0.040 C 
ATOM     14  C   UNL     1      35.510 -22.605 -17.063  0.00  0.00    +0.006 C 
BRANCH  13  15
ATOM     15  C   UNL     1      33.132 -23.192 -17.603  0.00  0.00    +0.095 C 
BRANCH  15  16
ATOM     16  N   UNL     1      33.261 -23.335 -16.133  0.00  0.00    -0.183 NA
ATOM     17  H   UNL     1      33.871 -24.133 -15.962  0.00  0.00    +0.148 HD
BRANCH  16  18
ATOM     18  S   UNL     1      31.854 -23.573 -15.202  0.00  0.00    +0.043 S 
ATOM     19  O   UNL     1      30.835 -24.225 -16.001  0.00  0.00    -0.157 OA
ATOM     20  O   UNL     1      31.565 -22.342 -14.492  0.00  0.00    -0.157 OA
ATOM     21  C   UNL     1      32.446 -24.749 -14.006  0.00  0.00    +0.196 C 
ENDBRANCH  16  18
ENDBRANCH  15  16
ENDBRANCH  13  15
ENDBRANCH   7  13
ENDBRANCH   2   8
BRANCH   1  22
ATOM     22  C   UNL     1      34.179 -14.983 -24.473  0.00  0.00    +0.040 C 
ATOM     23  C   UNL     1      33.530 -15.376 -25.804  0.00  0.00    +0.006 C 
BRANCH  22  24
ATOM     24  C   UNL     1      33.450 -13.772 -23.870  0.00  0.00    +0.095 C 
BRANCH  24  25
ATOM     25  N   UNL     1      34.326 -12.576 -23.908  0.00  0.00    -0.183 NA
ATOM     26  H   UNL     1      34.393 -12.225 -22.953  0.00  0.00    +0.148 HD
BRANCH  25  27
ATOM     27  S   UNL     1      33.883 -11.261 -24.896  0.00  0.00    +0.043 S 
ATOM     28  O   UNL     1      32.962 -10.397 -24.184  0.00  0.00    -0.157 OA
ATOM     29  O   UNL     1      33.554 -11.772 -26.212  0.00  0.00    -0.157 OA
ATOM     30  C   UNL     1      35.438 -10.411 -25.029  0.00  0.00    +0.196 C 
ENDBRANCH  25  27
ENDBRANCH  24  25
ENDBRANCH  22  24
ENDBRANCH   1  22
TORSDOF 9
ENDMDL
MODEL 8
REMARK VINA RESULT:      -9.8      2.850     11.772
REMARK  Name = 22489160
REMARK  9 active torsions:
REMARK  status: ('A' for Active; 'I' for Inactive)
REMARK    1  A    between atoms: C_1  and  C_22
REMARK    2  A    between atoms: C_2  and  C_8
REMARK    3  A    between atoms: C_7  and  C_13
REMARK    4  A    between atoms: C_13  and  C_15
REMARK    5  A    between atoms: C_15  and  N_16
REMARK    6  A    between atoms: N_16  and  S_18
REMARK    7  A    between atoms: C_22  and  C_24
REMARK    8  A    between atoms: C_24  and  N_25
REMARK    9  A    between atoms: N_25  and  S_27
REMARK                            x       y       z     vdW  Elec       q    Type
REMARK                         _______ _______ _______ _____ _____    ______ ____
ROOT
ATOM      1  C   UNL     1      34.077 -15.395 -23.867  0.00  0.00    -0.021 C 
ATOM      2  C   UNL     1      34.505 -17.611 -22.228  0.00  0.00    -0.000 C 
ATOM      3  C   UNL     1      33.883 -15.291 -22.489  0.00  0.00    -0.004 C 
ATOM      4  C   UNL     1      34.484 -16.606 -24.425  0.00  0.00    -0.004 C 
ATOM      5  C   UNL     1      34.097 -16.400 -21.669  0.00  0.00    -0.000 C 
ATOM      6  C   UNL     1      34.698 -17.715 -23.605  0.00  0.00    -0.000 C 
ENDROOT
BRANCH   2   8
ATOM      7  C   UNL     1      35.151 -20.980 -19.741  0.00  0.00    -0.021 C 
ATOM      8  C   UNL     1      34.725 -18.761 -21.378  0.00  0.00    -0.000 C 
ATOM      9  C   UNL     1      36.235 -20.223 -20.187  0.00  0.00    -0.004 C 
ATOM     10  C   UNL     1      33.854 -20.627 -20.115  0.00  0.00    -0.004 C 
ATOM     11  C   UNL     1      36.023 -19.113 -21.005  0.00  0.00    -0.000 C 
ATOM     12  C   UNL     1      33.642 -19.517 -20.933  0.00  0.00    -0.000 C 
BRANCH   7  13
ATOM     13  C   UNL     1      35.378 -22.166 -18.867  0.00  0.00    +0.040 C 
ATOM     14  C   UNL     1      36.570 -21.958 -17.909  0.00  0.00    +0.006 C 
BRANCH  13  15
ATOM     15  C   UNL     1      34.141 -22.572 -18.030  0.00  0.00    +0.095 C 
BRANCH  15  16
ATOM     16  N   UNL     1      34.478 -23.730 -17.168  0.00  0.00    -0.183 NA
ATOM     17  H   UNL     1      33.908 -24.514 -17.484  0.00  0.00    +0.148 HD
BRANCH  16  18
ATOM     18  S   UNL     1      34.254 -23.597 -15.485  0.00  0.00    +0.043 S 
ATOM     19  O   UNL     1      32.856 -23.791 -15.154  0.00  0.00    -0.157 OA
ATOM     20  O   UNL     1      34.969 -22.423 -15.023  0.00  0.00    -0.157 OA
ATOM     21  C   UNL     1      35.152 -25.023 -14.919  0.00  0.00    +0.196 C 
ENDBRANCH  16  18
ENDBRANCH  15  16
ENDBRANCH  13  15
ENDBRANCH   7  13
ENDBRANCH   2   8
BRANCH   1  22
ATOM     22  C   UNL     1      33.843 -14.188 -24.761  0.00  0.00    +0.040 C 
ATOM     23  C   UNL     1      33.077 -14.586 -26.027  0.00  0.00    +0.006 C 
BRANCH  22  24
ATOM     24  C   UNL     1      33.108 -13.048 -24.038  0.00  0.00    +0.095 C 
BRANCH  24  25
ATOM     25  N   UNL     1      34.073 -12.008 -23.607  0.00  0.00    -0.183 NA
ATOM     26  H   UNL     1      33.838 -11.764 -22.645  0.00  0.00    +0.148 HD
BRANCH  25  27
ATOM     27  S   UNL     1      34.162 -10.552 -24.486  0.00  0.00    +0.043 S 
ATOM     28  O   UNL     1      33.942 -10.811 -25.896  0.00  0.00    -0.157 OA
ATOM     29  O   UNL     1      35.332  -9.823 -24.040  0.00  0.00    -0.157 OA
ATOM     30  C   UNL     1      32.733  -9.701 -23.857  0.00  0.00    +0.196 C 
ENDBRANCH  25  27
ENDBRANCH  24  25
ENDBRANCH  22  24
ENDBRANCH   1  22
TORSDOF 9
ENDMDL
MODEL 9
REMARK VINA RESULT:      -9.8      2.768      4.584
REMARK  Name = 22489160
REMARK  9 active torsions:
REMARK  status: ('A' for Active; 'I' for Inactive)
REMARK    1  A    between atoms: C_1  and  C_22
REMARK    2  A    between atoms: C_2  and  C_8
REMARK    3  A    between atoms: C_7  and  C_13
REMARK    4  A    between atoms: C_13  and  C_15
REMARK    5  A    between atoms: C_15  and  N_16
REMARK    6  A    between atoms: N_16  and  S_18
REMARK    7  A    between atoms: C_22  and  C_24
REMARK    8  A    between atoms: C_24  and  N_25
REMARK    9  A    between atoms: N_25  and  S_27
REMARK                            x       y       z     vdW  Elec       q    Type
REMARK                         _______ _______ _______ _____ _____    ______ ____
ROOT
ATOM      1  C   UNL     1      35.198 -21.039 -19.642  0.00  0.00    -0.021 C 
ATOM      2  C   UNL     1      34.762 -18.857 -21.322  0.00  0.00    -0.000 C 
ATOM      3  C   UNL     1      33.898 -20.683 -19.998  0.00  0.00    -0.004 C 
ATOM      4  C   UNL     1      36.280 -20.306 -20.126  0.00  0.00    -0.004 C 
ATOM      5  C   UNL     1      33.679 -19.590 -20.838  0.00  0.00    -0.000 C 
ATOM      6  C   UNL     1      36.063 -19.214 -20.966  0.00  0.00    -0.000 C 
ENDROOT
BRANCH   2   8
ATOM      7  C   UNL     1      34.098 -15.540 -23.873  0.00  0.00    -0.021 C 
ATOM      8  C   UNL     1      34.536 -17.724 -22.194  0.00  0.00    -0.000 C 
ATOM      9  C   UNL     1      33.878 -15.419 -22.501  0.00  0.00    -0.004 C 
ATOM     10  C   UNL     1      34.537 -16.752 -24.405  0.00  0.00    -0.004 C 
ATOM     11  C   UNL     1      34.097 -16.512 -21.660  0.00  0.00    -0.000 C 
ATOM     12  C   UNL     1      34.757 -17.844 -23.565  0.00  0.00    -0.000 C 
BRANCH   7  13
ATOM     13  C   UNL     1      33.864 -14.374 -24.771  0.00  0.00    +0.040 C 
ATOM     14  C   UNL     1      33.089 -14.771 -26.046  0.00  0.00    +0.006 C 
BRANCH  13  15
ATOM     15  C   UNL     1      33.118 -13.201 -24.091  0.00  0.00    +0.095 C 
BRANCH  15  16
ATOM     16  N   UNL     1      34.093 -12.175 -23.649  0.00  0.00    -0.183 NA
ATOM     17  H   UNL     1      33.865 -11.941 -22.684  0.00  0.00    +0.148 HD
BRANCH  16  18
ATOM     18  S   UNL     1      34.192 -10.708 -24.508  0.00  0.00    +0.043 S 
ATOM     19  O   UNL     1      33.898 -10.934 -25.910  0.00  0.00    -0.157 OA
ATOM     20  O   UNL     1      35.407 -10.026 -24.106  0.00  0.00    -0.157 OA
ATOM     21  C   UNL     1      32.824  -9.819 -23.800  0.00  0.00    +0.196 C 
ENDBRANCH  16  18
ENDBRANCH  15  16
ENDBRANCH  13  15
ENDBRANCH   7  13
ENDBRANCH   2   8
BRANCH   1  22
ATOM     22  C   UNL     1      35.436 -22.229 -18.725  0.00  0.00    +0.040 C 
ATOM     23  C   UNL     1      36.635 -21.978 -17.804  0.00  0.00    +0.006 C 
BRANCH  22  24
ATOM     24  C   UNL     1      34.198 -22.591 -17.890  0.00  0.00    +0.095 C 
BRANCH  24  25
ATOM     25  N   UNL     1      34.504 -23.726 -16.986  0.00  0.00    -0.183 NA
ATOM     26  H   UNL     1      33.905 -24.502 -17.268  0.00  0.00    +0.148 HD
BRANCH  25  27
ATOM     27  S   UNL     1      34.299 -23.520 -15.307  0.00  0.00    +0.043 S 
ATOM     28  O   UNL     1      32.887 -23.523 -14.977  0.00  0.00    -0.157 OA
ATOM     29  O   UNL     1      35.160 -22.437 -14.874  0.00  0.00    -0.157 OA
ATOM     30  C   UNL     1      35.006 -25.035 -14.702  0.00  0.00    +0.196 C 
ENDBRANCH  25  27
ENDBRANCH  24  25
ENDBRANCH  22  24
ENDBRANCH   1  22
TORSDOF 9
ENDMDL
