MODEL 1
REMARK VINA RESULT:      -9.4      0.000      0.000
REMARK  Name = 446753
REMARK  4 active torsions:
REMARK  status: ('A' for Active; 'I' for Inactive)
REMARK    1  A    between atoms: C_8  and  C_18
REMARK    2  A    between atoms: C_19  and  C_20
REMARK    3  A    between atoms: C_21  and  O_26
REMARK    4  A    between atoms: C_23  and  O_28
REMARK                            x       y       z     vdW  Elec       q    Type
REMARK                         _______ _______ _______ _____ _____    ______ ____
ROOT
ATOM      1  N   UNL     1      36.779 -22.129 -16.376  0.00  0.00    -0.181 NA
ATOM      2  N   UNL     1      36.919 -21.039 -18.415  0.00  0.00    -0.273 NA
ATOM      3  N   UNL     1      35.107 -21.098 -20.000  0.00  0.00    -0.312 NA
ATOM      4  N   UNL     1      33.147 -22.255 -19.541  0.00  0.00    -0.332 N 
ATOM      5  N   UNL     1      37.077 -19.928 -20.475  0.00  0.00    -0.283 N 
ATOM      6  C   UNL     1      34.228 -23.035 -16.973  0.00  0.00    -0.006 C 
ATOM      7  C   UNL     1      34.944 -22.240 -17.881  0.00  0.00    +0.115 C 
ATOM      8  C   UNL     1      34.802 -23.373 -15.760  0.00  0.00    +0.017 C 
ATOM      9  C   UNL     1      36.231 -21.797 -17.553  0.00  0.00    +0.104 C 
ATOM     10  C   UNL     1      32.846 -23.555 -17.237  0.00  0.00    +0.032 C 
ATOM     11  C   UNL     1      34.434 -21.859 -19.120  0.00  0.00    +0.201 C 
ATOM     12  C   UNL     1      36.072 -22.898 -15.512  0.00  0.00    +0.110 C 
ATOM     13  C   UNL     1      36.327 -20.728 -19.587  0.00  0.00    +0.206 C 
ATOM     14  H   UNL     1      32.808 -21.973 -20.421  0.00  0.00    +0.145 HD
ATOM     15  H   UNL     1      32.587 -22.815 -18.956  0.00  0.00    +0.145 HD
ATOM     16  H   UNL     1      37.981 -19.627 -20.224  0.00  0.00    +0.156 HD
ATOM     17  H   UNL     1      36.697 -19.669 -21.346  0.00  0.00    +0.156 HD
ENDROOT
BRANCH   8  18
ATOM     18  C   UNL     1      34.136 -24.192 -14.759  0.00  0.00    +0.001 C 
ATOM     19  C   UNL     1      34.758 -24.878 -13.772  0.00  0.00    +0.003 C 
BRANCH  19  20
ATOM     20  C   UNL     1      36.215 -24.910 -13.548  0.00  0.00    +0.037 C 
ATOM     21  C   UNL     1      36.787 -24.158 -12.534  0.00  0.00    +0.139 C 
ATOM     22  C   UNL     1      36.991 -25.709 -14.375  0.00  0.00    +0.040 C 
ATOM     23  C   UNL     1      38.372 -25.756 -14.182  0.00  0.00    +0.139 C 
ATOM     24  C   UNL     1      38.167 -24.205 -12.342  0.00  0.00    +0.040 C 
ATOM     25  C   UNL     1      38.960 -25.004 -13.165  0.00  0.00    +0.040 C 
BRANCH  21  26
ATOM     26  O   UNL     1      36.035 -23.369 -11.714  0.00  0.00    -0.471 OA
ATOM     27  C   UNL     1      35.729 -23.886 -10.421  0.00  0.00    +0.252 C 
ENDBRANCH  21  26
BRANCH  23  28
ATOM     28  O   UNL     1      39.146 -26.536 -14.986  0.00  0.00    -0.471 OA
ATOM     29  C   UNL     1      40.540 -26.236 -15.035  0.00  0.00    +0.252 C 
ENDBRANCH  23  28
ENDBRANCH  19  20
ENDBRANCH   8  18
TORSDOF 4
ENDMDL
MODEL 2
REMARK VINA RESULT:      -9.3      3.544      6.364
REMARK  Name = 446753
REMARK  4 active torsions:
REMARK  status: ('A' for Active; 'I' for Inactive)
REMARK    1  A    between atoms: C_8  and  C_18
REMARK    2  A    between atoms: C_19  and  C_20
REMARK    3  A    between atoms: C_21  and  O_26
REMARK    4  A    between atoms: C_23  and  O_28
REMARK                            x       y       z     vdW  Elec       q    Type
REMARK                         _______ _______ _______ _____ _____    ______ ____
ROOT
ATOM      1  N   UNL     1      36.497 -26.310 -15.293  0.00  0.00    -0.181 NA
ATOM      2  N   UNL     1      38.766 -26.473 -14.861  0.00  0.00    -0.273 NA
ATOM      3  N   UNL     1      39.808 -25.194 -13.107  0.00  0.00    -0.312 NA
ATOM      4  N   UNL     1      38.572 -23.743 -11.782  0.00  0.00    -0.332 N 
ATOM      5  N   UNL     1      41.067 -26.652 -14.437  0.00  0.00    -0.283 N 
ATOM      6  C   UNL     1      36.185 -24.457 -13.254  0.00  0.00    -0.006 C 
ATOM      7  C   UNL     1      37.442 -25.010 -13.544  0.00  0.00    +0.115 C 
ATOM      8  C   UNL     1      35.083 -24.842 -13.996  0.00  0.00    +0.017 C 
ATOM      9  C   UNL     1      37.570 -25.943 -14.580  0.00  0.00    +0.104 C 
ATOM     10  C   UNL     1      35.953 -23.454 -12.164  0.00  0.00    +0.032 C 
ATOM     11  C   UNL     1      38.598 -24.673 -12.843  0.00  0.00    +0.201 C 
ATOM     12  C   UNL     1      35.291 -25.765 -14.998  0.00  0.00    +0.110 C 
ATOM     13  C   UNL     1      39.819 -26.076 -14.116  0.00  0.00    +0.206 C 
ATOM     14  H   UNL     1      39.402 -23.521 -11.300  0.00  0.00    +0.145 HD
ATOM     15  H   UNL     1      37.725 -23.315 -11.522  0.00  0.00    +0.145 HD
ATOM     16  H   UNL     1      41.134 -27.306 -15.170  0.00  0.00    +0.156 HD
ATOM     17  H   UNL     1      41.871 -26.400 -13.928  0.00  0.00    +0.156 HD
ENDROOT
BRANCH   8  18
ATOM     18  C   UNL     1      33.743 -24.323 -13.768  0.00  0.00    +0.001 C 
ATOM     19  C   UNL     1      33.039 -23.568 -14.642  0.00  0.00    +0.003 C 
BRANCH  19  20
ATOM     20  C   UNL     1      33.513 -23.145 -15.972  0.00  0.00    +0.037 C 
ATOM     21  C   UNL     1      32.654 -23.152 -17.060  0.00  0.00    +0.139 C 
ATOM     22  C   UNL     1      34.834 -22.742 -16.103  0.00  0.00    +0.040 C 
ATOM     23  C   UNL     1      35.306 -22.337 -17.352  0.00  0.00    +0.139 C 
ATOM     24  C   UNL     1      33.126 -22.747 -18.308  0.00  0.00    +0.040 C 
ATOM     25  C   UNL     1      34.452 -22.340 -18.455  0.00  0.00    +0.040 C 
BRANCH  21  26
ATOM     26  O   UNL     1      31.353 -23.545 -16.945  0.00  0.00    -0.471 OA
ATOM     27  C   UNL     1      30.403 -22.542 -16.592  0.00  0.00    +0.252 C 
ENDBRANCH  21  26
BRANCH  23  28
ATOM     28  O   UNL     1      36.600 -21.939 -17.495  0.00  0.00    -0.471 OA
ATOM     29  C   UNL     1      37.471 -22.153 -16.386  0.00  0.00    +0.252 C 
ENDBRANCH  23  28
ENDBRANCH  19  20
ENDBRANCH   8  18
TORSDOF 4
ENDMDL
MODEL 3
REMARK VINA RESULT:      -9.0     11.067     14.594
REMARK  Name = 446753
REMARK  4 active torsions:
REMARK  status: ('A' for Active; 'I' for Inactive)
REMARK    1  A    between atoms: C_8  and  C_18
REMARK    2  A    between atoms: C_19  and  C_20
REMARK    3  A    between atoms: C_21  and  O_26
REMARK    4  A    between atoms: C_23  and  O_28
REMARK                            x       y       z     vdW  Elec       q    Type
REMARK                         _______ _______ _______ _____ _____    ______ ____
ROOT
ATOM      1  N   UNL     1      32.800 -14.165 -24.402  0.00  0.00    -0.181 NA
ATOM      2  N   UNL     1      34.263 -15.944 -24.159  0.00  0.00    -0.273 NA
ATOM      3  N   UNL     1      35.074 -16.620 -21.995  0.00  0.00    -0.312 NA
ATOM      4  N   UNL     1      34.418 -15.508 -20.065  0.00  0.00    -0.332 N 
ATOM      5  N   UNL     1      35.745 -17.749 -23.932  0.00  0.00    -0.283 N 
ATOM      6  C   UNL     1      32.788 -13.730 -21.663  0.00  0.00    -0.006 C 
ATOM      7  C   UNL     1      33.550 -14.764 -22.228  0.00  0.00    +0.115 C 
ATOM      8  C   UNL     1      32.029 -12.914 -22.484  0.00  0.00    +0.017 C 
ATOM      9  C   UNL     1      33.538 -14.960 -23.615  0.00  0.00    +0.104 C 
ATOM     10  C   UNL     1      32.740 -13.445 -20.192  0.00  0.00    +0.032 C 
ATOM     11  C   UNL     1      34.339 -15.625 -21.470  0.00  0.00    +0.201 C 
ATOM     12  C   UNL     1      32.070 -13.172 -23.837  0.00  0.00    +0.110 C 
ATOM     13  C   UNL     1      34.990 -16.720 -23.329  0.00  0.00    +0.206 C 
ATOM     14  H   UNL     1      34.982 -16.129 -19.550  0.00  0.00    +0.145 HD
ATOM     15  H   UNL     1      33.910 -14.805 -19.600  0.00  0.00    +0.145 HD
ATOM     16  H   UNL     1      35.721 -17.869 -24.909  0.00  0.00    +0.156 HD
ATOM     17  H   UNL     1      36.295 -18.347 -23.377  0.00  0.00    +0.156 HD
ENDROOT
BRANCH   8  18
ATOM     18  C   UNL     1      31.209 -11.820 -21.988  0.00  0.00    +0.001 C 
ATOM     19  C   UNL     1      31.485 -10.504 -22.147  0.00  0.00    +0.003 C 
BRANCH  19  20
ATOM     20  C   UNL     1      32.662  -9.961 -22.850  0.00  0.00    +0.037 C 
ATOM     21  C   UNL     1      33.141  -8.697 -22.545  0.00  0.00    +0.139 C 
ATOM     22  C   UNL     1      33.271 -10.747 -23.817  0.00  0.00    +0.040 C 
ATOM     23  C   UNL     1      34.387 -10.255 -24.495  0.00  0.00    +0.139 C 
ATOM     24  C   UNL     1      34.256  -8.206 -23.224  0.00  0.00    +0.040 C 
ATOM     25  C   UNL     1      34.879  -8.985 -24.199  0.00  0.00    +0.040 C 
BRANCH  21  26
ATOM     26  O   UNL     1      32.552  -7.915 -21.596  0.00  0.00    -0.471 OA
ATOM     27  C   UNL     1      32.293  -6.557 -21.945  0.00  0.00    +0.252 C 
ENDBRANCH  21  26
BRANCH  23  28
ATOM     28  O   UNL     1      34.995 -11.016 -25.446  0.00  0.00    -0.471 OA
ATOM     29  C   UNL     1      35.765 -10.329 -26.432  0.00  0.00    +0.252 C 
ENDBRANCH  23  28
ENDBRANCH  19  20
ENDBRANCH   8  18
TORSDOF 4
ENDMDL
MODEL 4
REMARK VINA RESULT:      -8.6      1.227      2.510
REMARK  Name = 446753
REMARK  4 active torsions:
REMARK  status: ('A' for Active; 'I' for Inactive)
REMARK    1  A    between atoms: C_8  and  C_18
REMARK    2  A    between atoms: C_19  and  C_20
REMARK    3  A    between atoms: C_21  and  O_26
REMARK    4  A    between atoms: C_23  and  O_28
REMARK                            x       y       z     vdW  Elec       q    Type
REMARK                         _______ _______ _______ _____ _____    ______ ____
ROOT
ATOM      1  N   UNL     1      36.683 -22.081 -16.710  0.00  0.00    -0.181 NA
ATOM      2  N   UNL     1      36.866 -20.937 -18.715  0.00  0.00    -0.273 NA
ATOM      3  N   UNL     1      35.041 -20.851 -20.285  0.00  0.00    -0.312 NA
ATOM      4  N   UNL     1      33.027 -21.916 -19.845  0.00  0.00    -0.332 N 
ATOM      5  N   UNL     1      37.068 -19.772 -20.742  0.00  0.00    -0.283 N 
ATOM      6  C   UNL     1      34.083 -22.832 -17.311  0.00  0.00    -0.006 C 
ATOM      7  C   UNL     1      34.834 -22.048 -18.201  0.00  0.00    +0.115 C 
ATOM      8  C   UNL     1      34.647 -23.237 -16.114  0.00  0.00    +0.017 C 
ATOM      9  C   UNL     1      36.145 -21.684 -17.871  0.00  0.00    +0.104 C 
ATOM     10  C   UNL     1      32.674 -23.269 -17.579  0.00  0.00    +0.032 C 
ATOM     11  C   UNL     1      34.336 -21.602 -19.423  0.00  0.00    +0.201 C 
ATOM     12  C   UNL     1      35.942 -22.838 -15.864  0.00  0.00    +0.110 C 
ATOM     13  C   UNL     1      36.283 -20.559 -19.872  0.00  0.00    +0.206 C 
ATOM     14  H   UNL     1      32.697 -21.589 -20.712  0.00  0.00    +0.145 HD
ATOM     15  H   UNL     1      32.442 -22.463 -19.272  0.00  0.00    +0.145 HD
ATOM     16  H   UNL     1      37.988 -19.528 -20.491  0.00  0.00    +0.156 HD
ATOM     17  H   UNL     1      36.696 -19.467 -21.601  0.00  0.00    +0.156 HD
ENDROOT
BRANCH   8  18
ATOM     18  C   UNL     1      33.947 -24.050 -15.133  0.00  0.00    +0.001 C 
ATOM     19  C   UNL     1      34.538 -24.870 -14.233  0.00  0.00    +0.003 C 
BRANCH  19  20
ATOM     20  C   UNL     1      35.991 -25.076 -14.098  0.00  0.00    +0.037 C 
ATOM     21  C   UNL     1      36.647 -26.000 -14.897  0.00  0.00    +0.139 C 
ATOM     22  C   UNL     1      36.678 -24.324 -13.156  0.00  0.00    +0.040 C 
ATOM     23  C   UNL     1      38.054 -24.502 -13.011  0.00  0.00    +0.139 C 
ATOM     24  C   UNL     1      38.023 -26.176 -14.750  0.00  0.00    +0.040 C 
ATOM     25  C   UNL     1      38.727 -25.427 -13.807  0.00  0.00    +0.040 C 
BRANCH  21  26
ATOM     26  O   UNL     1      35.984 -26.745 -15.827  0.00  0.00    -0.471 OA
ATOM     27  C   UNL     1      36.751 -27.696 -16.560  0.00  0.00    +0.252 C 
ENDBRANCH  21  26
BRANCH  23  28
ATOM     28  O   UNL     1      38.741 -23.770 -12.091  0.00  0.00    -0.471 OA
ATOM     29  C   UNL     1      38.115 -22.582 -11.606  0.00  0.00    +0.252 C 
ENDBRANCH  23  28
ENDBRANCH  19  20
ENDBRANCH   8  18
TORSDOF 4
ENDMDL
MODEL 5
REMARK VINA RESULT:      -8.5      1.846      2.783
REMARK  Name = 446753
REMARK  4 active torsions:
REMARK  status: ('A' for Active; 'I' for Inactive)
REMARK    1  A    between atoms: C_8  and  C_18
REMARK    2  A    between atoms: C_19  and  C_20
REMARK    3  A    between atoms: C_21  and  O_26
REMARK    4  A    between atoms: C_23  and  O_28
REMARK                            x       y       z     vdW  Elec       q    Type
REMARK                         _______ _______ _______ _____ _____    ______ ____
ROOT
ATOM      1  N   UNL     1      35.699 -22.871 -15.850  0.00  0.00    -0.181 NA
ATOM      2  N   UNL     1      34.461 -22.529 -17.777  0.00  0.00    -0.273 NA
ATOM      3  N   UNL     1      32.090 -22.945 -17.840  0.00  0.00    -0.312 NA
ATOM      4  N   UNL     1      30.954 -23.707 -15.964  0.00  0.00    -0.332 N 
ATOM      5  N   UNL     1      33.223 -22.176 -19.738  0.00  0.00    -0.283 N 
ATOM      6  C   UNL     1      33.435 -23.692 -14.475  0.00  0.00    -0.006 C 
ATOM      7  C   UNL     1      33.363 -23.307 -15.823  0.00  0.00    +0.115 C 
ATOM      8  C   UNL     1      34.653 -23.662 -13.820  0.00  0.00    +0.017 C 
ATOM      9  C   UNL     1      34.523 -22.897 -16.492  0.00  0.00    +0.104 C 
ATOM     10  C   UNL     1      32.248 -24.144 -13.679  0.00  0.00    +0.032 C 
ATOM     11  C   UNL     1      32.175 -23.311 -16.550  0.00  0.00    +0.201 C 
ATOM     12  C   UNL     1      35.748 -23.247 -14.548  0.00  0.00    +0.110 C 
ATOM     13  C   UNL     1      33.256 -22.570 -18.383  0.00  0.00    +0.206 C 
ATOM     14  H   UNL     1      30.127 -23.701 -16.498  0.00  0.00    +0.145 HD
ATOM     15  H   UNL     1      30.928 -23.991 -15.022  0.00  0.00    +0.145 HD
ATOM     16  H   UNL     1      34.050 -21.892 -20.190  0.00  0.00    +0.156 HD
ATOM     17  H   UNL     1      32.371 -22.186 -20.233  0.00  0.00    +0.156 HD
ENDROOT
BRANCH   8  18
ATOM     18  C   UNL     1      34.823 -24.043 -12.427  0.00  0.00    +0.001 C 
ATOM     19  C   UNL     1      35.890 -24.708 -11.924  0.00  0.00    +0.003 C 
BRANCH  19  20
ATOM     20  C   UNL     1      37.056 -25.156 -12.704  0.00  0.00    +0.037 C 
ATOM     21  C   UNL     1      38.307 -24.603 -12.480  0.00  0.00    +0.139 C 
ATOM     22  C   UNL     1      36.868 -26.141 -13.663  0.00  0.00    +0.040 C 
ATOM     23  C   UNL     1      37.957 -26.582 -14.415  0.00  0.00    +0.139 C 
ATOM     24  C   UNL     1      39.396 -25.044 -13.232  0.00  0.00    +0.040 C 
ATOM     25  C   UNL     1      39.221 -26.034 -14.199  0.00  0.00    +0.040 C 
BRANCH  21  26
ATOM     26  O   UNL     1      38.507 -23.635 -11.540  0.00  0.00    -0.471 OA
ATOM     27  C   UNL     1      38.047 -22.323 -11.855  0.00  0.00    +0.252 C 
ENDBRANCH  21  26
BRANCH  23  28
ATOM     28  O   UNL     1      37.787 -27.548 -15.359  0.00  0.00    -0.471 OA
ATOM     29  C   UNL     1      36.620 -27.460 -16.175  0.00  0.00    +0.252 C 
ENDBRANCH  23  28
ENDBRANCH  19  20
ENDBRANCH   8  18
TORSDOF 4
ENDMDL
MODEL 6
REMARK VINA RESULT:      -8.4     10.522     14.285
REMARK  Name = 446753
REMARK  4 active torsions:
REMARK  status: ('A' for Active; 'I' for Inactive)
REMARK    1  A    between atoms: C_8  and  C_18
REMARK    2  A    between atoms: C_19  and  C_20
REMARK    3  A    between atoms: C_21  and  O_26
REMARK    4  A    between atoms: C_23  and  O_28
REMARK                            x       y       z     vdW  Elec       q    Type
REMARK                         _______ _______ _______ _____ _____    ______ ____
ROOT
ATOM      1  N   UNL     1      33.423 -15.134 -24.550  0.00  0.00    -0.181 NA
ATOM      2  N   UNL     1      34.650 -17.005 -23.955  0.00  0.00    -0.273 NA
ATOM      3  N   UNL     1      35.286 -17.418 -21.669  0.00  0.00    -0.312 NA
ATOM      4  N   UNL     1      34.690 -15.949 -19.973  0.00  0.00    -0.332 N 
ATOM      5  N   UNL     1      35.893 -18.907 -23.369  0.00  0.00    -0.283 N 
ATOM      6  C   UNL     1      33.353 -14.273 -21.915  0.00  0.00    -0.006 C 
ATOM      7  C   UNL     1      34.008 -15.462 -22.271  0.00  0.00    +0.115 C 
ATOM      8  C   UNL     1      32.732 -13.517 -22.894  0.00  0.00    +0.017 C 
ATOM      9  C   UNL     1      34.028 -15.872 -23.610  0.00  0.00    +0.104 C 
ATOM     10  C   UNL     1      33.280 -13.756 -20.510  0.00  0.00    +0.032 C 
ATOM     11  C   UNL     1      34.655 -16.276 -21.345  0.00  0.00    +0.201 C 
ATOM     12  C   UNL     1      32.796 -13.988 -24.187  0.00  0.00    +0.110 C 
ATOM     13  C   UNL     1      35.244 -17.718 -22.974  0.00  0.00    +0.206 C 
ATOM     14  H   UNL     1      35.154 -16.540 -19.337  0.00  0.00    +0.145 HD
ATOM     15  H   UNL     1      34.252 -15.128 -19.650  0.00  0.00    +0.145 HD
ATOM     16  H   UNL     1      35.895 -19.177 -24.316  0.00  0.00    +0.156 HD
ATOM     17  H   UNL     1      36.344 -19.468 -22.697  0.00  0.00    +0.156 HD
ENDROOT
BRANCH   8  18
ATOM     18  C   UNL     1      32.031 -12.272 -22.620  0.00  0.00    +0.001 C 
ATOM     19  C   UNL     1      32.329 -11.071 -23.167  0.00  0.00    +0.003 C 
BRANCH  19  20
ATOM     20  C   UNL     1      33.415 -10.824 -24.133  0.00  0.00    +0.037 C 
ATOM     21  C   UNL     1      34.308  -9.782 -23.936  0.00  0.00    +0.139 C 
ATOM     22  C   UNL     1      33.516 -11.658 -25.237  0.00  0.00    +0.040 C 
ATOM     23  C   UNL     1      34.535 -11.444 -26.165  0.00  0.00    +0.139 C 
ATOM     24  C   UNL     1      35.327  -9.570 -24.864  0.00  0.00    +0.040 C 
ATOM     25  C   UNL     1      35.441 -10.400 -25.979  0.00  0.00    +0.040 C 
BRANCH  21  26
ATOM     26  O   UNL     1      34.220  -8.956 -22.855  0.00  0.00    -0.471 OA
ATOM     27  C   UNL     1      34.400  -7.562 -23.089  0.00  0.00    +0.252 C 
ENDBRANCH  21  26
BRANCH  23  28
ATOM     28  O   UNL     1      34.647 -12.255 -27.253  0.00  0.00    -0.471 OA
ATOM     29  C   UNL     1      33.594 -13.193 -27.475  0.00  0.00    +0.252 C 
ENDBRANCH  23  28
ENDBRANCH  19  20
ENDBRANCH   8  18
TORSDOF 4
ENDMDL
MODEL 7
REMARK VINA RESULT:      -8.3      5.956      9.374
REMARK  Name = 446753
REMARK  4 active torsions:
REMARK  status: ('A' for Active; 'I' for Inactive)
REMARK    1  A    between atoms: C_8  and  C_18
REMARK    2  A    between atoms: C_19  and  C_20
REMARK    3  A    between atoms: C_21  and  O_26
REMARK    4  A    between atoms: C_23  and  O_28
REMARK                            x       y       z     vdW  Elec       q    Type
REMARK                         _______ _______ _______ _____ _____    ______ ____
ROOT
ATOM      1  N   UNL     1      34.512 -15.538 -20.542  0.00  0.00    -0.181 NA
ATOM      2  N   UNL     1      33.030 -13.951 -21.349  0.00  0.00    -0.273 NA
ATOM      3  N   UNL     1      32.478 -13.821 -23.689  0.00  0.00    -0.312 NA
ATOM      4  N   UNL     1      33.414 -15.286 -25.228  0.00  0.00    -0.332 N 
ATOM      5  N   UNL     1      31.526 -12.338 -22.149  0.00  0.00    -0.283 N 
ATOM      6  C   UNL     1      34.889 -16.563 -23.091  0.00  0.00    -0.006 C 
ATOM      7  C   UNL     1      34.024 -15.481 -22.866  0.00  0.00    +0.115 C 
ATOM      8  C   UNL     1      35.564 -17.129 -22.024  0.00  0.00    +0.017 C 
ATOM      9  C   UNL     1      33.854 -14.983 -21.568  0.00  0.00    +0.104 C 
ATOM     10  C   UNL     1      35.133 -17.161 -24.443  0.00  0.00    +0.032 C 
ATOM     11  C   UNL     1      33.310 -14.858 -23.887  0.00  0.00    +0.201 C 
ATOM     12  C   UNL     1      35.343 -16.583 -20.779  0.00  0.00    +0.110 C 
ATOM     13  C   UNL     1      32.387 -13.425 -22.412  0.00  0.00    +0.206 C 
ATOM     14  H   UNL     1      32.899 -14.830 -25.932  0.00  0.00    +0.145 HD
ATOM     15  H   UNL     1      34.003 -16.040 -25.460  0.00  0.00    +0.145 HD
ATOM     16  H   UNL     1      31.422 -12.004 -21.228  0.00  0.00    +0.156 HD
ATOM     17  H   UNL     1      31.030 -11.912 -22.886  0.00  0.00    +0.156 HD
ENDROOT
BRANCH   8  18
ATOM     18  C   UNL     1      36.479 -18.252 -22.161  0.00  0.00    +0.001 C 
ATOM     19  C   UNL     1      36.258 -19.501 -21.690  0.00  0.00    +0.003 C 
BRANCH  19  20
ATOM     20  C   UNL     1      35.052 -19.933 -20.960  0.00  0.00    +0.037 C 
ATOM     21  C   UNL     1      35.109 -20.999 -20.077  0.00  0.00    +0.139 C 
ATOM     22  C   UNL     1      33.867 -19.245 -21.182  0.00  0.00    +0.040 C 
ATOM     23  C   UNL     1      32.713 -19.635 -20.503  0.00  0.00    +0.139 C 
ATOM     24  C   UNL     1      33.954 -21.388 -19.398  0.00  0.00    +0.040 C 
ATOM     25  C   UNL     1      32.756 -20.706 -19.611  0.00  0.00    +0.040 C 
BRANCH  21  26
ATOM     26  O   UNL     1      36.266 -21.683 -19.849  0.00  0.00    -0.471 OA
ATOM     27  C   UNL     1      36.727 -21.744 -18.502  0.00  0.00    +0.252 C 
ENDBRANCH  21  26
BRANCH  23  28
ATOM     28  O   UNL     1      31.543 -18.969 -20.710  0.00  0.00    -0.471 OA
ATOM     29  C   UNL     1      31.605 -17.543 -20.739  0.00  0.00    +0.252 C 
ENDBRANCH  23  28
ENDBRANCH  19  20
ENDBRANCH   8  18
TORSDOF 4
ENDMDL
MODEL 8
REMARK VINA RESULT:      -8.3     14.660     16.871
REMARK  Name = 446753
REMARK  4 active torsions:
REMARK  status: ('A' for Active; 'I' for Inactive)
REMARK    1  A    between atoms: C_8  and  C_18
REMARK    2  A    between atoms: C_19  and  C_20
REMARK    3  A    between atoms: C_21  and  O_26
REMARK    4  A    between atoms: C_23  and  O_28
REMARK                            x       y       z     vdW  Elec       q    Type
REMARK                         _______ _______ _______ _____ _____    ______ ____
ROOT
ATOM      1  N   UNL     1      30.736  -8.348 -23.601  0.00  0.00    -0.181 NA
ATOM      2  N   UNL     1      30.993  -6.114 -23.047  0.00  0.00    -0.273 NA
ATOM      3  N   UNL     1      31.991  -5.442 -20.961  0.00  0.00    -0.312 NA
ATOM      4  N   UNL     1      32.733  -7.014 -19.422  0.00  0.00    -0.332 N 
ATOM      5  N   UNL     1      31.247  -3.846 -22.503  0.00  0.00    -0.283 N 
ATOM      6  C   UNL     1      31.887  -9.132 -21.203  0.00  0.00    -0.006 C 
ATOM      7  C   UNL     1      31.730  -7.774 -21.521  0.00  0.00    +0.115 C 
ATOM      8  C   UNL     1      31.461 -10.097 -22.099  0.00  0.00    +0.017 C 
ATOM      9  C   UNL     1      31.145  -7.408 -22.739  0.00  0.00    +0.104 C 
ATOM     10  C   UNL     1      32.501  -9.618 -19.925  0.00  0.00    +0.032 C 
ATOM     11  C   UNL     1      32.133  -6.746 -20.671  0.00  0.00    +0.201 C 
ATOM     12  C   UNL     1      30.896  -9.655 -23.276  0.00  0.00    +0.110 C 
ATOM     13  C   UNL     1      31.421  -5.201 -22.150  0.00  0.00    +0.206 C 
ATOM     14  H   UNL     1      33.010  -6.271 -18.839  0.00  0.00    +0.145 HD
ATOM     15  H   UNL     1      32.874  -7.944 -19.133  0.00  0.00    +0.145 HD
ATOM     16  H   UNL     1      30.833  -3.610 -23.365  0.00  0.00    +0.156 HD
ATOM     17  H   UNL     1      31.540  -3.135 -21.887  0.00  0.00    +0.156 HD
ENDROOT
BRANCH   8  18
ATOM     18  C   UNL     1      31.582 -11.525 -21.856  0.00  0.00    +0.001 C 
ATOM     19  C   UNL     1      32.346 -12.378 -22.577  0.00  0.00    +0.003 C 
BRANCH  19  20
ATOM     20  C   UNL     1      33.184 -12.001 -23.730  0.00  0.00    +0.037 C 
ATOM     21  C   UNL     1      33.298 -12.845 -24.823  0.00  0.00    +0.139 C 
ATOM     22  C   UNL     1      33.850 -10.784 -23.689  0.00  0.00    +0.040 C 
ATOM     23  C   UNL     1      34.648 -10.405 -24.769  0.00  0.00    +0.139 C 
ATOM     24  C   UNL     1      34.096 -12.465 -25.902  0.00  0.00    +0.040 C 
ATOM     25  C   UNL     1      34.772 -11.245 -25.875  0.00  0.00    +0.040 C 
BRANCH  21  26
ATOM     26  O   UNL     1      32.648 -14.043 -24.876  0.00  0.00    -0.471 OA
ATOM     27  C   UNL     1      33.032 -14.942 -25.913  0.00  0.00    +0.252 C 
ENDBRANCH  21  26
BRANCH  23  28
ATOM     28  O   UNL     1      35.307  -9.214 -24.743  0.00  0.00    -0.471 OA
ATOM     29  C   UNL     1      34.729  -8.169 -23.961  0.00  0.00    +0.252 C 
ENDBRANCH  23  28
ENDBRANCH  19  20
ENDBRANCH   8  18
TORSDOF 4
ENDMDL
MODEL 9
REMARK VINA RESULT:      -8.3      6.101     10.572
REMARK  Name = 446753
REMARK  4 active torsions:
REMARK  status: ('A' for Active; 'I' for Inactive)
REMARK    1  A    between atoms: C_8  and  C_18
REMARK    2  A    between atoms: C_19  and  C_20
REMARK    3  A    between atoms: C_21  and  O_26
REMARK    4  A    between atoms: C_23  and  O_28
REMARK                            x       y       z     vdW  Elec       q    Type
REMARK                         _______ _______ _______ _____ _____    ______ ____
ROOT
ATOM      1  N   UNL     1      33.119 -19.737 -21.496  0.00  0.00    -0.181 NA
ATOM      2  N   UNL     1      32.657 -21.162 -19.730  0.00  0.00    -0.273 NA
ATOM      3  N   UNL     1      34.411 -22.057 -18.344  0.00  0.00    -0.312 NA
ATOM      4  N   UNL     1      36.637 -21.524 -18.730  0.00  0.00    -0.332 N 
ATOM      5  N   UNL     1      32.170 -22.603 -17.943  0.00  0.00    -0.283 N 
ATOM      6  C   UNL     1      35.837 -19.869 -20.964  0.00  0.00    -0.006 C 
ATOM      7  C   UNL     1      34.911 -20.575 -20.181  0.00  0.00    +0.115 C 
ATOM      8  C   UNL     1      35.388 -19.093 -22.019  0.00  0.00    +0.017 C 
ATOM      9  C   UNL     1      33.544 -20.490 -20.473  0.00  0.00    +0.104 C 
ATOM     10  C   UNL     1      37.316 -19.899 -20.726  0.00  0.00    +0.032 C 
ATOM     11  C   UNL     1      35.284 -21.375 -19.104  0.00  0.00    +0.201 C 
ATOM     12  C   UNL     1      34.028 -19.063 -22.242  0.00  0.00    +0.110 C 
ATOM     13  C   UNL     1      33.130 -21.906 -18.709  0.00  0.00    +0.206 C 
ATOM     14  H   UNL     1      36.877 -22.095 -17.965  0.00  0.00    +0.145 HD
ATOM     15  H   UNL     1      37.342 -21.058 -19.235  0.00  0.00    +0.145 HD
ATOM     16  H   UNL     1      31.214 -22.530 -18.167  0.00  0.00    +0.156 HD
ATOM     17  H   UNL     1      32.457 -23.163 -17.185  0.00  0.00    +0.156 HD
ENDROOT
BRANCH   8  18
ATOM     18  C   UNL     1      36.272 -18.329 -22.883  0.00  0.00    +0.001 C 
ATOM     19  C   UNL     1      36.048 -17.062 -23.305  0.00  0.00    +0.003 C 
BRANCH  19  20
ATOM     20  C   UNL     1      34.870 -16.247 -22.958  0.00  0.00    +0.037 C 
ATOM     21  C   UNL     1      34.025 -15.774 -23.950  0.00  0.00    +0.139 C 
ATOM     22  C   UNL     1      34.633 -15.970 -21.619  0.00  0.00    +0.040 C 
ATOM     23  C   UNL     1      33.524 -15.200 -21.266  0.00  0.00    +0.139 C 
ATOM     24  C   UNL     1      32.916 -15.006 -23.596  0.00  0.00    +0.040 C 
ATOM     25  C   UNL     1      32.665 -14.718 -22.254  0.00  0.00    +0.040 C 
BRANCH  21  26
ATOM     26  O   UNL     1      34.246 -16.040 -25.269  0.00  0.00    -0.471 OA
ATOM     27  C   UNL     1      33.325 -15.485 -26.205  0.00  0.00    +0.252 C 
ENDBRANCH  21  26
BRANCH  23  28
ATOM     28  O   UNL     1      33.278 -14.921 -19.957  0.00  0.00    -0.471 OA
ATOM     29  C   UNL     1      32.392 -13.837 -19.679  0.00  0.00    +0.252 C 
ENDBRANCH  23  28
ENDBRANCH  19  20
ENDBRANCH   8  18
TORSDOF 4
ENDMDL
