MODEL 1
REMARK VINA RESULT:      -8.4      0.000      0.000
REMARK  Name = 3086576
REMARK  3 active torsions:
REMARK  status: ('A' for Active; 'I' for Inactive)
REMARK    1  A    between atoms: C_4  and  N_16
REMARK    2  A    between atoms: C_5  and  O_22
REMARK    3  A    between atoms: N_16  and  C_19
REMARK                            x       y       z     vdW  Elec       q    Type
REMARK                         _______ _______ _______ _____ _____    ______ ____
ROOT
ATOM      1  O   UNL     1      32.100 -12.826 -20.892  0.00  0.00    -0.247 OA
ATOM      2  N   UNL     1      33.289 -14.669 -21.831  0.00  0.00    -0.280 N 
ATOM      3  N   UNL     1      32.206 -13.220 -23.208  0.00  0.00    -0.305 N 
ATOM      4  C   UNL     1      34.741 -17.480 -21.502  0.00  0.00    -0.028 C 
ATOM      5  C   UNL     1      35.036 -17.165 -22.972  0.00  0.00    +0.115 C 
ATOM      6  C   UNL     1      34.823 -16.254 -20.586  0.00  0.00    +0.006 C 
ATOM      7  C   UNL     1      33.600 -15.354 -20.605  0.00  0.00    +0.109 C 
ATOM      8  C   UNL     1      34.145 -16.199 -23.702  0.00  0.00    +0.020 C 
ATOM      9  C   UNL     1      33.466 -15.122 -23.155  0.00  0.00    +0.078 A 
ATOM     10  C   UNL     1      32.785 -14.219 -23.987  0.00  0.00    +0.076 A 
ATOM     11  C   UNL     1      32.489 -13.480 -21.849  0.00  0.00    +0.328 A 
ATOM     12  C   UNL     1      34.076 -16.329 -25.112  0.00  0.00    -0.000 C 
ATOM     13  C   UNL     1      32.713 -14.339 -25.358  0.00  0.00    +0.019 C 
ATOM     14  C   UNL     1      33.370 -15.423 -25.924  0.00  0.00    +0.001 C 
ATOM     15  H   UNL     1      31.686 -12.457 -23.549  0.00  0.00    +0.170 HD
ENDROOT
BRANCH   4  16
ATOM     16  N   UNL     1      33.478 -18.204 -21.360  0.00  0.00    +0.388 N 
ATOM     17  H   UNL     1      32.892 -18.016 -22.174  0.00  0.00    -0.084 HD
ATOM     18  H   UNL     1      33.013 -17.888 -20.509  0.00  0.00    -0.084 HD
BRANCH  16  19
ATOM     19  C   UNL     1      33.713 -19.635 -21.261  0.00  0.00    -0.062 C 
ATOM     20  C   UNL     1      32.775 -20.256 -20.230  0.00  0.00    -0.023 C 
ATOM     21  C   UNL     1      35.173 -19.886 -20.894  0.00  0.00    -0.023 C 
ENDBRANCH  16  19
ENDBRANCH   4  16
BRANCH   5  22
ATOM     22  O   UNL     1      36.371 -16.655 -23.087  0.00  0.00    -0.382 OA
ATOM     23  H   UNL     1      36.892 -16.938 -22.319  0.00  0.00    +0.211 HD
ENDBRANCH   5  22
TORSDOF 3
ENDMDL
MODEL 2
REMARK VINA RESULT:      -8.0      5.273      9.016
REMARK  Name = 3086576
REMARK  3 active torsions:
REMARK  status: ('A' for Active; 'I' for Inactive)
REMARK    1  A    between atoms: C_4  and  N_16
REMARK    2  A    between atoms: C_5  and  O_22
REMARK    3  A    between atoms: N_16  and  C_19
REMARK                            x       y       z     vdW  Elec       q    Type
REMARK                         _______ _______ _______ _____ _____    ______ ____
ROOT
ATOM      1  O   UNL     1      34.885 -10.774 -25.377  0.00  0.00    -0.247 OA
ATOM      2  N   UNL     1      33.641  -9.768 -23.607  0.00  0.00    -0.280 N 
ATOM      3  N   UNL     1      33.556 -12.021 -23.890  0.00  0.00    -0.305 N 
ATOM      4  C   UNL     1      32.397  -7.190 -22.217  0.00  0.00    -0.028 C 
ATOM      5  C   UNL     1      32.083  -8.269 -21.175  0.00  0.00    +0.115 C 
ATOM      6  C   UNL     1      33.777  -7.350 -22.865  0.00  0.00    +0.006 C 
ATOM      7  C   UNL     1      33.855  -8.392 -23.967  0.00  0.00    +0.109 C 
ATOM      8  C   UNL     1      32.034  -9.707 -21.609  0.00  0.00    +0.020 C 
ATOM      9  C   UNL     1      32.768 -10.290 -22.630  0.00  0.00    +0.078 A 
ATOM     10  C   UNL     1      32.725 -11.680 -22.826  0.00  0.00    +0.076 A 
ATOM     11  C   UNL     1      34.134 -10.844 -24.413  0.00  0.00    +0.328 A 
ATOM     12  C   UNL     1      31.244 -10.587 -20.827  0.00  0.00    -0.000 C 
ATOM     13  C   UNL     1      31.959 -12.541 -22.071  0.00  0.00    +0.019 C 
ATOM     14  C   UNL     1      31.200 -11.974 -21.056  0.00  0.00    +0.001 C 
ATOM     15  H   UNL     1      33.716 -12.935 -24.223  0.00  0.00    +0.170 HD
ENDROOT
BRANCH   4  16
ATOM     16  N   UNL     1      31.323  -7.081 -23.204  0.00  0.00    +0.388 N 
ATOM     17  H   UNL     1      30.592  -7.754 -22.978  0.00  0.00    -0.084 HD
ATOM     18  H   UNL     1      31.707  -7.273 -24.129  0.00  0.00    -0.084 HD
BRANCH  16  19
ATOM     19  C   UNL     1      30.758  -5.741 -23.202  0.00  0.00    -0.062 C 
ATOM     20  C   UNL     1      31.582  -4.817 -24.095  0.00  0.00    -0.023 C 
ATOM     21  C   UNL     1      30.702  -5.215 -21.771  0.00  0.00    -0.023 C 
ENDBRANCH  16  19
ENDBRANCH   4  16
BRANCH   5  22
ATOM     22  O   UNL     1      33.045  -8.195 -20.115  0.00  0.00    -0.382 OA
ATOM     23  H   UNL     1      32.808  -7.473 -19.513  0.00  0.00    +0.211 HD
ENDBRANCH   5  22
TORSDOF 3
ENDMDL
MODEL 3
REMARK VINA RESULT:      -7.9      8.462     10.604
REMARK  Name = 3086576
REMARK  3 active torsions:
REMARK  status: ('A' for Active; 'I' for Inactive)
REMARK    1  A    between atoms: C_4  and  N_16
REMARK    2  A    between atoms: C_5  and  O_22
REMARK    3  A    between atoms: N_16  and  C_19
REMARK                            x       y       z     vdW  Elec       q    Type
REMARK                         _______ _______ _______ _____ _____    ______ ____
ROOT
ATOM      1  O   UNL     1      32.576 -24.052 -13.332  0.00  0.00    -0.247 OA
ATOM      2  N   UNL     1      34.438 -23.437 -14.692  0.00  0.00    -0.280 N 
ATOM      3  N   UNL     1      32.350 -23.432 -15.590  0.00  0.00    -0.305 N 
ATOM      4  C   UNL     1      37.577 -23.331 -15.199  0.00  0.00    -0.028 C 
ATOM      5  C   UNL     1      37.057 -22.522 -16.393  0.00  0.00    +0.115 C 
ATOM      6  C   UNL     1      36.813 -23.059 -13.898  0.00  0.00    +0.006 C 
ATOM      7  C   UNL     1      35.485 -23.784 -13.768  0.00  0.00    +0.109 C 
ATOM      8  C   UNL     1      35.637 -22.722 -16.843  0.00  0.00    +0.020 C 
ATOM      9  C   UNL     1      34.555 -23.068 -16.048  0.00  0.00    +0.078 A 
ATOM     10  C   UNL     1      33.258 -23.077 -16.585  0.00  0.00    +0.076 A 
ATOM     11  C   UNL     1      33.058 -23.680 -14.394  0.00  0.00    +0.328 A 
ATOM     12  C   UNL     1      35.344 -22.420 -18.197  0.00  0.00    -0.000 C 
ATOM     13  C   UNL     1      32.966 -22.786 -17.899  0.00  0.00    +0.019 C 
ATOM     14  C   UNL     1      34.038 -22.457 -18.718  0.00  0.00    +0.001 C 
ATOM     15  H   UNL     1      31.374 -23.499 -15.702  0.00  0.00    +0.170 HD
ENDROOT
BRANCH   4  16
ATOM     16  N   UNL     1      37.652 -24.756 -15.519  0.00  0.00    +0.388 N 
ATOM     17  H   UNL     1      38.123 -24.872 -16.416  0.00  0.00    -0.084 HD
ATOM     18  H   UNL     1      36.706 -25.132 -15.565  0.00  0.00    -0.084 HD
BRANCH  16  19
ATOM     19  C   UNL     1      38.392 -25.475 -14.494  0.00  0.00    -0.062 C 
ATOM     20  C   UNL     1      39.870 -25.552 -14.864  0.00  0.00    -0.023 C 
ATOM     21  C   UNL     1      37.796 -26.869 -14.321  0.00  0.00    -0.023 C 
ENDBRANCH  16  19
ENDBRANCH   4  16
BRANCH   5  22
ATOM     22  O   UNL     1      37.203 -21.124 -16.115  0.00  0.00    -0.382 OA
ATOM     23  H   UNL     1      37.993 -20.983 -15.570  0.00  0.00    +0.211 HD
ENDBRANCH   5  22
TORSDOF 3
ENDMDL
MODEL 4
REMARK VINA RESULT:      -7.8      7.618      9.895
REMARK  Name = 3086576
REMARK  3 active torsions:
REMARK  status: ('A' for Active; 'I' for Inactive)
REMARK    1  A    between atoms: C_4  and  N_16
REMARK    2  A    between atoms: C_5  and  O_22
REMARK    3  A    between atoms: N_16  and  C_19
REMARK                            x       y       z     vdW  Elec       q    Type
REMARK                         _______ _______ _______ _____ _____    ______ ____
ROOT
ATOM      1  O   UNL     1      31.588 -23.746 -16.108  0.00  0.00    -0.247 OA
ATOM      2  N   UNL     1      33.925 -23.271 -16.170  0.00  0.00    -0.280 N 
ATOM      3  N   UNL     1      32.632 -22.746 -17.963  0.00  0.00    -0.305 N 
ATOM      4  C   UNL     1      36.857 -23.656 -14.997  0.00  0.00    -0.028 C 
ATOM      5  C   UNL     1      37.105 -22.588 -16.068  0.00  0.00    +0.115 C 
ATOM      6  C   UNL     1      35.544 -23.461 -14.231  0.00  0.00    +0.006 C 
ATOM      7  C   UNL     1      34.299 -23.943 -14.954  0.00  0.00    +0.109 C 
ATOM      8  C   UNL     1      36.126 -22.453 -17.201  0.00  0.00    +0.020 C 
ATOM      9  C   UNL     1      34.766 -22.719 -17.158  0.00  0.00    +0.078 A 
ATOM     10  C   UNL     1      33.950 -22.408 -18.258  0.00  0.00    +0.076 A 
ATOM     11  C   UNL     1      32.582 -23.304 -16.668  0.00  0.00    +0.328 A 
ATOM     12  C   UNL     1      36.615 -21.892 -18.408  0.00  0.00    -0.000 C 
ATOM     13  C   UNL     1      34.418 -21.863 -19.434  0.00  0.00    +0.019 C 
ATOM     14  C   UNL     1      35.781 -21.609 -19.505  0.00  0.00    +0.001 C 
ATOM     15  H   UNL     1      31.860 -22.615 -18.561  0.00  0.00    +0.170 HD
ENDROOT
BRANCH   4  16
ATOM     16  N   UNL     1      36.987 -25.002 -15.554  0.00  0.00    +0.388 N 
ATOM     17  H   UNL     1      37.345 -24.936 -16.507  0.00  0.00    -0.084 HD
ATOM     18  H   UNL     1      36.070 -25.448 -15.550  0.00  0.00    -0.084 HD
BRANCH  16  19
ATOM     19  C   UNL     1      37.901 -25.803 -14.755  0.00  0.00    -0.062 C 
ATOM     20  C   UNL     1      37.128 -26.853 -13.961  0.00  0.00    -0.023 C 
ATOM     21  C   UNL     1      38.697 -24.891 -13.826  0.00  0.00    -0.023 C 
ENDBRANCH  16  19
ENDBRANCH   4  16
BRANCH   5  22
ATOM     22  O   UNL     1      37.182 -21.301 -15.441  0.00  0.00    -0.382 OA
ATOM     23  H   UNL     1      37.079 -21.402 -14.482  0.00  0.00    +0.211 HD
ENDBRANCH   5  22
TORSDOF 3
ENDMDL
MODEL 5
REMARK VINA RESULT:      -7.6      8.636     11.148
REMARK  Name = 3086576
REMARK  3 active torsions:
REMARK  status: ('A' for Active; 'I' for Inactive)
REMARK    1  A    between atoms: C_4  and  N_16
REMARK    2  A    between atoms: C_5  and  O_22
REMARK    3  A    between atoms: N_16  and  C_19
REMARK                            x       y       z     vdW  Elec       q    Type
REMARK                         _______ _______ _______ _____ _____    ______ ____
ROOT
ATOM      1  O   UNL     1      34.418 -22.981 -18.848  0.00  0.00    -0.247 OA
ATOM      2  N   UNL     1      33.701 -23.569 -16.650  0.00  0.00    -0.280 N 
ATOM      3  N   UNL     1      32.257 -22.511 -18.049  0.00  0.00    -0.305 N 
ATOM      4  C   UNL     1      34.365 -24.500 -13.681  0.00  0.00    -0.028 C 
ATOM      5  C   UNL     1      32.833 -24.527 -13.664  0.00  0.00    +0.115 C 
ATOM      6  C   UNL     1      34.970 -25.006 -14.995  0.00  0.00    +0.006 C 
ATOM      7  C   UNL     1      34.973 -24.001 -16.133  0.00  0.00    +0.109 C 
ATOM      8  C   UNL     1      32.080 -23.699 -14.668  0.00  0.00    +0.020 C 
ATOM      9  C   UNL     1      32.494 -23.369 -15.949  0.00  0.00    +0.078 A 
ATOM     10  C   UNL     1      31.620 -22.710 -16.827  0.00  0.00    +0.076 A 
ATOM     11  C   UNL     1      33.569 -23.024 -17.968  0.00  0.00    +0.328 A 
ATOM     12  C   UNL     1      30.763 -23.306 -14.318  0.00  0.00    -0.000 C 
ATOM     13  C   UNL     1      30.339 -22.324 -16.494  0.00  0.00    +0.019 C 
ATOM     14  C   UNL     1      29.912 -22.627 -15.208  0.00  0.00    +0.001 C 
ATOM     15  H   UNL     1      31.857 -22.083 -18.841  0.00  0.00    +0.170 HD
ENDROOT
BRANCH   4  16
ATOM     16  N   UNL     1      34.874 -23.183 -13.299  0.00  0.00    +0.388 N 
ATOM     17  H   UNL     1      34.108 -22.626 -12.920  0.00  0.00    -0.084 HD
ATOM     18  H   UNL     1      35.266 -22.731 -14.125  0.00  0.00    -0.084 HD
BRANCH  16  19
ATOM     19  C   UNL     1      35.918 -23.307 -12.295  0.00  0.00    -0.062 C 
ATOM     20  C   UNL     1      37.293 -23.310 -12.957  0.00  0.00    -0.023 C 
ATOM     21  C   UNL     1      35.697 -24.582 -11.486  0.00  0.00    -0.023 C 
ENDBRANCH  16  19
ENDBRANCH   4  16
BRANCH   5  22
ATOM     22  O   UNL     1      32.383 -25.878 -13.830  0.00  0.00    -0.382 OA
ATOM     23  H   UNL     1      31.773 -26.105 -13.112  0.00  0.00    +0.211 HD
ENDBRANCH   5  22
TORSDOF 3
ENDMDL
MODEL 6
REMARK VINA RESULT:      -7.5      2.460      5.487
REMARK  Name = 3086576
REMARK  3 active torsions:
REMARK  status: ('A' for Active; 'I' for Inactive)
REMARK    1  A    between atoms: C_4  and  N_16
REMARK    2  A    between atoms: C_5  and  O_22
REMARK    3  A    between atoms: N_16  and  C_19
REMARK                            x       y       z     vdW  Elec       q    Type
REMARK                         _______ _______ _______ _____ _____    ______ ____
ROOT
ATOM      1  O   UNL     1      32.658 -14.850 -19.957  0.00  0.00    -0.247 OA
ATOM      2  N   UNL     1      33.036 -14.655 -22.305  0.00  0.00    -0.280 N 
ATOM      3  N   UNL     1      33.803 -16.487 -21.199  0.00  0.00    -0.305 N 
ATOM      4  C   UNL     1      33.096 -12.904 -24.961  0.00  0.00    -0.028 C 
ATOM      5  C   UNL     1      33.385 -14.301 -25.521  0.00  0.00    +0.115 C 
ATOM      6  C   UNL     1      32.049 -12.899 -23.841  0.00  0.00    +0.006 C 
ATOM      7  C   UNL     1      32.568 -13.305 -22.473  0.00  0.00    +0.109 C 
ATOM      8  C   UNL     1      33.940 -15.353 -24.601  0.00  0.00    +0.020 C 
ATOM      9  C   UNL     1      33.708 -15.470 -23.240  0.00  0.00    +0.078 A 
ATOM     10  C   UNL     1      34.179 -16.590 -22.536  0.00  0.00    +0.076 A 
ATOM     11  C   UNL     1      33.098 -15.277 -21.016  0.00  0.00    +0.328 A 
ATOM     12  C   UNL     1      34.687 -16.399 -25.199  0.00  0.00    -0.000 C 
ATOM     13  C   UNL     1      34.905 -17.611 -23.110  0.00  0.00    +0.019 C 
ATOM     14  C   UNL     1      35.166 -17.502 -24.469  0.00  0.00    +0.001 C 
ATOM     15  H   UNL     1      33.996 -17.149 -20.497  0.00  0.00    +0.170 HD
ENDROOT
BRANCH   4  16
ATOM     16  N   UNL     1      34.332 -12.223 -24.577  0.00  0.00    +0.388 N 
ATOM     17  H   UNL     1      35.126 -12.718 -24.983  0.00  0.00    -0.084 HD
ATOM     18  H   UNL     1      34.401 -12.218 -23.560  0.00  0.00    -0.084 HD
BRANCH  16  19
ATOM     19  C   UNL     1      34.331 -10.848 -25.052  0.00  0.00    -0.062 C 
ATOM     20  C   UNL     1      35.527 -10.604 -25.967  0.00  0.00    -0.023 C 
ATOM     21  C   UNL     1      34.350  -9.898 -23.859  0.00  0.00    -0.023 C 
ENDBRANCH  16  19
ENDBRANCH   4  16
BRANCH   5  22
ATOM     22  O   UNL     1      32.182 -14.843 -26.080  0.00  0.00    -0.382 OA
ATOM     23  H   UNL     1      31.463 -14.198 -25.988  0.00  0.00    +0.211 HD
ENDBRANCH   5  22
TORSDOF 3
ENDMDL
MODEL 7
REMARK VINA RESULT:      -7.3      9.264     12.817
REMARK  Name = 3086576
REMARK  3 active torsions:
REMARK  status: ('A' for Active; 'I' for Inactive)
REMARK    1  A    between atoms: C_4  and  N_16
REMARK    2  A    between atoms: C_5  and  O_22
REMARK    3  A    between atoms: N_16  and  C_19
REMARK                            x       y       z     vdW  Elec       q    Type
REMARK                         _______ _______ _______ _____ _____    ______ ____
ROOT
ATOM      1  O   UNL     1      36.851 -22.889 -10.541  0.00  0.00    -0.247 OA
ATOM      2  N   UNL     1      36.593 -23.986 -12.644  0.00  0.00    -0.280 N 
ATOM      3  N   UNL     1      38.642 -23.922 -11.662  0.00  0.00    -0.305 N 
ATOM      4  C   UNL     1      34.892 -24.568 -15.270  0.00  0.00    -0.028 C 
ATOM      5  C   UNL     1      36.068 -25.534 -15.457  0.00  0.00    +0.115 C 
ATOM      6  C   UNL     1      34.404 -24.476 -13.820  0.00  0.00    +0.006 C 
ATOM      7  C   UNL     1      35.237 -23.587 -12.914  0.00  0.00    +0.109 C 
ATOM      8  C   UNL     1      37.357 -25.261 -14.734  0.00  0.00    +0.020 C 
ATOM      9  C   UNL     1      37.502 -24.634 -13.506  0.00  0.00    +0.078 A 
ATOM     10  C   UNL     1      38.760 -24.578 -12.885  0.00  0.00    +0.076 A 
ATOM     11  C   UNL     1      37.299 -23.523 -11.487  0.00  0.00    +0.328 A 
ATOM     12  C   UNL     1      38.540 -25.794 -15.306  0.00  0.00    -0.000 C 
ATOM     13  C   UNL     1      39.914 -25.093 -13.435  0.00  0.00    +0.019 C 
ATOM     14  C   UNL     1      39.794 -25.707 -14.674  0.00  0.00    +0.001 C 
ATOM     15  H   UNL     1      39.375 -23.763 -11.024  0.00  0.00    +0.170 HD
ENDROOT
BRANCH   4  16
ATOM     16  N   UNL     1      35.189 -23.257 -15.846  0.00  0.00    +0.388 N 
ATOM     17  H   UNL     1      36.198 -23.104 -15.826  0.00  0.00    -0.084 HD
ATOM     18  H   UNL     1      34.711 -22.542 -15.299  0.00  0.00    -0.084 HD
BRANCH  16  19
ATOM     19  C   UNL     1      34.722 -23.183 -17.221  0.00  0.00    -0.062 C 
ATOM     20  C   UNL     1      35.422 -22.044 -17.957  0.00  0.00    -0.023 C 
ATOM     21  C   UNL     1      33.208 -22.996 -17.234  0.00  0.00    -0.023 C 
ENDBRANCH  16  19
ENDBRANCH   4  16
BRANCH   5  22
ATOM     22  O   UNL     1      35.659 -26.854 -15.077  0.00  0.00    -0.382 OA
ATOM     23  H   UNL     1      36.443 -27.401 -14.914  0.00  0.00    +0.211 HD
ENDBRANCH   5  22
TORSDOF 3
ENDMDL
MODEL 8
REMARK VINA RESULT:      -7.3      3.584      5.982
REMARK  Name = 3086576
REMARK  3 active torsions:
REMARK  status: ('A' for Active; 'I' for Inactive)
REMARK    1  A    between atoms: C_4  and  N_16
REMARK    2  A    between atoms: C_5  and  O_22
REMARK    3  A    between atoms: N_16  and  C_19
REMARK                            x       y       z     vdW  Elec       q    Type
REMARK                         _______ _______ _______ _____ _____    ______ ____
ROOT
ATOM      1  O   UNL     1      35.294 -10.738 -25.710  0.00  0.00    -0.247 OA
ATOM      2  N   UNL     1      33.703 -11.042 -23.958  0.00  0.00    -0.280 N 
ATOM      3  N   UNL     1      34.634  -8.993 -24.278  0.00  0.00    -0.305 N 
ATOM      4  C   UNL     1      32.011 -12.954 -22.060  0.00  0.00    -0.028 C 
ATOM      5  C   UNL     1      31.444 -11.581 -21.679  0.00  0.00    +0.115 C 
ATOM      6  C   UNL     1      32.289 -13.105 -23.559  0.00  0.00    +0.006 C 
ATOM      7  C   UNL     1      33.583 -12.473 -24.042  0.00  0.00    +0.109 C 
ATOM      8  C   UNL     1      32.270 -10.354 -21.946  0.00  0.00    +0.020 C 
ATOM      9  C   UNL     1      33.184 -10.177 -22.972  0.00  0.00    +0.078 A 
ATOM     10  C   UNL     1      33.776  -8.921 -23.183  0.00  0.00    +0.076 A 
ATOM     11  C   UNL     1      34.625 -10.313 -24.778  0.00  0.00    +0.328 A 
ATOM     12  C   UNL     1      32.011  -9.218 -21.138  0.00  0.00    -0.000 C 
ATOM     13  C   UNL     1      33.531  -7.813 -22.402  0.00  0.00    +0.019 C 
ATOM     14  C   UNL     1      32.633  -7.975 -21.355  0.00  0.00    +0.001 C 
ATOM     15  H   UNL     1      35.161  -8.246 -24.643  0.00  0.00    +0.170 HD
ENDROOT
BRANCH   4  16
ATOM     16  N   UNL     1      33.171 -13.292 -21.237  0.00  0.00    +0.388 N 
ATOM     17  H   UNL     1      33.005 -12.980 -20.280  0.00  0.00    -0.084 HD
ATOM     18  H   UNL     1      33.993 -12.828 -21.622  0.00  0.00    -0.084 HD
BRANCH  16  19
ATOM     19  C   UNL     1      33.401 -14.728 -21.238  0.00  0.00    -0.062 C 
ATOM     20  C   UNL     1      32.234 -15.452 -20.573  0.00  0.00    -0.023 C 
ATOM     21  C   UNL     1      34.714 -15.033 -20.523  0.00  0.00    -0.023 C 
ENDBRANCH  16  19
ENDBRANCH   4  16
BRANCH   5  22
ATOM     22  O   UNL     1      30.193 -11.385 -22.351  0.00  0.00    -0.382 OA
ATOM     23  H   UNL     1      29.600 -10.867 -21.785  0.00  0.00    +0.211 HD
ENDBRANCH   5  22
TORSDOF 3
ENDMDL
MODEL 9
REMARK VINA RESULT:      -7.2     10.096     12.300
REMARK  Name = 3086576
REMARK  3 active torsions:
REMARK  status: ('A' for Active; 'I' for Inactive)
REMARK    1  A    between atoms: C_4  and  N_16
REMARK    2  A    between atoms: C_5  and  O_22
REMARK    3  A    between atoms: N_16  and  C_19
REMARK                            x       y       z     vdW  Elec       q    Type
REMARK                         _______ _______ _______ _____ _____    ______ ____
ROOT
ATOM      1  O   UNL     1      32.440 -24.698 -13.112  0.00  0.00    -0.247 OA
ATOM      2  N   UNL     1      34.748 -24.095 -13.139  0.00  0.00    -0.280 N 
ATOM      3  N   UNL     1      33.459 -23.660 -14.960  0.00  0.00    -0.305 N 
ATOM      4  C   UNL     1      37.677 -24.306 -11.913  0.00  0.00    -0.028 C 
ATOM      5  C   UNL     1      37.884 -23.236 -12.991  0.00  0.00    +0.115 C 
ATOM      6  C   UNL     1      36.342 -24.176 -11.172  0.00  0.00    +0.006 C 
ATOM      7  C   UNL     1      35.138 -24.734 -11.910  0.00  0.00    +0.109 C 
ATOM      8  C   UNL     1      36.919 -23.167 -14.142  0.00  0.00    +0.020 C 
ATOM      9  C   UNL     1      35.575 -23.507 -14.119  0.00  0.00    +0.078 A 
ATOM     10  C   UNL     1      34.762 -23.252 -15.235  0.00  0.00    +0.076 A 
ATOM     11  C   UNL     1      33.419 -24.207 -13.659  0.00  0.00    +0.328 A 
ATOM     12  C   UNL     1      37.396 -22.592 -15.346  0.00  0.00    -0.000 C 
ATOM     13  C   UNL     1      35.219 -22.694 -16.409  0.00  0.00    +0.019 C 
ATOM     14  C   UNL     1      36.567 -22.366 -16.460  0.00  0.00    +0.001 C 
ATOM     15  H   UNL     1      32.692 -23.578 -15.571  0.00  0.00    +0.170 HD
ENDROOT
BRANCH   4  16
ATOM     16  N   UNL     1      37.890 -25.648 -12.454  0.00  0.00    +0.388 N 
ATOM     17  H   UNL     1      36.998 -26.142 -12.485  0.00  0.00    -0.084 HD
ATOM     18  H   UNL     1      38.547 -26.144 -11.852  0.00  0.00    -0.084 HD
BRANCH  16  19
ATOM     19  C   UNL     1      38.446 -25.580 -13.796  0.00  0.00    -0.062 C 
ATOM     20  C   UNL     1      37.745 -26.581 -14.710  0.00  0.00    -0.023 C 
ATOM     21  C   UNL     1      39.947 -25.847 -13.739  0.00  0.00    -0.023 C 
ENDBRANCH  16  19
ENDBRANCH   4  16
BRANCH   5  22
ATOM     22  O   UNL     1      37.879 -21.941 -12.377  0.00  0.00    -0.382 OA
ATOM     23  H   UNL     1      38.392 -21.972 -11.555  0.00  0.00    +0.211 HD
ENDBRANCH   5  22
TORSDOF 3
ENDMDL
