MODEL 1
REMARK VINA RESULT:      -9.4      0.000      0.000
REMARK  Name = 44129601
REMARK  3 active torsions:
REMARK  status: ('A' for Active; 'I' for Inactive)
REMARK    1  A    between atoms: C_6  and  C_15
REMARK    2  A    between atoms: C_9  and  C_23
REMARK    3  A    between atoms: N_22  and  C_25
REMARK                            x       y       z     vdW  Elec       q    Type
REMARK                         _______ _______ _______ _____ _____    ______ ____
ROOT
ATOM      1  S   UNL     1      34.777 -17.156 -24.094  0.00  0.00    -0.054 S 
ATOM      2  N   UNL     1      32.851 -13.454 -25.468  0.00  0.00    -0.332 NA
ATOM      3  N   UNL     1      33.780 -15.622 -26.031  0.00  0.00    -0.326 NA
ATOM      4  N   UNL     1      32.888 -14.222 -27.677  0.00  0.00    -0.283 N 
ATOM      5  C   UNL     1      33.740 -14.820 -23.729  0.00  0.00    +0.135 C 
ATOM      6  C   UNL     1      33.127 -13.639 -24.160  0.00  0.00    +0.134 C 
ATOM      7  C   UNL     1      34.033 -15.754 -24.714  0.00  0.00    +0.162 C 
ATOM      8  C   UNL     1      34.148 -15.293 -22.442  0.00  0.00    -0.001 C 
ATOM      9  C   UNL     1      34.724 -16.544 -22.498  0.00  0.00    +0.081 C 
ATOM     10  C   UNL     1      33.190 -14.446 -26.315  0.00  0.00    +0.196 C 
ATOM     11  H   UNL     1      32.456 -13.382 -27.953  0.00  0.00    +0.156 HD
ATOM     12  H   UNL     1      33.109 -14.907 -28.349  0.00  0.00    +0.156 HD
ENDROOT
BRANCH   6  15
ATOM     13 CL   UNL     1      34.155 -10.808 -24.799  0.00  0.00    -0.082 Cl
ATOM     14 CL   UNL     1      31.569  -9.383 -20.308  0.00  0.00    -0.082 Cl
ATOM     15  C   UNL     1      32.769 -12.587 -23.248  0.00  0.00    +0.038 C 
ATOM     16  C   UNL     1      33.182 -11.269 -23.446  0.00  0.00    +0.061 C 
ATOM     17  C   UNL     1      31.984 -12.913 -22.141  0.00  0.00    +0.004 C 
ATOM     18  C   UNL     1      32.810 -10.277 -22.537  0.00  0.00    +0.023 C 
ATOM     19  C   UNL     1      31.613 -11.922 -21.232  0.00  0.00    +0.012 C 
ATOM     20  C   UNL     1      32.027 -10.604 -21.430  0.00  0.00    +0.059 C 
ENDBRANCH   6  15
BRANCH   9  23
ATOM     21  O   UNL     1      35.366 -16.874 -20.267  0.00  0.00    -0.270 OA
ATOM     22  N   UNL     1      35.608 -18.671 -21.712  0.00  0.00    -0.300 N 
ATOM     23  C   UNL     1      35.246 -17.335 -21.432  0.00  0.00    +0.252 C 
ATOM     24  H   UNL     1      35.498 -18.990 -22.637  0.00  0.00    +0.150 HD
BRANCH  22  25
ATOM     25  C   UNL     1      36.129 -19.601 -20.737  0.00  0.00    +0.090 C 
ATOM     26  C   UNL     1      35.066 -20.582 -20.283  0.00  0.00    +0.023 C 
ENDBRANCH  22  25
ENDBRANCH   9  23
TORSDOF 3
ENDMDL
MODEL 2
REMARK VINA RESULT:      -9.0      9.361     13.617
REMARK  Name = 44129601
REMARK  3 active torsions:
REMARK  status: ('A' for Active; 'I' for Inactive)
REMARK    1  A    between atoms: C_6  and  C_15
REMARK    2  A    between atoms: C_9  and  C_23
REMARK    3  A    between atoms: N_22  and  C_25
REMARK                            x       y       z     vdW  Elec       q    Type
REMARK                         _______ _______ _______ _____ _____    ______ ____
ROOT
ATOM      1  S   UNL     1      31.701 -22.738 -17.222  0.00  0.00    -0.054 S 
ATOM      2  N   UNL     1      32.943 -24.845 -13.573  0.00  0.00    -0.332 NA
ATOM      3  N   UNL     1      31.141 -23.899 -14.891  0.00  0.00    -0.326 NA
ATOM      4  N   UNL     1      30.725 -24.932 -12.836  0.00  0.00    -0.283 N 
ATOM      5  C   UNL     1      33.453 -23.809 -15.658  0.00  0.00    +0.135 C 
ATOM      6  C   UNL     1      33.856 -24.479 -14.498  0.00  0.00    +0.134 C 
ATOM      7  C   UNL     1      32.093 -23.557 -15.781  0.00  0.00    +0.162 C 
ATOM      8  C   UNL     1      34.168 -23.306 -16.790  0.00  0.00    -0.001 C 
ATOM      9  C   UNL     1      33.340 -22.702 -17.712  0.00  0.00    +0.081 C 
ATOM     10  C   UNL     1      31.655 -24.536 -13.823  0.00  0.00    +0.196 C 
ATOM     11  H   UNL     1      31.035 -25.404 -12.029  0.00  0.00    +0.156 HD
ATOM     12  H   UNL     1      29.768 -24.738 -12.956  0.00  0.00    +0.156 HD
ENDROOT
BRANCH   6  15
ATOM     13 CL   UNL     1      35.066 -23.495 -11.844  0.00  0.00    -0.082 Cl
ATOM     14 CL   UNL     1      39.556 -25.896 -13.564  0.00  0.00    -0.082 Cl
ATOM     15  C   UNL     1      35.232 -24.804 -14.241  0.00  0.00    +0.038 C 
ATOM     16  C   UNL     1      35.877 -24.407 -13.069  0.00  0.00    +0.061 C 
ATOM     17  C   UNL     1      35.926 -25.540 -15.203  0.00  0.00    +0.004 C 
ATOM     18  C   UNL     1      37.214 -24.745 -12.859  0.00  0.00    +0.023 C 
ATOM     19  C   UNL     1      37.263 -25.877 -14.994  0.00  0.00    +0.012 C 
ATOM     20  C   UNL     1      37.907 -25.479 -13.821  0.00  0.00    +0.059 C 
ENDBRANCH   6  15
BRANCH   9  23
ATOM     21  O   UNL     1      32.820 -21.892 -19.850  0.00  0.00    -0.270 OA
ATOM     22  N   UNL     1      35.021 -21.685 -19.149  0.00  0.00    -0.300 N 
ATOM     23  C   UNL     1      33.682 -22.091 -18.954  0.00  0.00    +0.252 C 
ATOM     24  H   UNL     1      35.661 -21.860 -18.422  0.00  0.00    +0.150 HD
BRANCH  22  25
ATOM     25  C   UNL     1      35.515 -21.034 -20.339  0.00  0.00    +0.090 C 
ATOM     26  C   UNL     1      36.756 -20.215 -20.049  0.00  0.00    +0.023 C 
ENDBRANCH  22  25
ENDBRANCH   9  23
TORSDOF 3
ENDMDL
MODEL 3
REMARK VINA RESULT:      -8.8      3.685      5.582
REMARK  Name = 44129601
REMARK  3 active torsions:
REMARK  status: ('A' for Active; 'I' for Inactive)
REMARK    1  A    between atoms: C_6  and  C_15
REMARK    2  A    between atoms: C_9  and  C_23
REMARK    3  A    between atoms: N_22  and  C_25
REMARK                            x       y       z     vdW  Elec       q    Type
REMARK                         _______ _______ _______ _____ _____    ______ ____
ROOT
ATOM      1  S   UNL     1      32.314 -13.665 -22.255  0.00  0.00    -0.054 S 
ATOM      2  N   UNL     1      31.952  -9.451 -21.063  0.00  0.00    -0.332 NA
ATOM      3  N   UNL     1      31.628 -11.787 -20.495  0.00  0.00    -0.326 NA
ATOM      4  N   UNL     1      31.049 -10.085 -19.001  0.00  0.00    -0.283 N 
ATOM      5  C   UNL     1      32.570 -11.125 -22.644  0.00  0.00    +0.135 C 
ATOM      6  C   UNL     1      32.456  -9.782 -22.271  0.00  0.00    +0.134 C 
ATOM      7  C   UNL     1      32.138 -12.059 -21.712  0.00  0.00    +0.162 C 
ATOM      8  C   UNL     1      33.051 -11.771 -23.826  0.00  0.00    -0.001 C 
ATOM      9  C   UNL     1      32.969 -13.145 -23.748  0.00  0.00    +0.081 C 
ATOM     10  C   UNL     1      31.573 -10.463 -20.258  0.00  0.00    +0.196 C 
ATOM     11  H   UNL     1      30.981  -9.132 -18.763  0.00  0.00    +0.156 HD
ATOM     12  H   UNL     1      30.753 -10.774 -18.363  0.00  0.00    +0.156 HD
ENDROOT
BRANCH   6  15
ATOM     13 CL   UNL     1      30.233  -8.088 -23.562  0.00  0.00    -0.082 Cl
ATOM     14 CL   UNL     1      34.284  -5.383 -25.833  0.00  0.00    -0.082 Cl
ATOM     15  C   UNL     1      32.864  -8.711 -23.138  0.00  0.00    +0.038 C 
ATOM     16  C   UNL     1      31.937  -7.883 -23.773  0.00  0.00    +0.061 C 
ATOM     17  C   UNL     1      34.231  -8.508 -23.337  0.00  0.00    +0.004 C 
ATOM     18  C   UNL     1      32.376  -6.853 -24.606  0.00  0.00    +0.023 C 
ATOM     19  C   UNL     1      34.669  -7.479 -24.171  0.00  0.00    +0.012 C 
ATOM     20  C   UNL     1      33.742  -6.652 -24.805  0.00  0.00    +0.059 C 
ENDBRANCH   6  15
BRANCH   9  23
ATOM     21  O   UNL     1      33.298 -13.876 -25.951  0.00  0.00    -0.270 OA
ATOM     22  N   UNL     1      33.817 -15.369 -24.254  0.00  0.00    -0.300 N 
ATOM     23  C   UNL     1      33.351 -14.119 -24.717  0.00  0.00    +0.252 C 
ATOM     24  H   UNL     1      33.842 -15.516 -23.281  0.00  0.00    +0.150 HD
BRANCH  22  25
ATOM     25  C   UNL     1      34.260 -16.446 -25.109  0.00  0.00    +0.090 C 
ATOM     26  C   UNL     1      34.892 -17.566 -24.308  0.00  0.00    +0.023 C 
ENDBRANCH  22  25
ENDBRANCH   9  23
TORSDOF 3
ENDMDL
MODEL 4
REMARK VINA RESULT:      -8.6      3.809      5.772
REMARK  Name = 44129601
REMARK  3 active torsions:
REMARK  status: ('A' for Active; 'I' for Inactive)
REMARK    1  A    between atoms: C_6  and  C_15
REMARK    2  A    between atoms: C_9  and  C_23
REMARK    3  A    between atoms: N_22  and  C_25
REMARK                            x       y       z     vdW  Elec       q    Type
REMARK                         _______ _______ _______ _____ _____    ______ ____
ROOT
ATOM      1  S   UNL     1      32.592 -13.666 -22.048  0.00  0.00    -0.054 S 
ATOM      2  N   UNL     1      31.459  -9.838 -20.212  0.00  0.00    -0.332 NA
ATOM      3  N   UNL     1      31.817 -12.222 -19.947  0.00  0.00    -0.326 NA
ATOM      4  N   UNL     1      31.136 -10.892 -18.149  0.00  0.00    -0.283 N 
ATOM      5  C   UNL     1      32.154 -11.122 -22.097  0.00  0.00    +0.135 C 
ATOM      6  C   UNL     1      31.793  -9.900 -21.519  0.00  0.00    +0.134 C 
ATOM      7  C   UNL     1      32.141 -12.226 -21.255  0.00  0.00    +0.162 C 
ATOM      8  C   UNL     1      32.547 -11.496 -23.421  0.00  0.00    -0.001 C 
ATOM      9  C   UNL     1      32.813 -12.843 -23.532  0.00  0.00    +0.081 C 
ATOM     10  C   UNL     1      31.492 -10.990 -19.514  0.00  0.00    +0.196 C 
ATOM     11  H   UNL     1      30.888 -10.019 -17.768  0.00  0.00    +0.156 HD
ATOM     12  H   UNL     1      31.140 -11.696 -17.581  0.00  0.00    +0.156 HD
ENDROOT
BRANCH   6  15
ATOM     13 CL   UNL     1      33.245  -7.466 -20.317  0.00  0.00    -0.082 Cl
ATOM     14 CL   UNL     1      31.589  -4.907 -24.744  0.00  0.00    -0.082 Cl
ATOM     15  C   UNL     1      31.763  -8.677 -22.273  0.00  0.00    +0.038 C 
ATOM     16  C   UNL     1      32.389  -7.516 -21.819  0.00  0.00    +0.061 C 
ATOM     17  C   UNL     1      31.083  -8.671 -23.492  0.00  0.00    +0.004 C 
ATOM     18  C   UNL     1      32.336  -6.350 -22.583  0.00  0.00    +0.023 C 
ATOM     19  C   UNL     1      31.030  -7.505 -24.256  0.00  0.00    +0.012 C 
ATOM     20  C   UNL     1      31.656  -6.344 -23.801  0.00  0.00    +0.059 C 
ENDBRANCH   6  15
BRANCH   9  23
ATOM     21  O   UNL     1      33.448 -13.014 -25.782  0.00  0.00    -0.270 OA
ATOM     22  N   UNL     1      33.413 -14.974 -24.544  0.00  0.00    -0.300 N 
ATOM     23  C   UNL     1      33.228 -13.580 -24.680  0.00  0.00    +0.252 C 
ATOM     24  H   UNL     1      33.230 -15.375 -23.664  0.00  0.00    +0.150 HD
BRANCH  22  25
ATOM     25  C   UNL     1      33.852 -15.850 -25.606  0.00  0.00    +0.090 C 
ATOM     26  C   UNL     1      34.574 -17.065 -25.059  0.00  0.00    +0.023 C 
ENDBRANCH  22  25
ENDBRANCH   9  23
TORSDOF 3
ENDMDL
MODEL 5
REMARK VINA RESULT:      -8.5      4.184      6.268
REMARK  Name = 44129601
REMARK  3 active torsions:
REMARK  status: ('A' for Active; 'I' for Inactive)
REMARK    1  A    between atoms: C_6  and  C_15
REMARK    2  A    between atoms: C_9  and  C_23
REMARK    3  A    between atoms: N_22  and  C_25
REMARK                            x       y       z     vdW  Elec       q    Type
REMARK                         _______ _______ _______ _____ _____    ______ ____
ROOT
ATOM      1  S   UNL     1      32.671 -12.670 -22.555  0.00  0.00    -0.054 S 
ATOM      2  N   UNL     1      31.916  -8.551 -21.226  0.00  0.00    -0.332 NA
ATOM      3  N   UNL     1      32.053 -10.905 -20.658  0.00  0.00    -0.326 NA
ATOM      4  N   UNL     1      31.515  -9.299 -19.047  0.00  0.00    -0.283 N 
ATOM      5  C   UNL     1      32.471 -10.123 -22.930  0.00  0.00    +0.135 C 
ATOM      6  C   UNL     1      32.231  -8.810 -22.513  0.00  0.00    +0.134 C 
ATOM      7  C   UNL     1      32.363 -11.106 -21.954  0.00  0.00    +0.162 C 
ATOM      8  C   UNL     1      32.816 -10.698 -24.194  0.00  0.00    -0.001 C 
ATOM      9  C   UNL     1      32.954 -12.068 -24.131  0.00  0.00    +0.081 C 
ATOM     10  C   UNL     1      31.847  -9.603 -20.387  0.00  0.00    +0.196 C 
ATOM     11  H   UNL     1      31.352  -8.366 -18.780  0.00  0.00    +0.156 HD
ATOM     12  H   UNL     1      31.448 -10.021 -18.381  0.00  0.00    +0.156 HD
ENDROOT
BRANCH   6  15
ATOM     13 CL   UNL     1      35.036  -7.928 -23.429  0.00  0.00    -0.082 Cl
ATOM     14 CL   UNL     1      32.403  -4.189 -26.254  0.00  0.00    -0.082 Cl
ATOM     15  C   UNL     1      32.308  -7.695 -23.418  0.00  0.00    +0.038 C 
ATOM     16  C   UNL     1      33.529  -7.216 -23.893  0.00  0.00    +0.061 C 
ATOM     17  C   UNL     1      31.117  -7.090 -23.820  0.00  0.00    +0.004 C 
ATOM     18  C   UNL     1      33.559  -6.132 -24.771  0.00  0.00    +0.023 C 
ATOM     19  C   UNL     1      31.147  -6.005 -24.696  0.00  0.00    +0.012 C 
ATOM     20  C   UNL     1      32.368  -5.526 -25.172  0.00  0.00    +0.059 C 
ENDBRANCH   6  15
BRANCH   9  23
ATOM     21  O   UNL     1      33.705 -12.579 -26.293  0.00  0.00    -0.270 OA
ATOM     22  N   UNL     1      33.166 -14.363 -24.913  0.00  0.00    -0.300 N 
ATOM     23  C   UNL     1      33.289 -12.980 -25.175  0.00  0.00    +0.252 C 
ATOM     24  H   UNL     1      32.837 -14.632 -24.025  0.00  0.00    +0.150 HD
BRANCH  22  25
ATOM     25  C   UNL     1      33.488 -15.408 -25.858  0.00  0.00    +0.090 C 
ATOM     26  C   UNL     1      34.314 -16.502 -25.214  0.00  0.00    +0.023 C 
ENDBRANCH  22  25
ENDBRANCH   9  23
TORSDOF 3
ENDMDL
MODEL 6
REMARK VINA RESULT:      -8.4      4.244      7.687
REMARK  Name = 44129601
REMARK  3 active torsions:
REMARK  status: ('A' for Active; 'I' for Inactive)
REMARK    1  A    between atoms: C_6  and  C_15
REMARK    2  A    between atoms: C_9  and  C_23
REMARK    3  A    between atoms: N_22  and  C_25
REMARK                            x       y       z     vdW  Elec       q    Type
REMARK                         _______ _______ _______ _____ _____    ______ ____
ROOT
ATOM      1  S   UNL     1      34.119 -15.816 -23.311  0.00  0.00    -0.054 S 
ATOM      2  N   UNL     1      35.084 -20.102 -23.321  0.00  0.00    -0.332 NA
ATOM      3  N   UNL     1      34.554 -18.109 -24.596  0.00  0.00    -0.326 NA
ATOM      4  N   UNL     1      34.946 -20.155 -25.655  0.00  0.00    -0.283 N 
ATOM      5  C   UNL     1      34.698 -18.055 -22.163  0.00  0.00    +0.135 C 
ATOM      6  C   UNL     1      35.005 -19.419 -22.159  0.00  0.00    +0.134 C 
ATOM      7  C   UNL     1      34.487 -17.477 -23.408  0.00  0.00    +0.162 C 
ATOM      8  C   UNL     1      34.546 -17.087 -21.120  0.00  0.00    -0.001 C 
ATOM      9  C   UNL     1      34.233 -15.835 -21.604  0.00  0.00    +0.081 C 
ATOM     10  C   UNL     1      34.856 -19.412 -24.456  0.00  0.00    +0.196 C 
ATOM     11  H   UNL     1      35.164 -21.114 -25.624  0.00  0.00    +0.156 HD
ATOM     12  H   UNL     1      34.792 -19.712 -26.521  0.00  0.00    +0.156 HD
ENDROOT
BRANCH   6  15
ATOM     13 CL   UNL     1      32.554 -20.578 -20.698  0.00  0.00    -0.082 Cl
ATOM     14 CL   UNL     1      36.148 -22.401 -17.141  0.00  0.00    -0.082 Cl
ATOM     15  C   UNL     1      35.246 -20.146 -20.942  0.00  0.00    +0.038 C 
ATOM     16  C   UNL     1      34.206 -20.711 -20.203  0.00  0.00    +0.061 C 
ATOM     17  C   UNL     1      36.565 -20.278 -20.505  0.00  0.00    +0.004 C 
ATOM     18  C   UNL     1      34.485 -21.409 -19.028  0.00  0.00    +0.023 C 
ATOM     19  C   UNL     1      36.843 -20.975 -19.329  0.00  0.00    +0.012 C 
ATOM     20  C   UNL     1      35.803 -21.541 -18.590  0.00  0.00    +0.059 C 
ENDBRANCH   6  15
BRANCH   9  23
ATOM     21  O   UNL     1      34.928 -14.073 -20.222  0.00  0.00    -0.270 OA
ATOM     22  N   UNL     1      32.721 -14.049 -20.934  0.00  0.00    -0.300 N 
ATOM     23  C   UNL     1      34.008 -14.628 -20.878  0.00  0.00    +0.252 C 
ATOM     24  H   UNL     1      32.032 -14.517 -21.459  0.00  0.00    +0.150 HD
BRANCH  22  25
ATOM     25  C   UNL     1      32.346 -12.820 -20.273  0.00  0.00    +0.090 C 
ATOM     26  C   UNL     1      31.536 -11.924 -21.188  0.00  0.00    +0.023 C 
ENDBRANCH  22  25
ENDBRANCH   9  23
TORSDOF 3
ENDMDL
MODEL 7
REMARK VINA RESULT:      -8.4      4.374      6.525
REMARK  Name = 44129601
REMARK  3 active torsions:
REMARK  status: ('A' for Active; 'I' for Inactive)
REMARK    1  A    between atoms: C_6  and  C_15
REMARK    2  A    between atoms: C_9  and  C_23
REMARK    3  A    between atoms: N_22  and  C_25
REMARK                            x       y       z     vdW  Elec       q    Type
REMARK                         _______ _______ _______ _____ _____    ______ ____
ROOT
ATOM      1  S   UNL     1      32.526 -12.260 -22.393  0.00  0.00    -0.054 S 
ATOM      2  N   UNL     1      32.449  -7.935 -21.626  0.00  0.00    -0.332 NA
ATOM      3  N   UNL     1      32.080 -10.181 -20.788  0.00  0.00    -0.326 NA
ATOM      4  N   UNL     1      31.708  -8.308 -19.439  0.00  0.00    -0.283 N 
ATOM      5  C   UNL     1      32.852  -9.790 -23.068  0.00  0.00    +0.135 C 
ATOM      6  C   UNL     1      32.829  -8.412 -22.830  0.00  0.00    +0.134 C 
ATOM      7  C   UNL     1      32.467 -10.601 -22.008  0.00  0.00    +0.162 C 
ATOM      8  C   UNL     1      33.198 -10.576 -24.211  0.00  0.00    -0.001 C 
ATOM      9  C   UNL     1      33.066 -11.929 -23.982  0.00  0.00    +0.081 C 
ATOM     10  C   UNL     1      32.101  -8.839 -20.688  0.00  0.00    +0.196 C 
ATOM     11  H   UNL     1      31.702  -7.334 -19.298  0.00  0.00    +0.156 HD
ATOM     12  H   UNL     1      31.443  -8.913 -18.709  0.00  0.00    +0.156 HD
ENDROOT
BRANCH   6  15
ATOM     13 CL   UNL     1      30.604  -6.601 -23.950  0.00  0.00    -0.082 Cl
ATOM     14 CL   UNL     1      34.511  -4.504 -26.987  0.00  0.00    -0.082 Cl
ATOM     15  C   UNL     1      33.202  -7.456 -23.837  0.00  0.00    +0.038 C 
ATOM     16  C   UNL     1      32.271  -6.588 -24.410  0.00  0.00    +0.061 C 
ATOM     17  C   UNL     1      34.537  -7.410 -24.239  0.00  0.00    +0.004 C 
ATOM     18  C   UNL     1      32.676  -5.674 -25.383  0.00  0.00    +0.023 C 
ATOM     19  C   UNL     1      34.942  -6.497 -25.214  0.00  0.00    +0.012 C 
ATOM     20  C   UNL     1      34.011  -5.630 -25.786  0.00  0.00    +0.059 C 
ENDBRANCH   6  15
BRANCH   9  23
ATOM     21  O   UNL     1      33.487 -12.830 -26.105  0.00  0.00    -0.270 OA
ATOM     22  N   UNL     1      33.397 -14.315 -24.327  0.00  0.00    -0.300 N 
ATOM     23  C   UNL     1      33.317 -13.015 -24.872  0.00  0.00    +0.252 C 
ATOM     24  H   UNL     1      33.258 -14.414 -23.357  0.00  0.00    +0.150 HD
BRANCH  22  25
ATOM     25  C   UNL     1      33.668 -15.510 -25.093  0.00  0.00    +0.090 C 
ATOM     26  C   UNL     1      34.727 -16.366 -24.429  0.00  0.00    +0.023 C 
ENDBRANCH  22  25
ENDBRANCH   9  23
TORSDOF 3
ENDMDL
MODEL 8
REMARK VINA RESULT:      -8.2      7.478     11.614
REMARK  Name = 44129601
REMARK  3 active torsions:
REMARK  status: ('A' for Active; 'I' for Inactive)
REMARK    1  A    between atoms: C_6  and  C_15
REMARK    2  A    between atoms: C_9  and  C_23
REMARK    3  A    between atoms: N_22  and  C_25
REMARK                            x       y       z     vdW  Elec       q    Type
REMARK                         _______ _______ _______ _____ _____    ______ ____
ROOT
ATOM      1  S   UNL     1      36.128 -21.166 -19.390  0.00  0.00    -0.054 S 
ATOM      2  N   UNL     1      35.594 -23.499 -15.706  0.00  0.00    -0.332 NA
ATOM      3  N   UNL     1      37.115 -22.426 -17.260  0.00  0.00    -0.326 NA
ATOM      4  N   UNL     1      37.908 -23.551 -15.370  0.00  0.00    -0.283 N 
ATOM      5  C   UNL     1      34.702 -22.373 -17.608  0.00  0.00    +0.135 C 
ATOM      6  C   UNL     1      34.525 -23.115 -16.436  0.00  0.00    +0.134 C 
ATOM      7  C   UNL     1      36.014 -22.071 -17.951  0.00  0.00    +0.162 C 
ATOM      8  C   UNL     1      33.789 -21.836 -18.569  0.00  0.00    -0.001 C 
ATOM      9  C   UNL     1      34.429 -21.160 -19.585  0.00  0.00    +0.081 C 
ATOM     10  C   UNL     1      36.810 -23.134 -16.157  0.00  0.00    +0.196 C 
ATOM     11  H   UNL     1      37.755 -24.072 -14.550  0.00  0.00    +0.156 HD
ATOM     12  H   UNL     1      38.824 -23.318 -15.643  0.00  0.00    +0.156 HD
ENDROOT
BRANCH   6  15
ATOM     13 CL   UNL     1      34.353 -24.344 -13.618  0.00  0.00    -0.082 Cl
ATOM     14 CL   UNL     1      29.079 -24.652 -14.605  0.00  0.00    -0.082 Cl
ATOM     15  C   UNL     1      33.222 -23.498 -15.963  0.00  0.00    +0.038 C 
ATOM     16  C   UNL     1      33.034 -24.064 -14.702  0.00  0.00    +0.061 C 
ATOM     17  C   UNL     1      32.129 -23.290 -16.804  0.00  0.00    +0.004 C 
ATOM     18  C   UNL     1      31.753 -24.420 -14.281  0.00  0.00    +0.023 C 
ATOM     19  C   UNL     1      30.847 -23.647 -16.384  0.00  0.00    +0.012 C 
ATOM     20  C   UNL     1      30.659 -24.212 -15.122  0.00  0.00    +0.059 C 
ENDBRANCH   6  15
BRANCH   9  23
ATOM     21  O   UNL     1      32.616 -20.451 -20.892  0.00  0.00    -0.270 OA
ATOM     22  N   UNL     1      34.737 -19.858 -21.619  0.00  0.00    -0.300 N 
ATOM     23  C   UNL     1      33.860 -20.495 -20.712  0.00  0.00    +0.252 C 
ATOM     24  H   UNL     1      35.703 -19.918 -21.439  0.00  0.00    +0.150 HD
BRANCH  22  25
ATOM     25  C   UNL     1      34.314 -19.127 -22.791  0.00  0.00    +0.090 C 
ATOM     26  C   UNL     1      35.483 -18.447 -23.472  0.00  0.00    +0.023 C 
ENDBRANCH  22  25
ENDBRANCH   9  23
TORSDOF 3
ENDMDL
MODEL 9
REMARK VINA RESULT:      -8.2      4.208      7.553
REMARK  Name = 44129601
REMARK  3 active torsions:
REMARK  status: ('A' for Active; 'I' for Inactive)
REMARK    1  A    between atoms: C_6  and  C_15
REMARK    2  A    between atoms: C_9  and  C_23
REMARK    3  A    between atoms: N_22  and  C_25
REMARK                            x       y       z     vdW  Elec       q    Type
REMARK                         _______ _______ _______ _____ _____    ______ ____
ROOT
ATOM      1  S   UNL     1      34.182 -15.707 -23.295  0.00  0.00    -0.054 S 
ATOM      2  N   UNL     1      34.825 -20.052 -23.390  0.00  0.00    -0.332 NA
ATOM      3  N   UNL     1      34.565 -17.982 -24.626  0.00  0.00    -0.326 NA
ATOM      4  N   UNL     1      34.903 -20.017 -25.727  0.00  0.00    -0.283 N 
ATOM      5  C   UNL     1      34.484 -18.021 -22.190  0.00  0.00    +0.135 C 
ATOM      6  C   UNL     1      34.688 -19.404 -22.213  0.00  0.00    +0.134 C 
ATOM      7  C   UNL     1      34.434 -17.387 -23.425  0.00  0.00    +0.162 C 
ATOM      8  C   UNL     1      34.307 -17.079 -21.127  0.00  0.00    -0.001 C 
ATOM      9  C   UNL     1      34.133 -15.792 -21.587  0.00  0.00    +0.081 C 
ATOM     10  C   UNL     1      34.756 -19.309 -24.512  0.00  0.00    +0.196 C 
ATOM     11  H   UNL     1      35.047 -20.990 -25.715  0.00  0.00    +0.156 HD
ATOM     12  H   UNL     1      34.864 -19.535 -26.584  0.00  0.00    +0.156 HD
ENDROOT
BRANCH   6  15
ATOM     13 CL   UNL     1      37.455 -19.716 -20.898  0.00  0.00    -0.082 Cl
ATOM     14 CL   UNL     1      34.843 -22.664 -17.240  0.00  0.00    -0.082 Cl
ATOM     15  C   UNL     1      34.760 -20.187 -21.009  0.00  0.00    +0.038 C 
ATOM     16  C   UNL     1      35.965 -20.390 -20.335  0.00  0.00    +0.061 C 
ATOM     17  C   UNL     1      33.582 -20.750 -20.518  0.00  0.00    +0.004 C 
ATOM     18  C   UNL     1      35.990 -21.155 -19.168  0.00  0.00    +0.023 C 
ATOM     19  C   UNL     1      33.608 -21.516 -19.353  0.00  0.00    +0.012 C 
ATOM     20  C   UNL     1      34.812 -21.719 -18.678  0.00  0.00    +0.059 C 
ENDBRANCH   6  15
BRANCH   9  23
ATOM     21  O   UNL     1      34.860 -14.071 -20.169  0.00  0.00    -0.270 OA
ATOM     22  N   UNL     1      32.654 -13.992 -20.880  0.00  0.00    -0.300 N 
ATOM     23  C   UNL     1      33.931 -14.595 -20.836  0.00  0.00    +0.252 C 
ATOM     24  H   UNL     1      31.957 -14.436 -21.415  0.00  0.00    +0.150 HD
BRANCH  22  25
ATOM     25  C   UNL     1      32.302 -12.770 -20.195  0.00  0.00    +0.090 C 
ATOM     26  C   UNL     1      31.531 -11.830 -21.099  0.00  0.00    +0.023 C 
ENDBRANCH  22  25
ENDBRANCH   9  23
TORSDOF 3
ENDMDL
