MODEL 1
REMARK VINA RESULT:     -10.0      0.000      0.000
REMARK  Name = 24748047
REMARK  10 active torsions:
REMARK  status: ('A' for Active; 'I' for Inactive)
REMARK    1  A    between atoms: C_1  and  C_2
REMARK    2  A    between atoms: C_1  and  C_15
REMARK    3  A    between atoms: C_5  and  O_8
REMARK    4  A    between atoms: O_8  and  C_9
REMARK    5  A    between atoms: C_15  and  C_16
REMARK    6  A    between atoms: C_16  and  C_17
REMARK    7  A    between atoms: C_17  and  S_18
REMARK    8  A    between atoms: C_17  and  P_22
REMARK    9  A    between atoms: P_22  and  O_24
REMARK   10  A    between atoms: P_22  and  O_26
REMARK                            x       y       z     vdW  Elec       q    Type
REMARK                         _______ _______ _______ _____ _____    ______ ____
ROOT
ATOM      1  C   UNL     1      35.430 -23.389 -14.163  0.00  0.00    +0.027 C 
ENDROOT
BRANCH   1   2
ATOM      2  C   UNL     1      34.277 -23.309 -15.132  0.00  0.00    -0.019 C 
ATOM      3  C   UNL     1      34.513 -23.368 -16.505  0.00  0.00    +0.033 C 
ATOM      4  C   UNL     1      32.973 -23.176 -14.654  0.00  0.00    -0.004 C 
ATOM      5  C   UNL     1      33.446 -23.296 -17.401  0.00  0.00    +0.145 C 
ATOM      6  C   UNL     1      31.906 -23.102 -15.549  0.00  0.00    +0.003 C 
ATOM      7  C   UNL     1      32.142 -23.163 -16.923  0.00  0.00    +0.037 C 
BRANCH   5   8
ATOM      8  O   UNL     1      33.677 -23.355 -18.740  0.00  0.00    -0.454 OA
BRANCH   8   9
ATOM      9  C   UNL     1      34.079 -22.192 -19.375  0.00  0.00    +0.145 C 
ATOM     10  C   UNL     1      33.127 -21.286 -19.842  0.00  0.00    +0.037 C 
ATOM     11  C   UNL     1      35.438 -21.927 -19.552  0.00  0.00    +0.037 C 
ATOM     12  C   UNL     1      33.532 -20.114 -20.482  0.00  0.00    +0.003 C 
ATOM     13  C   UNL     1      35.843 -20.756 -20.191  0.00  0.00    +0.003 C 
ATOM     14  C   UNL     1      34.890 -19.849 -20.656  0.00  0.00    +0.000 C 
ENDBRANCH   8   9
ENDBRANCH   5   8
ENDBRANCH   1   2
BRANCH   1  15
ATOM     15  C   UNL     1      36.786 -23.024 -14.784  0.00  0.00    +0.007 C 
BRANCH  15  16
ATOM     16  C   UNL     1      37.945 -23.835 -14.193  0.00  0.00    +0.037 C 
BRANCH  16  17
ATOM     17  C   UNL     1      38.325 -25.097 -14.980  0.00  0.00    +0.238 C 
BRANCH  17  18
ATOM     18  S   UNL     1      40.015 -25.613 -14.654  0.00  0.00    +0.032 S 
ATOM     19  O   UNL     1      40.653 -24.139 -14.377  0.00  0.00    -0.069 OA
ATOM     20  O   UNL     1      40.587 -26.120 -15.886  0.00  0.00    -0.069 OA
ATOM     21  O   UNL     1      40.073 -26.379 -13.427  0.00  0.00    -0.069 OA
ENDBRANCH  17  18
BRANCH  17  22
ATOM     22  P   UNL     1      37.251 -26.508 -14.760  0.00  0.00    +0.359 P 
ATOM     23  O   UNL     1      36.049 -26.579 -15.653  0.00  0.00    -0.256 OA
BRANCH  22  24
ATOM     24  O   UNL     1      36.904 -26.460 -13.179  0.00  0.00    -0.322 OA
ATOM     25  H   UNL     1      36.905 -25.540 -12.876  0.00  0.00    +0.220 HD
ENDBRANCH  22  24
BRANCH  22  26
ATOM     26  O   UNL     1      38.239 -27.785 -14.854  0.00  0.00    -0.322 OA
ATOM     27  H   UNL     1      38.701 -27.775 -15.707  0.00  0.00    +0.220 HD
ENDBRANCH  22  26
ENDBRANCH  17  22
ENDBRANCH  16  17
ENDBRANCH  15  16
ENDBRANCH   1  15
TORSDOF 10
ENDMDL
MODEL 2
REMARK VINA RESULT:      -9.9      3.027      4.632
REMARK  Name = 24748047
REMARK  10 active torsions:
REMARK  status: ('A' for Active; 'I' for Inactive)
REMARK    1  A    between atoms: C_1  and  C_2
REMARK    2  A    between atoms: C_1  and  C_15
REMARK    3  A    between atoms: C_5  and  O_8
REMARK    4  A    between atoms: O_8  and  C_9
REMARK    5  A    between atoms: C_15  and  C_16
REMARK    6  A    between atoms: C_16  and  C_17
REMARK    7  A    between atoms: C_17  and  S_18
REMARK    8  A    between atoms: C_17  and  P_22
REMARK    9  A    between atoms: P_22  and  O_24
REMARK   10  A    between atoms: P_22  and  O_26
REMARK                            x       y       z     vdW  Elec       q    Type
REMARK                         _______ _______ _______ _____ _____    ______ ____
ROOT
ATOM      1  C   UNL     1      35.555 -22.270 -18.427  0.00  0.00    +0.027 C 
ENDROOT
BRANCH   1   2
ATOM      2  C   UNL     1      34.943 -21.296 -19.402  0.00  0.00    -0.019 C 
ATOM      3  C   UNL     1      35.762 -20.468 -20.169  0.00  0.00    +0.033 C 
ATOM      4  C   UNL     1      33.556 -21.223 -19.537  0.00  0.00    -0.004 C 
ATOM      5  C   UNL     1      35.196 -19.567 -21.071  0.00  0.00    +0.145 C 
ATOM      6  C   UNL     1      32.990 -20.321 -20.439  0.00  0.00    +0.003 C 
ATOM      7  C   UNL     1      33.810 -19.494 -21.206  0.00  0.00    +0.037 C 
BRANCH   5   8
ATOM      8  O   UNL     1      35.996 -18.760 -21.819  0.00  0.00    -0.454 OA
BRANCH   8   9
ATOM      9  C   UNL     1      35.426 -18.117 -22.905  0.00  0.00    +0.145 C 
ATOM     10  C   UNL     1      35.249 -16.734 -22.883  0.00  0.00    +0.037 C 
ATOM     11  C   UNL     1      35.026 -18.853 -24.021  0.00  0.00    +0.037 C 
ATOM     12  C   UNL     1      34.675 -16.086 -23.977  0.00  0.00    +0.003 C 
ATOM     13  C   UNL     1      34.453 -18.206 -25.115  0.00  0.00    +0.003 C 
ATOM     14  C   UNL     1      34.277 -16.823 -25.093  0.00  0.00    +0.000 C 
ENDBRANCH   8   9
ENDBRANCH   5   8
ENDBRANCH   1   2
BRANCH   1  15
ATOM     15  C   UNL     1      36.776 -21.715 -17.681  0.00  0.00    +0.007 C 
BRANCH  15  16
ATOM     16  C   UNL     1      36.725 -21.991 -16.173  0.00  0.00    +0.037 C 
BRANCH  16  17
ATOM     17  C   UNL     1      36.435 -23.448 -15.787  0.00  0.00    +0.238 C 
BRANCH  17  18
ATOM     18  S   UNL     1      37.761 -24.164 -14.810  0.00  0.00    +0.032 S 
ATOM     19  O   UNL     1      39.015 -23.645 -15.713  0.00  0.00    -0.069 OA
ATOM     20  O   UNL     1      37.694 -25.608 -14.931  0.00  0.00    -0.069 OA
ATOM     21  O   UNL     1      37.828 -23.521 -13.514  0.00  0.00    -0.069 OA
ENDBRANCH  17  18
BRANCH  17  22
ATOM     22  P   UNL     1      34.888 -23.738 -14.938  0.00  0.00    +0.359 P 
ATOM     23  O   UNL     1      33.649 -23.238 -15.619  0.00  0.00    -0.256 OA
BRANCH  22  24
ATOM     24  O   UNL     1      35.149 -23.099 -13.474  0.00  0.00    -0.322 OA
ATOM     25  H   UNL     1      34.452 -22.455 -13.274  0.00  0.00    +0.220 HD
ENDBRANCH  22  24
BRANCH  22  26
ATOM     26  O   UNL     1      34.892 -25.325 -14.624  0.00  0.00    -0.322 OA
ATOM     27  H   UNL     1      35.390 -25.790 -15.314  0.00  0.00    +0.220 HD
ENDBRANCH  22  26
ENDBRANCH  17  22
ENDBRANCH  16  17
ENDBRANCH  15  16
ENDBRANCH   1  15
TORSDOF 10
ENDMDL
MODEL 3
REMARK VINA RESULT:      -9.8      2.816      4.365
REMARK  Name = 24748047
REMARK  10 active torsions:
REMARK  status: ('A' for Active; 'I' for Inactive)
REMARK    1  A    between atoms: C_1  and  C_2
REMARK    2  A    between atoms: C_1  and  C_15
REMARK    3  A    between atoms: C_5  and  O_8
REMARK    4  A    between atoms: O_8  and  C_9
REMARK    5  A    between atoms: C_15  and  C_16
REMARK    6  A    between atoms: C_16  and  C_17
REMARK    7  A    between atoms: C_17  and  S_18
REMARK    8  A    between atoms: C_17  and  P_22
REMARK    9  A    between atoms: P_22  and  O_24
REMARK   10  A    between atoms: P_22  and  O_26
REMARK                            x       y       z     vdW  Elec       q    Type
REMARK                         _______ _______ _______ _____ _____    ______ ____
ROOT
ATOM      1  C   UNL     1      36.664 -21.779 -18.275  0.00  0.00    +0.027 C 
ENDROOT
BRANCH   1   2
ATOM      2  C   UNL     1      35.710 -21.156 -19.263  0.00  0.00    -0.019 C 
ATOM      3  C   UNL     1      36.184 -20.266 -20.225  0.00  0.00    +0.033 C 
ATOM      4  C   UNL     1      34.351 -21.472 -19.214  0.00  0.00    -0.004 C 
ATOM      5  C   UNL     1      35.302 -19.690 -21.139  0.00  0.00    +0.145 C 
ATOM      6  C   UNL     1      33.468 -20.896 -20.127  0.00  0.00    +0.003 C 
ATOM      7  C   UNL     1      33.944 -20.006 -21.090  0.00  0.00    +0.037 C 
BRANCH   5   8
ATOM      8  O   UNL     1      35.765 -18.822 -22.079  0.00  0.00    -0.454 OA
BRANCH   8   9
ATOM      9  C   UNL     1      35.285 -17.524 -22.047  0.00  0.00    +0.145 C 
ATOM     10  C   UNL     1      35.063 -16.832 -23.238  0.00  0.00    +0.037 C 
ATOM     11  C   UNL     1      35.025 -16.905 -20.824  0.00  0.00    +0.037 C 
ATOM     12  C   UNL     1      34.579 -15.525 -23.207  0.00  0.00    +0.003 C 
ATOM     13  C   UNL     1      34.541 -15.597 -20.792  0.00  0.00    +0.003 C 
ATOM     14  C   UNL     1      34.318 -14.907 -21.983  0.00  0.00    +0.000 C 
ENDBRANCH   8   9
ENDBRANCH   5   8
ENDBRANCH   1   2
BRANCH   1  15
ATOM     15  C   UNL     1      35.976 -22.372 -17.038  0.00  0.00    +0.007 C 
BRANCH  15  16
ATOM     16  C   UNL     1      36.966 -22.735 -15.925  0.00  0.00    +0.037 C 
BRANCH  16  17
ATOM     17  C   UNL     1      36.797 -24.143 -15.336  0.00  0.00    +0.238 C 
BRANCH  17  18
ATOM     18  S   UNL     1      38.321 -24.757 -14.609  0.00  0.00    +0.032 S 
ATOM     19  O   UNL     1      39.369 -23.940 -15.553  0.00  0.00    -0.069 OA
ATOM     20  O   UNL     1      38.445 -26.167 -14.926  0.00  0.00    -0.069 OA
ATOM     21  O   UNL     1      38.453 -24.277 -13.249  0.00  0.00    -0.069 OA
ENDBRANCH  17  18
BRANCH  17  22
ATOM     22  P   UNL     1      35.482 -24.335 -14.140  0.00  0.00    +0.359 P 
ATOM     23  O   UNL     1      34.089 -24.424 -14.687  0.00  0.00    -0.256 OA
BRANCH  22  24
ATOM     24  O   UNL     1      35.723 -23.095 -13.129  0.00  0.00    -0.322 OA
ATOM     25  H   UNL     1      34.987 -22.469 -13.204  0.00  0.00    +0.220 HD
ENDBRANCH  22  24
BRANCH  22  26
ATOM     26  O   UNL     1      35.938 -25.601 -13.242  0.00  0.00    -0.322 OA
ATOM     27  H   UNL     1      35.624 -25.482 -12.332  0.00  0.00    +0.220 HD
ENDBRANCH  22  26
ENDBRANCH  17  22
ENDBRANCH  16  17
ENDBRANCH  15  16
ENDBRANCH   1  15
TORSDOF 10
ENDMDL
MODEL 4
REMARK VINA RESULT:      -9.7      2.151      3.689
REMARK  Name = 24748047
REMARK  10 active torsions:
REMARK  status: ('A' for Active; 'I' for Inactive)
REMARK    1  A    between atoms: C_1  and  C_2
REMARK    2  A    between atoms: C_1  and  C_15
REMARK    3  A    between atoms: C_5  and  O_8
REMARK    4  A    between atoms: O_8  and  C_9
REMARK    5  A    between atoms: C_15  and  C_16
REMARK    6  A    between atoms: C_16  and  C_17
REMARK    7  A    between atoms: C_17  and  S_18
REMARK    8  A    between atoms: C_17  and  P_22
REMARK    9  A    between atoms: P_22  and  O_24
REMARK   10  A    between atoms: P_22  and  O_26
REMARK                            x       y       z     vdW  Elec       q    Type
REMARK                         _______ _______ _______ _____ _____    ______ ____
ROOT
ATOM      1  C   UNL     1      34.345 -23.113 -17.047  0.00  0.00    +0.027 C 
ENDROOT
BRANCH   1   2
ATOM      2  C   UNL     1      34.913 -22.225 -18.127  0.00  0.00    -0.019 C 
ATOM      3  C   UNL     1      34.071 -21.678 -19.095  0.00  0.00    +0.033 C 
ATOM      4  C   UNL     1      36.280 -21.951 -18.157  0.00  0.00    -0.004 C 
ATOM      5  C   UNL     1      34.595 -20.856 -20.092  0.00  0.00    +0.145 C 
ATOM      6  C   UNL     1      36.805 -21.130 -19.155  0.00  0.00    +0.003 C 
ATOM      7  C   UNL     1      35.963 -20.582 -20.122  0.00  0.00    +0.037 C 
BRANCH   5   8
ATOM      8  O   UNL     1      33.774 -20.322 -21.036  0.00  0.00    -0.454 OA
BRANCH   8   9
ATOM      9  C   UNL     1      34.226 -19.212 -21.729  0.00  0.00    +0.145 C 
ATOM     10  C   UNL     1      34.179 -17.951 -21.136  0.00  0.00    +0.037 C 
ATOM     11  C   UNL     1      34.728 -19.355 -23.023  0.00  0.00    +0.037 C 
ATOM     12  C   UNL     1      34.635 -16.833 -21.834  0.00  0.00    +0.003 C 
ATOM     13  C   UNL     1      35.184 -18.237 -23.722  0.00  0.00    +0.003 C 
ATOM     14  C   UNL     1      35.138 -16.977 -23.127  0.00  0.00    +0.000 C 
ENDBRANCH   8   9
ENDBRANCH   5   8
ENDBRANCH   1   2
BRANCH   1  15
ATOM     15  C   UNL     1      35.139 -23.075 -15.734  0.00  0.00    +0.007 C 
BRANCH  15  16
ATOM     16  C   UNL     1      35.314 -24.464 -15.108  0.00  0.00    +0.037 C 
BRANCH  16  17
ATOM     17  C   UNL     1      36.763 -24.855 -14.784  0.00  0.00    +0.238 C 
BRANCH  17  18
ATOM     18  S   UNL     1      37.260 -24.306 -13.147  0.00  0.00    +0.032 S 
ATOM     19  O   UNL     1      35.838 -24.544 -12.386  0.00  0.00    -0.069 OA
ATOM     20  O   UNL     1      37.503 -22.877 -13.195  0.00  0.00    -0.069 OA
ATOM     21  O   UNL     1      38.239 -25.217 -12.592  0.00  0.00    -0.069 OA
ENDBRANCH  17  18
BRANCH  17  22
ATOM     22  P   UNL     1      37.157 -26.591 -14.942  0.00  0.00    +0.359 P 
ATOM     23  O   UNL     1      36.602 -27.296 -16.143  0.00  0.00    -0.256 OA
BRANCH  22  24
ATOM     24  O   UNL     1      36.673 -27.207 -13.525  0.00  0.00    -0.322 OA
ATOM     25  H   UNL     1      36.398 -28.128 -13.650  0.00  0.00    +0.220 HD
ENDBRANCH  22  24
BRANCH  22  26
ATOM     26  O   UNL     1      38.768 -26.652 -14.807  0.00  0.00    -0.322 OA
ATOM     27  H   UNL     1      39.011 -26.755 -13.874  0.00  0.00    +0.220 HD
ENDBRANCH  22  26
ENDBRANCH  17  22
ENDBRANCH  16  17
ENDBRANCH  15  16
ENDBRANCH   1  15
TORSDOF 10
ENDMDL
MODEL 5
REMARK VINA RESULT:      -9.5      1.337      2.230
REMARK  Name = 24748047
REMARK  10 active torsions:
REMARK  status: ('A' for Active; 'I' for Inactive)
REMARK    1  A    between atoms: C_1  and  C_2
REMARK    2  A    between atoms: C_1  and  C_15
REMARK    3  A    between atoms: C_5  and  O_8
REMARK    4  A    between atoms: O_8  and  C_9
REMARK    5  A    between atoms: C_15  and  C_16
REMARK    6  A    between atoms: C_16  and  C_17
REMARK    7  A    between atoms: C_17  and  S_18
REMARK    8  A    between atoms: C_17  and  P_22
REMARK    9  A    between atoms: P_22  and  O_24
REMARK   10  A    between atoms: P_22  and  O_26
REMARK                            x       y       z     vdW  Elec       q    Type
REMARK                         _______ _______ _______ _____ _____    ______ ____
ROOT
ATOM      1  C   UNL     1      35.099 -23.253 -14.561  0.00  0.00    +0.027 C 
ENDROOT
BRANCH   1   2
ATOM      2  C   UNL     1      33.856 -23.124 -15.404  0.00  0.00    -0.019 C 
ATOM      3  C   UNL     1      33.958 -23.069 -16.794  0.00  0.00    +0.033 C 
ATOM      4  C   UNL     1      32.602 -23.060 -14.794  0.00  0.00    -0.004 C 
ATOM      5  C   UNL     1      32.808 -22.950 -17.574  0.00  0.00    +0.145 C 
ATOM      6  C   UNL     1      31.452 -22.941 -15.574  0.00  0.00    +0.003 C 
ATOM      7  C   UNL     1      31.555 -22.886 -16.964  0.00  0.00    +0.037 C 
BRANCH   5   8
ATOM      8  O   UNL     1      32.908 -22.897 -18.930  0.00  0.00    -0.454 OA
BRANCH   8   9
ATOM      9  C   UNL     1      33.707 -21.909 -19.478  0.00  0.00    +0.145 C 
ATOM     10  C   UNL     1      33.125 -20.801 -20.094  0.00  0.00    +0.037 C 
ATOM     11  C   UNL     1      35.097 -22.021 -19.416  0.00  0.00    +0.037 C 
ATOM     12  C   UNL     1      33.931 -19.805 -20.646  0.00  0.00    +0.003 C 
ATOM     13  C   UNL     1      35.903 -21.025 -19.968  0.00  0.00    +0.003 C 
ATOM     14  C   UNL     1      35.320 -19.917 -20.583  0.00  0.00    +0.000 C 
ENDBRANCH   8   9
ENDBRANCH   5   8
ENDBRANCH   1   2
BRANCH   1  15
ATOM     15  C   UNL     1      36.387 -22.848 -15.290  0.00  0.00    +0.007 C 
BRANCH  15  16
ATOM     16  C   UNL     1      37.428 -23.974 -15.324  0.00  0.00    +0.037 C 
BRANCH  16  17
ATOM     17  C   UNL     1      37.360 -24.960 -14.150  0.00  0.00    +0.238 C 
BRANCH  17  18
ATOM     18  S   UNL     1      37.592 -26.660 -14.682  0.00  0.00    +0.032 S 
ATOM     19  O   UNL     1      36.855 -27.394 -13.428  0.00  0.00    -0.069 OA
ATOM     20  O   UNL     1      39.007 -26.974 -14.611  0.00  0.00    -0.069 OA
ATOM     21  O   UNL     1      36.825 -26.915 -15.883  0.00  0.00    -0.069 OA
ENDBRANCH  17  18
BRANCH  17  22
ATOM     22  P   UNL     1      38.475 -24.635 -12.791  0.00  0.00    +0.359 P 
ATOM     23  O   UNL     1      38.267 -23.350 -12.048  0.00  0.00    -0.256 OA
BRANCH  22  24
ATOM     24  O   UNL     1      39.935 -24.781 -13.474  0.00  0.00    -0.322 OA
ATOM     25  H   UNL     1      40.421 -25.503 -13.047  0.00  0.00    +0.220 HD
ENDBRANCH  22  24
BRANCH  22  26
ATOM     26  O   UNL     1      38.392 -25.966 -11.875  0.00  0.00    -0.322 OA
ATOM     27  H   UNL     1      39.146 -25.987 -11.266  0.00  0.00    +0.220 HD
ENDBRANCH  22  26
ENDBRANCH  17  22
ENDBRANCH  16  17
ENDBRANCH  15  16
ENDBRANCH   1  15
TORSDOF 10
ENDMDL
MODEL 6
REMARK VINA RESULT:      -9.4      2.354      4.027
REMARK  Name = 24748047
REMARK  10 active torsions:
REMARK  status: ('A' for Active; 'I' for Inactive)
REMARK    1  A    between atoms: C_1  and  C_2
REMARK    2  A    between atoms: C_1  and  C_15
REMARK    3  A    between atoms: C_5  and  O_8
REMARK    4  A    between atoms: O_8  and  C_9
REMARK    5  A    between atoms: C_15  and  C_16
REMARK    6  A    between atoms: C_16  and  C_17
REMARK    7  A    between atoms: C_17  and  S_18
REMARK    8  A    between atoms: C_17  and  P_22
REMARK    9  A    between atoms: P_22  and  O_24
REMARK   10  A    between atoms: P_22  and  O_26
REMARK                            x       y       z     vdW  Elec       q    Type
REMARK                         _______ _______ _______ _____ _____    ______ ____
ROOT
ATOM      1  C   UNL     1      33.988 -23.201 -17.092  0.00  0.00    +0.027 C 
ENDROOT
BRANCH   1   2
ATOM      2  C   UNL     1      34.630 -22.309 -18.126  0.00  0.00    -0.019 C 
ATOM      3  C   UNL     1      33.848 -21.711 -19.114  0.00  0.00    +0.033 C 
ATOM      4  C   UNL     1      36.006 -22.081 -18.093  0.00  0.00    -0.004 C 
ATOM      5  C   UNL     1      34.441 -20.886 -20.069  0.00  0.00    +0.145 C 
ATOM      6  C   UNL     1      36.599 -21.256 -19.049  0.00  0.00    +0.003 C 
ATOM      7  C   UNL     1      35.817 -20.658 -20.036  0.00  0.00    +0.037 C 
BRANCH   5   8
ATOM      8  O   UNL     1      33.678 -20.302 -21.032  0.00  0.00    -0.454 OA
BRANCH   8   9
ATOM      9  C   UNL     1      34.204 -19.207 -21.695  0.00  0.00    +0.145 C 
ATOM     10  C   UNL     1      34.189 -17.950 -21.088  0.00  0.00    +0.037 C 
ATOM     11  C   UNL     1      34.749 -19.358 -22.970  0.00  0.00    +0.037 C 
ATOM     12  C   UNL     1      34.720 -16.847 -21.755  0.00  0.00    +0.003 C 
ATOM     13  C   UNL     1      35.280 -18.254 -23.637  0.00  0.00    +0.003 C 
ATOM     14  C   UNL     1      35.266 -16.999 -23.030  0.00  0.00    +0.000 C 
ENDBRANCH   8   9
ENDBRANCH   5   8
ENDBRANCH   1   2
BRANCH   1  15
ATOM     15  C   UNL     1      34.549 -23.010 -15.676  0.00  0.00    +0.007 C 
BRANCH  15  16
ATOM     16  C   UNL     1      35.211 -24.279 -15.125  0.00  0.00    +0.037 C 
BRANCH  16  17
ATOM     17  C   UNL     1      36.362 -24.038 -14.138  0.00  0.00    +0.238 C 
BRANCH  17  18
ATOM     18  S   UNL     1      35.931 -24.531 -12.465  0.00  0.00    +0.032 S 
ATOM     19  O   UNL     1      36.693 -23.330 -11.671  0.00  0.00    -0.069 OA
ATOM     20  O   UNL     1      36.619 -25.771 -12.161  0.00  0.00    -0.069 OA
ATOM     21  O   UNL     1      34.505 -24.391 -12.256  0.00  0.00    -0.069 OA
ENDBRANCH  17  18
BRANCH  17  22
ATOM     22  P   UNL     1      37.926 -24.790 -14.565  0.00  0.00    +0.359 P 
ATOM     23  O   UNL     1      37.876 -26.211 -15.041  0.00  0.00    -0.256 OA
BRANCH  22  24
ATOM     24  O   UNL     1      38.816 -24.565 -13.231  0.00  0.00    -0.322 OA
ATOM     25  H   UNL     1      39.200 -23.676 -13.246  0.00  0.00    +0.220 HD
ENDBRANCH  22  24
BRANCH  22  26
ATOM     26  O   UNL     1      38.602 -23.752 -15.605  0.00  0.00    -0.322 OA
ATOM     27  H   UNL     1      38.164 -23.827 -16.467  0.00  0.00    +0.220 HD
ENDBRANCH  22  26
ENDBRANCH  17  22
ENDBRANCH  16  17
ENDBRANCH  15  16
ENDBRANCH   1  15
TORSDOF 10
ENDMDL
MODEL 7
REMARK VINA RESULT:      -9.4      3.668      5.931
REMARK  Name = 24748047
REMARK  10 active torsions:
REMARK  status: ('A' for Active; 'I' for Inactive)
REMARK    1  A    between atoms: C_1  and  C_2
REMARK    2  A    between atoms: C_1  and  C_15
REMARK    3  A    between atoms: C_5  and  O_8
REMARK    4  A    between atoms: O_8  and  C_9
REMARK    5  A    between atoms: C_15  and  C_16
REMARK    6  A    between atoms: C_16  and  C_17
REMARK    7  A    between atoms: C_17  and  S_18
REMARK    8  A    between atoms: C_17  and  P_22
REMARK    9  A    between atoms: P_22  and  O_24
REMARK   10  A    between atoms: P_22  and  O_26
REMARK                            x       y       z     vdW  Elec       q    Type
REMARK                         _______ _______ _______ _____ _____    ______ ____
ROOT
ATOM      1  C   UNL     1      35.003 -22.601 -18.901  0.00  0.00    +0.027 C 
ENDROOT
BRANCH   1   2
ATOM      2  C   UNL     1      34.515 -21.394 -19.664  0.00  0.00    -0.019 C 
ATOM      3  C   UNL     1      35.419 -20.608 -20.378  0.00  0.00    +0.033 C 
ATOM      4  C   UNL     1      33.160 -21.065 -19.656  0.00  0.00    -0.004 C 
ATOM      5  C   UNL     1      34.968 -19.493 -21.084  0.00  0.00    +0.145 C 
ATOM      6  C   UNL     1      32.708 -19.950 -20.361  0.00  0.00    +0.003 C 
ATOM      7  C   UNL     1      33.612 -19.164 -21.076  0.00  0.00    +0.037 C 
BRANCH   5   8
ATOM      8  O   UNL     1      35.850 -18.726 -21.781  0.00  0.00    -0.454 OA
BRANCH   8   9
ATOM      9  C   UNL     1      35.369 -18.024 -22.873  0.00  0.00    +0.145 C 
ATOM     10  C   UNL     1      35.226 -16.638 -22.804  0.00  0.00    +0.037 C 
ATOM     11  C   UNL     1      35.025 -18.702 -24.043  0.00  0.00    +0.037 C 
ATOM     12  C   UNL     1      34.742 -15.930 -23.904  0.00  0.00    +0.003 C 
ATOM     13  C   UNL     1      34.540 -17.994 -25.143  0.00  0.00    +0.003 C 
ATOM     14  C   UNL     1      34.399 -16.609 -25.073  0.00  0.00    +0.000 C 
ENDBRANCH   8   9
ENDBRANCH   5   8
ENDBRANCH   1   2
BRANCH   1  15
ATOM     15  C   UNL     1      34.897 -22.454 -17.377  0.00  0.00    +0.007 C 
BRANCH  15  16
ATOM     16  C   UNL     1      33.908 -23.446 -16.754  0.00  0.00    +0.037 C 
BRANCH  16  17
ATOM     17  C   UNL     1      33.600 -23.213 -15.268  0.00  0.00    +0.238 C 
BRANCH  17  18
ATOM     18  S   UNL     1      31.995 -23.871 -14.800  0.00  0.00    +0.032 S 
ATOM     19  O   UNL     1      31.592 -22.732 -13.706  0.00  0.00    -0.069 OA
ATOM     20  O   UNL     1      32.199 -25.118 -14.089  0.00  0.00    -0.069 OA
ATOM     21  O   UNL     1      31.076 -23.784 -15.916  0.00  0.00    -0.069 OA
ENDBRANCH  17  18
BRANCH  17  22
ATOM     22  P   UNL     1      34.819 -23.824 -14.113  0.00  0.00    +0.359 P 
ATOM     23  O   UNL     1      36.160 -23.154 -14.141  0.00  0.00    -0.256 OA
BRANCH  22  24
ATOM     24  O   UNL     1      34.861 -25.411 -14.429  0.00  0.00    -0.322 OA
ATOM     25  H   UNL     1      34.333 -25.886 -13.770  0.00  0.00    +0.220 HD
ENDBRANCH  22  24
BRANCH  22  26
ATOM     26  O   UNL     1      34.073 -23.781 -12.679  0.00  0.00    -0.322 OA
ATOM     27  H   UNL     1      33.973 -22.860 -12.393  0.00  0.00    +0.220 HD
ENDBRANCH  22  26
ENDBRANCH  17  22
ENDBRANCH  16  17
ENDBRANCH  15  16
ENDBRANCH   1  15
TORSDOF 10
ENDMDL
MODEL 8
REMARK VINA RESULT:      -9.3      1.211      3.688
REMARK  Name = 24748047
REMARK  10 active torsions:
REMARK  status: ('A' for Active; 'I' for Inactive)
REMARK    1  A    between atoms: C_1  and  C_2
REMARK    2  A    between atoms: C_1  and  C_15
REMARK    3  A    between atoms: C_5  and  O_8
REMARK    4  A    between atoms: O_8  and  C_9
REMARK    5  A    between atoms: C_15  and  C_16
REMARK    6  A    between atoms: C_16  and  C_17
REMARK    7  A    between atoms: C_17  and  S_18
REMARK    8  A    between atoms: C_17  and  P_22
REMARK    9  A    between atoms: P_22  and  O_24
REMARK   10  A    between atoms: P_22  and  O_26
REMARK                            x       y       z     vdW  Elec       q    Type
REMARK                         _______ _______ _______ _____ _____    ______ ____
ROOT
ATOM      1  C   UNL     1      37.221 -22.461 -16.398  0.00  0.00    +0.027 C 
ENDROOT
BRANCH   1   2
ATOM      2  C   UNL     1      36.140 -22.263 -17.430  0.00  0.00    -0.019 C 
ATOM      3  C   UNL     1      34.875 -22.817 -17.230  0.00  0.00    +0.033 C 
ATOM      4  C   UNL     1      36.404 -21.526 -18.585  0.00  0.00    -0.004 C 
ATOM      5  C   UNL     1      33.874 -22.633 -18.184  0.00  0.00    +0.145 C 
ATOM      6  C   UNL     1      35.403 -21.344 -19.539  0.00  0.00    +0.003 C 
ATOM      7  C   UNL     1      34.138 -21.896 -19.339  0.00  0.00    +0.037 C 
BRANCH   5   8
ATOM      8  O   UNL     1      32.641 -23.173 -17.989  0.00  0.00    -0.454 OA
BRANCH   8   9
ATOM      9  C   UNL     1      32.123 -23.147 -16.705  0.00  0.00    +0.145 C 
ATOM     10  C   UNL     1      30.784 -22.815 -16.498  0.00  0.00    +0.037 C 
ATOM     11  C   UNL     1      32.941 -23.453 -15.616  0.00  0.00    +0.037 C 
ATOM     12  C   UNL     1      30.263 -22.789 -15.204  0.00  0.00    +0.003 C 
ATOM     13  C   UNL     1      32.420 -23.428 -14.323  0.00  0.00    +0.003 C 
ATOM     14  C   UNL     1      31.081 -23.096 -14.117  0.00  0.00    +0.000 C 
ENDBRANCH   8   9
ENDBRANCH   5   8
ENDBRANCH   1   2
BRANCH   1  15
ATOM     15  C   UNL     1      36.708 -22.445 -14.951  0.00  0.00    +0.007 C 
BRANCH  15  16
ATOM     16  C   UNL     1      37.076 -23.716 -14.177  0.00  0.00    +0.037 C 
BRANCH  16  17
ATOM     17  C   UNL     1      37.624 -24.865 -15.035  0.00  0.00    +0.238 C 
BRANCH  17  18
ATOM     18  S   UNL     1      39.329 -25.260 -14.625  0.00  0.00    +0.032 S 
ATOM     19  O   UNL     1      39.294 -24.813 -13.058  0.00  0.00    -0.069 OA
ATOM     20  O   UNL     1      40.196 -24.337 -15.331  0.00  0.00    -0.069 OA
ATOM     21  O   UNL     1      39.539 -26.691 -14.693  0.00  0.00    -0.069 OA
ENDBRANCH  17  18
BRANCH  17  22
ATOM     22  P   UNL     1      36.673 -26.378 -15.013  0.00  0.00    +0.359 P 
ATOM     23  O   UNL     1      36.798 -27.264 -16.216  0.00  0.00    -0.256 OA
BRANCH  22  24
ATOM     24  O   UNL     1      35.168 -25.860 -14.720  0.00  0.00    -0.322 OA
ATOM     25  H   UNL     1      34.850 -25.346 -15.477  0.00  0.00    +0.220 HD
ENDBRANCH  22  24
BRANCH  22  26
ATOM     26  O   UNL     1      37.070 -27.083 -13.612  0.00  0.00    -0.322 OA
ATOM     27  H   UNL     1      36.469 -27.825 -13.441  0.00  0.00    +0.220 HD
ENDBRANCH  22  26
ENDBRANCH  17  22
ENDBRANCH  16  17
ENDBRANCH  15  16
ENDBRANCH   1  15
TORSDOF 10
ENDMDL
MODEL 9
REMARK VINA RESULT:      -9.3      3.528      5.414
REMARK  Name = 24748047
REMARK  10 active torsions:
REMARK  status: ('A' for Active; 'I' for Inactive)
REMARK    1  A    between atoms: C_1  and  C_2
REMARK    2  A    between atoms: C_1  and  C_15
REMARK    3  A    between atoms: C_5  and  O_8
REMARK    4  A    between atoms: O_8  and  C_9
REMARK    5  A    between atoms: C_15  and  C_16
REMARK    6  A    between atoms: C_16  and  C_17
REMARK    7  A    between atoms: C_17  and  S_18
REMARK    8  A    between atoms: C_17  and  P_22
REMARK    9  A    between atoms: P_22  and  O_24
REMARK   10  A    between atoms: P_22  and  O_26
REMARK                            x       y       z     vdW  Elec       q    Type
REMARK                         _______ _______ _______ _____ _____    ______ ____
ROOT
ATOM      1  C   UNL     1      34.712 -22.479 -18.512  0.00  0.00    +0.027 C 
ENDROOT
BRANCH   1   2
ATOM      2  C   UNL     1      34.306 -21.378 -19.460  0.00  0.00    -0.019 C 
ATOM      3  C   UNL     1      35.269 -20.738 -20.239  0.00  0.00    +0.033 C 
ATOM      4  C   UNL     1      32.966 -21.002 -19.559  0.00  0.00    -0.004 C 
ATOM      5  C   UNL     1      34.894 -19.721 -21.117  0.00  0.00    +0.145 C 
ATOM      6  C   UNL     1      32.591 -19.984 -20.436  0.00  0.00    +0.003 C 
ATOM      7  C   UNL     1      33.554 -19.344 -21.215  0.00  0.00    +0.037 C 
BRANCH   5   8
ATOM      8  O   UNL     1      35.834 -19.096 -21.877  0.00  0.00    -0.454 OA
BRANCH   8   9
ATOM      9  C   UNL     1      35.392 -18.271 -22.897  0.00  0.00    +0.145 C 
ATOM     10  C   UNL     1      35.339 -16.891 -22.706  0.00  0.00    +0.037 C 
ATOM     11  C   UNL     1      34.998 -18.821 -24.118  0.00  0.00    +0.037 C 
ATOM     12  C   UNL     1      34.894 -16.060 -23.734  0.00  0.00    +0.003 C 
ATOM     13  C   UNL     1      34.553 -17.990 -25.146  0.00  0.00    +0.003 C 
ATOM     14  C   UNL     1      34.501 -16.610 -24.954  0.00  0.00    +0.000 C 
ENDBRANCH   8   9
ENDBRANCH   5   8
ENDBRANCH   1   2
BRANCH   1  15
ATOM     15  C   UNL     1      33.526 -23.206 -17.864  0.00  0.00    +0.007 C 
BRANCH  15  16
ATOM     16  C   UNL     1      33.372 -22.877 -16.374  0.00  0.00    +0.037 C 
BRANCH  16  17
ATOM     17  C   UNL     1      33.367 -24.092 -15.436  0.00  0.00    +0.238 C 
BRANCH  17  18
ATOM     18  S   UNL     1      34.966 -24.353 -14.660  0.00  0.00    +0.032 S 
ATOM     19  O   UNL     1      35.618 -22.896 -14.988  0.00  0.00    -0.069 OA
ATOM     20  O   UNL     1      35.692 -25.347 -15.427  0.00  0.00    -0.069 OA
ATOM     21  O   UNL     1      34.810 -24.477 -13.226  0.00  0.00    -0.069 OA
ENDBRANCH  17  18
BRANCH  17  22
ATOM     22  P   UNL     1      32.114 -24.088 -14.160  0.00  0.00    +0.359 P 
ATOM     23  O   UNL     1      30.704 -23.849 -14.610  0.00  0.00    -0.256 OA
BRANCH  22  24
ATOM     24  O   UNL     1      32.671 -22.996 -13.104  0.00  0.00    -0.322 OA
ATOM     25  H   UNL     1      31.933 -22.464 -12.769  0.00  0.00    +0.220 HD
ENDBRANCH  22  24
BRANCH  22  26
ATOM     26  O   UNL     1      32.343 -25.479 -13.367  0.00  0.00    -0.322 OA
ATOM     27  H   UNL     1      32.723 -25.295 -12.494  0.00  0.00    +0.220 HD
ENDBRANCH  22  26
ENDBRANCH  17  22
ENDBRANCH  16  17
ENDBRANCH  15  16
ENDBRANCH   1  15
TORSDOF 10
ENDMDL
