MODEL 1
REMARK VINA RESULT:      -8.5      0.000      0.000
REMARK  Name = 53001
REMARK  6 active torsions:
REMARK  status: ('A' for Active; 'I' for Inactive)
REMARK    1  A    between atoms: C_1  and  O_11
REMARK    2  A    between atoms: C_4  and  C_8
REMARK    3  A    between atoms: C_8  and  O_9
REMARK    4  A    between atoms: O_11  and  C_12
REMARK    5  A    between atoms: C_12  and  C_13
REMARK    6  A    between atoms: C_13  and  N_14
REMARK                            x       y       z     vdW  Elec       q    Type
REMARK                         _______ _______ _______ _____ _____    ______ ____
ROOT
ATOM      1  C   UNL     1      35.335 -19.604 -20.977  0.00  0.00    +0.139 C 
ATOM      2  C   UNL     1      36.069 -20.542 -20.249  0.00  0.00    +0.037 C 
ATOM      3  C   UNL     1      33.942 -19.653 -20.973  0.00  0.00    +0.037 C 
ATOM      4  C   UNL     1      34.014 -21.576 -19.512  0.00  0.00    +0.076 C 
ATOM      5  C   UNL     1      35.407 -21.528 -19.516  0.00  0.00    +0.010 C 
ATOM      6  C   UNL     1      33.281 -20.638 -20.240  0.00  0.00    +0.010 C 
ENDROOT
BRANCH   4   8
ATOM      7  O   UNL     1      32.336 -22.421 -18.030  0.00  0.00    -0.245 OA
ATOM      8  C   UNL     1      33.324 -22.605 -18.749  0.00  0.00    +0.338 C 
BRANCH   8   9
ATOM      9  O   UNL     1      33.886 -23.834 -18.907  0.00  0.00    -0.477 OA
ATOM     10  H   UNL     1      34.012 -24.185 -19.766  0.00  0.00    +0.295 HD
ENDBRANCH   8   9
ENDBRANCH   4   8
BRANCH   1  11
ATOM     11  O   UNL     1      35.981 -18.644 -21.693  0.00  0.00    -0.474 OA
BRANCH  11  12
ATOM     12  C   UNL     1      35.349 -18.187 -22.888  0.00  0.00    +0.227 C 
BRANCH  12  13
ATOM     13  C   UNL     1      35.211 -16.671 -22.848  0.00  0.00    +0.144 C 
BRANCH  13  14
ATOM     14  N   UNL     1      34.514 -16.142 -24.018  0.00  0.00    -0.264 N 
ATOM     15  N   UNL     1      33.800 -15.982 -26.096  0.00  0.00    -0.225 NA
ATOM     16  C   UNL     1      33.750 -15.023 -24.044  0.00  0.00    +0.088 C 
ATOM     17  C   UNL     1      34.523 -16.691 -25.259  0.00  0.00    +0.168 C 
ATOM     18  C   UNL     1      33.316 -14.940 -25.345  0.00  0.00    +0.117 C 
ENDBRANCH  13  14
ENDBRANCH  12  13
ENDBRANCH  11  12
ENDBRANCH   1  11
TORSDOF 6
ENDMDL
MODEL 2
REMARK VINA RESULT:      -8.0      1.917      2.194
REMARK  Name = 53001
REMARK  6 active torsions:
REMARK  status: ('A' for Active; 'I' for Inactive)
REMARK    1  A    between atoms: C_1  and  O_11
REMARK    2  A    between atoms: C_4  and  C_8
REMARK    3  A    between atoms: C_8  and  O_9
REMARK    4  A    between atoms: O_11  and  C_12
REMARK    5  A    between atoms: C_12  and  C_13
REMARK    6  A    between atoms: C_13  and  N_14
REMARK                            x       y       z     vdW  Elec       q    Type
REMARK                         _______ _______ _______ _____ _____    ______ ____
ROOT
ATOM      1  C   UNL     1      34.336 -19.105 -21.209  0.00  0.00    +0.139 C 
ATOM      2  C   UNL     1      35.565 -19.679 -20.882  0.00  0.00    +0.037 C 
ATOM      3  C   UNL     1      33.153 -19.679 -20.745  0.00  0.00    +0.037 C 
ATOM      4  C   UNL     1      34.426 -21.401 -19.626  0.00  0.00    +0.076 C 
ATOM      5  C   UNL     1      35.609 -20.828 -20.090  0.00  0.00    +0.010 C 
ATOM      6  C   UNL     1      33.198 -20.826 -19.953  0.00  0.00    +0.010 C 
ENDROOT
BRANCH   4   8
ATOM      7  O   UNL     1      35.004 -22.680 -17.689  0.00  0.00    -0.245 OA
ATOM      8  C   UNL     1      34.473 -22.598 -18.802  0.00  0.00    +0.338 C 
BRANCH   8   9
ATOM      9  O   UNL     1      33.853 -23.658 -19.389  0.00  0.00    -0.477 OA
ATOM     10  H   UNL     1      33.985 -23.833 -20.300  0.00  0.00    +0.295 HD
ENDBRANCH   8   9
ENDBRANCH   4   8
BRANCH   1  11
ATOM     11  O   UNL     1      34.294 -17.986 -21.983  0.00  0.00    -0.474 OA
BRANCH  11  12
ATOM     12  C   UNL     1      35.034 -16.854 -21.530  0.00  0.00    +0.227 C 
BRANCH  12  13
ATOM     13  C   UNL     1      34.084 -15.830 -20.923  0.00  0.00    +0.144 C 
BRANCH  13  14
ATOM     14  N   UNL     1      33.648 -14.828 -21.894  0.00  0.00    -0.264 N 
ATOM     15  N   UNL     1      32.354 -13.353 -22.895  0.00  0.00    -0.225 NA
ATOM     16  C   UNL     1      34.376 -14.374 -22.942  0.00  0.00    +0.088 C 
ATOM     17  C   UNL     1      32.446 -14.199 -21.894  0.00  0.00    +0.168 C 
ATOM     18  C   UNL     1      33.554 -13.458 -23.553  0.00  0.00    +0.117 C 
ENDBRANCH  13  14
ENDBRANCH  12  13
ENDBRANCH  11  12
ENDBRANCH   1  11
TORSDOF 6
ENDMDL
MODEL 3
REMARK VINA RESULT:      -8.0      1.133      1.491
REMARK  Name = 53001
REMARK  6 active torsions:
REMARK  status: ('A' for Active; 'I' for Inactive)
REMARK    1  A    between atoms: C_1  and  O_11
REMARK    2  A    between atoms: C_4  and  C_8
REMARK    3  A    between atoms: C_8  and  O_9
REMARK    4  A    between atoms: O_11  and  C_12
REMARK    5  A    between atoms: C_12  and  C_13
REMARK    6  A    between atoms: C_13  and  N_14
REMARK                            x       y       z     vdW  Elec       q    Type
REMARK                         _______ _______ _______ _____ _____    ______ ____
ROOT
ATOM      1  C   UNL     1      34.294 -19.164 -21.188  0.00  0.00    +0.139 C 
ATOM      2  C   UNL     1      35.529 -19.726 -20.862  0.00  0.00    +0.037 C 
ATOM      3  C   UNL     1      33.116 -19.755 -20.730  0.00  0.00    +0.037 C 
ATOM      4  C   UNL     1      34.408 -21.468 -19.619  0.00  0.00    +0.076 C 
ATOM      5  C   UNL     1      35.585 -20.879 -20.077  0.00  0.00    +0.010 C 
ATOM      6  C   UNL     1      33.173 -20.906 -19.945  0.00  0.00    +0.010 C 
ENDROOT
BRANCH   4   8
ATOM      7  O   UNL     1      34.955 -22.742 -17.669  0.00  0.00    -0.245 OA
ATOM      8  C   UNL     1      34.467 -22.670 -18.802  0.00  0.00    +0.338 C 
BRANCH   8   9
ATOM      9  O   UNL     1      33.914 -23.748 -19.421  0.00  0.00    -0.477 OA
ATOM     10  H   UNL     1      33.076 -23.673 -19.833  0.00  0.00    +0.295 HD
ENDBRANCH   8   9
ENDBRANCH   4   8
BRANCH   1  11
ATOM     11  O   UNL     1      34.239 -18.041 -21.955  0.00  0.00    -0.474 OA
BRANCH  11  12
ATOM     12  C   UNL     1      35.379 -17.749 -22.761  0.00  0.00    +0.227 C 
BRANCH  12  13
ATOM     13  C   UNL     1      34.932 -17.398 -24.174  0.00  0.00    +0.144 C 
BRANCH  13  14
ATOM     14  N   UNL     1      34.371 -16.052 -24.265  0.00  0.00    -0.264 N 
ATOM     15  N   UNL     1      33.917 -13.965 -23.723  0.00  0.00    -0.225 NA
ATOM     16  C   UNL     1      33.586 -15.589 -25.268  0.00  0.00    +0.088 C 
ATOM     17  C   UNL     1      34.549 -15.058 -23.359  0.00  0.00    +0.168 C 
ATOM     18  C   UNL     1      33.314 -14.290 -24.912  0.00  0.00    +0.117 C 
ENDBRANCH  13  14
ENDBRANCH  12  13
ENDBRANCH  11  12
ENDBRANCH   1  11
TORSDOF 6
ENDMDL
MODEL 4
REMARK VINA RESULT:      -7.9      1.578      2.545
REMARK  Name = 53001
REMARK  6 active torsions:
REMARK  status: ('A' for Active; 'I' for Inactive)
REMARK    1  A    between atoms: C_1  and  O_11
REMARK    2  A    between atoms: C_4  and  C_8
REMARK    3  A    between atoms: C_8  and  O_9
REMARK    4  A    between atoms: O_11  and  C_12
REMARK    5  A    between atoms: C_12  and  C_13
REMARK    6  A    between atoms: C_13  and  N_14
REMARK                            x       y       z     vdW  Elec       q    Type
REMARK                         _______ _______ _______ _____ _____    ______ ____
ROOT
ATOM      1  C   UNL     1      35.359 -19.203 -21.271  0.00  0.00    +0.139 C 
ATOM      2  C   UNL     1      33.985 -19.393 -21.118  0.00  0.00    +0.037 C 
ATOM      3  C   UNL     1      36.256 -20.031 -20.598  0.00  0.00    +0.037 C 
ATOM      4  C   UNL     1      34.407 -21.240 -19.619  0.00  0.00    +0.076 C 
ATOM      5  C   UNL     1      33.509 -20.412 -20.291  0.00  0.00    +0.010 C 
ATOM      6  C   UNL     1      35.781 -21.050 -19.773  0.00  0.00    +0.010 C 
ENDROOT
BRANCH   4   8
ATOM      7  O   UNL     1      34.615 -23.091 -18.118  0.00  0.00    -0.245 OA
ATOM      8  C   UNL     1      33.912 -22.301 -18.757  0.00  0.00    +0.338 C 
BRANCH   8   9
ATOM      9  O   UNL     1      32.552 -22.345 -18.715  0.00  0.00    -0.477 OA
ATOM     10  H   UNL     1      32.055 -21.555 -18.788  0.00  0.00    +0.295 HD
ENDBRANCH   8   9
ENDBRANCH   4   8
BRANCH   1  11
ATOM     11  O   UNL     1      35.821 -18.208 -22.076  0.00  0.00    -0.474 OA
BRANCH  11  12
ATOM     12  C   UNL     1      34.902 -17.649 -23.013  0.00  0.00    +0.227 C 
BRANCH  12  13
ATOM     13  C   UNL     1      35.097 -16.140 -23.084  0.00  0.00    +0.144 C 
BRANCH  13  14
ATOM     14  N   UNL     1      34.101 -15.410 -22.303  0.00  0.00    -0.264 N 
ATOM     15  N   UNL     1      33.023 -14.632 -20.546  0.00  0.00    -0.225 NA
ATOM     16  C   UNL     1      33.096 -14.656 -22.811  0.00  0.00    +0.088 C 
ATOM     17  C   UNL     1      34.029 -15.375 -20.949  0.00  0.00    +0.168 C 
ATOM     18  C   UNL     1      32.436 -14.181 -21.702  0.00  0.00    +0.117 C 
ENDBRANCH  13  14
ENDBRANCH  12  13
ENDBRANCH  11  12
ENDBRANCH   1  11
TORSDOF 6
ENDMDL
MODEL 5
REMARK VINA RESULT:      -7.9      5.186      8.752
REMARK  Name = 53001
REMARK  6 active torsions:
REMARK  status: ('A' for Active; 'I' for Inactive)
REMARK    1  A    between atoms: C_1  and  O_11
REMARK    2  A    between atoms: C_4  and  C_8
REMARK    3  A    between atoms: C_8  and  O_9
REMARK    4  A    between atoms: O_11  and  C_12
REMARK    5  A    between atoms: C_12  and  C_13
REMARK    6  A    between atoms: C_13  and  N_14
REMARK                            x       y       z     vdW  Elec       q    Type
REMARK                         _______ _______ _______ _____ _____    ______ ____
ROOT
ATOM      1  C   UNL     1      34.471 -22.379 -18.497  0.00  0.00    +0.139 C 
ATOM      2  C   UNL     1      35.739 -21.906 -18.837  0.00  0.00    +0.037 C 
ATOM      3  C   UNL     1      33.337 -21.829 -19.095  0.00  0.00    +0.037 C 
ATOM      4  C   UNL     1      34.739 -20.334 -20.375  0.00  0.00    +0.076 C 
ATOM      5  C   UNL     1      35.872 -20.883 -19.777  0.00  0.00    +0.010 C 
ATOM      6  C   UNL     1      33.472 -20.807 -20.035  0.00  0.00    +0.010 C 
ENDROOT
BRANCH   4   8
ATOM      7  O   UNL     1      34.570 -19.346 -22.547  0.00  0.00    -0.245 OA
ATOM      8  C   UNL     1      34.878 -19.267 -21.353  0.00  0.00    +0.338 C 
BRANCH   8   9
ATOM      9  O   UNL     1      35.397 -18.130 -20.813  0.00  0.00    -0.477 OA
ATOM     10  H   UNL     1      36.323 -18.043 -20.705  0.00  0.00    +0.295 HD
ENDBRANCH   8   9
ENDBRANCH   4   8
BRANCH   1  11
ATOM     11  O   UNL     1      34.341 -23.376 -17.580  0.00  0.00    -0.474 OA
BRANCH  11  12
ATOM     12  C   UNL     1      34.574 -23.037 -16.214  0.00  0.00    +0.227 C 
BRANCH  12  13
ATOM     13  C   UNL     1      34.941 -24.290 -15.430  0.00  0.00    +0.144 C 
BRANCH  13  14
ATOM     14  N   UNL     1      36.379 -24.406 -15.200  0.00  0.00    -0.264 N 
ATOM     15  N   UNL     1      38.503 -23.833 -15.098  0.00  0.00    -0.225 NA
ATOM     16  C   UNL     1      37.022 -25.515 -14.760  0.00  0.00    +0.088 C 
ATOM     17  C   UNL     1      37.291 -23.420 -15.392  0.00  0.00    +0.168 C 
ATOM     18  C   UNL     1      38.343 -25.138 -14.704  0.00  0.00    +0.117 C 
ENDBRANCH  13  14
ENDBRANCH  12  13
ENDBRANCH  11  12
ENDBRANCH   1  11
TORSDOF 6
ENDMDL
MODEL 6
REMARK VINA RESULT:      -7.8      4.959      8.655
REMARK  Name = 53001
REMARK  6 active torsions:
REMARK  status: ('A' for Active; 'I' for Inactive)
REMARK    1  A    between atoms: C_1  and  O_11
REMARK    2  A    between atoms: C_4  and  C_8
REMARK    3  A    between atoms: C_8  and  O_9
REMARK    4  A    between atoms: O_11  and  C_12
REMARK    5  A    between atoms: C_12  and  C_13
REMARK    6  A    between atoms: C_13  and  N_14
REMARK                            x       y       z     vdW  Elec       q    Type
REMARK                         _______ _______ _______ _____ _____    ______ ____
ROOT
ATOM      1  C   UNL     1      34.328 -22.099 -19.324  0.00  0.00    +0.139 C 
ATOM      2  C   UNL     1      33.239 -21.337 -19.748  0.00  0.00    +0.037 C 
ATOM      3  C   UNL     1      35.626 -21.682 -19.618  0.00  0.00    +0.037 C 
ATOM      4  C   UNL     1      34.746 -19.743 -20.758  0.00  0.00    +0.076 C 
ATOM      5  C   UNL     1      33.448 -20.159 -20.466  0.00  0.00    +0.010 C 
ATOM      6  C   UNL     1      35.836 -20.504 -20.334  0.00  0.00    +0.010 C 
ENDROOT
BRANCH   4   8
ATOM      7  O   UNL     1      34.877 -18.401 -22.734  0.00  0.00    -0.245 OA
ATOM      8  C   UNL     1      34.965 -18.515 -21.507  0.00  0.00    +0.338 C 
BRANCH   8   9
ATOM      9  O   UNL     1      35.284 -17.465 -20.703  0.00  0.00    -0.477 OA
ATOM     10  H   UNL     1      35.499 -17.612 -19.804  0.00  0.00    +0.295 HD
ENDBRANCH   8   9
ENDBRANCH   4   8
BRANCH   1  11
ATOM     11  O   UNL     1      34.123 -23.249 -18.626  0.00  0.00    -0.474 OA
BRANCH  11  12
ATOM     12  C   UNL     1      33.207 -23.191 -17.533  0.00  0.00    +0.227 C 
BRANCH  12  13
ATOM     13  C   UNL     1      33.967 -23.321 -16.220  0.00  0.00    +0.144 C 
BRANCH  13  14
ATOM     14  N   UNL     1      33.082 -23.568 -15.084  0.00  0.00    -0.264 N 
ATOM     15  N   UNL     1      32.373 -24.368 -13.158  0.00  0.00    -0.225 NA
ATOM     16  C   UNL     1      31.835 -23.061 -14.929  0.00  0.00    +0.088 C 
ATOM     17  C   UNL     1      33.373 -24.344 -14.010  0.00  0.00    +0.168 C 
ATOM     18  C   UNL     1      31.411 -23.570 -13.725  0.00  0.00    +0.117 C 
ENDBRANCH  13  14
ENDBRANCH  12  13
ENDBRANCH  11  12
ENDBRANCH   1  11
TORSDOF 6
ENDMDL
MODEL 7
REMARK VINA RESULT:      -7.8      9.317     10.884
REMARK  Name = 53001
REMARK  6 active torsions:
REMARK  status: ('A' for Active; 'I' for Inactive)
REMARK    1  A    between atoms: C_1  and  O_11
REMARK    2  A    between atoms: C_4  and  C_8
REMARK    3  A    between atoms: C_8  and  O_9
REMARK    4  A    between atoms: O_11  and  C_12
REMARK    5  A    between atoms: C_12  and  C_13
REMARK    6  A    between atoms: C_13  and  N_14
REMARK                            x       y       z     vdW  Elec       q    Type
REMARK                         _______ _______ _______ _____ _____    ______ ____
ROOT
ATOM      1  C   UNL     1      31.714 -24.282 -14.284  0.00  0.00    +0.139 C 
ATOM      2  C   UNL     1      31.823 -23.218 -15.181  0.00  0.00    +0.037 C 
ATOM      3  C   UNL     1      30.534 -25.023 -14.223  0.00  0.00    +0.037 C 
ATOM      4  C   UNL     1      29.573 -23.638 -15.953  0.00  0.00    +0.076 C 
ATOM      5  C   UNL     1      30.752 -22.896 -16.015  0.00  0.00    +0.010 C 
ATOM      6  C   UNL     1      29.464 -24.701 -15.058  0.00  0.00    +0.010 C 
ENDROOT
BRANCH   4   8
ATOM      7  O   UNL     1      27.780 -24.112 -17.464  0.00  0.00    -0.245 OA
ATOM      8  C   UNL     1      28.457 -23.301 -16.823  0.00  0.00    +0.338 C 
BRANCH   8   9
ATOM      9  O   UNL     1      28.215 -21.962 -16.865  0.00  0.00    -0.477 OA
ATOM     10  H   UNL     1      28.098 -21.482 -16.069  0.00  0.00    +0.295 HD
ENDBRANCH   8   9
ENDBRANCH   4   8
BRANCH   1  11
ATOM     11  O   UNL     1      32.758 -24.594 -13.470  0.00  0.00    -0.474 OA
BRANCH  11  12
ATOM     12  C   UNL     1      34.029 -24.038 -13.800  0.00  0.00    +0.227 C 
BRANCH  12  13
ATOM     13  C   UNL     1      35.073 -24.511 -12.796  0.00  0.00    +0.144 C 
BRANCH  13  14
ATOM     14  N   UNL     1      36.167 -25.242 -13.430  0.00  0.00    -0.264 N 
ATOM     15  N   UNL     1      37.985 -26.471 -13.627  0.00  0.00    -0.225 NA
ATOM     16  C   UNL     1      36.372 -25.358 -14.765  0.00  0.00    +0.088 C 
ATOM     17  C   UNL     1      37.147 -25.917 -12.779  0.00  0.00    +0.168 C 
ATOM     18  C   UNL     1      37.507 -26.126 -14.867  0.00  0.00    +0.117 C 
ENDBRANCH  13  14
ENDBRANCH  12  13
ENDBRANCH  11  12
ENDBRANCH   1  11
TORSDOF 6
ENDMDL
MODEL 8
REMARK VINA RESULT:      -7.7      3.631      7.468
REMARK  Name = 53001
REMARK  6 active torsions:
REMARK  status: ('A' for Active; 'I' for Inactive)
REMARK    1  A    between atoms: C_1  and  O_11
REMARK    2  A    between atoms: C_4  and  C_8
REMARK    3  A    between atoms: C_8  and  O_9
REMARK    4  A    between atoms: O_11  and  C_12
REMARK    5  A    between atoms: C_12  and  C_13
REMARK    6  A    between atoms: C_13  and  N_14
REMARK                            x       y       z     vdW  Elec       q    Type
REMARK                         _______ _______ _______ _____ _____    ______ ____
ROOT
ATOM      1  C   UNL     1      34.978 -16.697 -21.351  0.00  0.00    +0.139 C 
ATOM      2  C   UNL     1      34.978 -16.568 -22.740  0.00  0.00    +0.037 C 
ATOM      3  C   UNL     1      34.408 -15.700 -20.558  0.00  0.00    +0.037 C 
ATOM      4  C   UNL     1      33.839 -14.446 -22.543  0.00  0.00    +0.076 C 
ATOM      5  C   UNL     1      34.409 -15.441 -23.336  0.00  0.00    +0.010 C 
ATOM      6  C   UNL     1      33.839 -14.576 -21.154  0.00  0.00    +0.010 C 
ENDROOT
BRANCH   4   8
ATOM      7  O   UNL     1      33.848 -12.457 -23.873  0.00  0.00    -0.245 OA
ATOM      8  C   UNL     1      33.247 -13.272 -23.165  0.00  0.00    +0.338 C 
BRANCH   8   9
ATOM      9  O   UNL     1      31.920 -13.149 -22.886  0.00  0.00    -0.477 OA
ATOM     10  H   UNL     1      31.631 -13.100 -21.997  0.00  0.00    +0.295 HD
ENDBRANCH   8   9
ENDBRANCH   4   8
BRANCH   1  11
ATOM     11  O   UNL     1      35.534 -17.794 -20.771  0.00  0.00    -0.474 OA
BRANCH  11  12
ATOM     12  C   UNL     1      35.166 -19.067 -21.299  0.00  0.00    +0.227 C 
BRANCH  12  13
ATOM     13  C   UNL     1      35.793 -20.172 -20.460  0.00  0.00    +0.144 C 
BRANCH  13  14
ATOM     14  N   UNL     1      34.794 -21.029 -19.826  0.00  0.00    -0.264 N 
ATOM     15  N   UNL     1      32.819 -21.834 -19.274  0.00  0.00    -0.225 NA
ATOM     16  C   UNL     1      35.056 -22.068 -18.996  0.00  0.00    +0.088 C 
ATOM     17  C   UNL     1      33.450 -20.916 -19.971  0.00  0.00    +0.168 C 
ATOM     18  C   UNL     1      33.815 -22.556 -18.663  0.00  0.00    +0.117 C 
ENDBRANCH  13  14
ENDBRANCH  12  13
ENDBRANCH  11  12
ENDBRANCH   1  11
TORSDOF 6
ENDMDL
MODEL 9
REMARK VINA RESULT:      -7.7      4.873      8.681
REMARK  Name = 53001
REMARK  6 active torsions:
REMARK  status: ('A' for Active; 'I' for Inactive)
REMARK    1  A    between atoms: C_1  and  O_11
REMARK    2  A    between atoms: C_4  and  C_8
REMARK    3  A    between atoms: C_8  and  O_9
REMARK    4  A    between atoms: O_11  and  C_12
REMARK    5  A    between atoms: C_12  and  C_13
REMARK    6  A    between atoms: C_13  and  N_14
REMARK                            x       y       z     vdW  Elec       q    Type
REMARK                         _______ _______ _______ _____ _____    ______ ____
ROOT
ATOM      1  C   UNL     1      33.422 -21.481 -19.484  0.00  0.00    +0.139 C 
ATOM      2  C   UNL     1      32.824 -20.451 -20.212  0.00  0.00    +0.037 C 
ATOM      3  C   UNL     1      34.808 -21.633 -19.501  0.00  0.00    +0.037 C 
ATOM      4  C   UNL     1      34.999 -19.726 -20.973  0.00  0.00    +0.076 C 
ATOM      5  C   UNL     1      33.614 -19.574 -20.957  0.00  0.00    +0.010 C 
ATOM      6  C   UNL     1      35.597 -20.755 -20.245  0.00  0.00    +0.010 C 
ENDROOT
BRANCH   4   8
ATOM      7  O   UNL     1      37.038 -18.647 -21.607  0.00  0.00    -0.245 OA
ATOM      8  C   UNL     1      35.822 -18.812 -21.749  0.00  0.00    +0.338 C 
BRANCH   8   9
ATOM      9  O   UNL     1      35.104 -18.132 -22.684  0.00  0.00    -0.477 OA
ATOM     10  H   UNL     1      35.211 -18.330 -23.593  0.00  0.00    +0.295 HD
ENDBRANCH   8   9
ENDBRANCH   4   8
BRANCH   1  11
ATOM     11  O   UNL     1      32.651 -22.337 -18.760  0.00  0.00    -0.474 OA
BRANCH  11  12
ATOM     12  C   UNL     1      33.284 -23.034 -17.688  0.00  0.00    +0.227 C 
BRANCH  12  13
ATOM     13  C   UNL     1      32.279 -23.278 -16.571  0.00  0.00    +0.144 C 
BRANCH  13  14
ATOM     14  N   UNL     1      32.921 -23.653 -15.313  0.00  0.00    -0.264 N 
ATOM     15  N   UNL     1      33.135 -24.213 -13.193  0.00  0.00    -0.225 NA
ATOM     16  C   UNL     1      34.254 -23.809 -15.122  0.00  0.00    +0.088 C 
ATOM     17  C   UNL     1      32.282 -23.901 -14.143  0.00  0.00    +0.168 C 
ATOM     18  C   UNL     1      34.366 -24.157 -13.797  0.00  0.00    +0.117 C 
ENDBRANCH  13  14
ENDBRANCH  12  13
ENDBRANCH  11  12
ENDBRANCH   1  11
TORSDOF 6
ENDMDL
