MODEL 1
REMARK VINA RESULT:      -8.1      0.000      0.000
REMARK  Name = 5358
REMARK  6 active torsions:
REMARK  status: ('A' for Active; 'I' for Inactive)
REMARK    1  A    between atoms: C_2  and  C_11
REMARK    2  A    between atoms: C_5  and  C_17
REMARK    3  A    between atoms: C_11  and  C_12
REMARK    4  A    between atoms: C_12  and  N_13
REMARK    5  A    between atoms: C_17  and  S_18
REMARK    6  A    between atoms: S_18  and  N_21
REMARK                            x       y       z     vdW  Elec       q    Type
REMARK                         _______ _______ _______ _____ _____    ______ ____
ROOT
ATOM      1  N   UNL     1      32.897 -15.263 -26.160  0.00  0.00    -0.312 N 
ATOM      2  C   UNL     1      33.633 -14.087 -24.428  0.00  0.00    -0.008 C 
ATOM      3  C   UNL     1      34.142 -15.412 -24.315  0.00  0.00    +0.010 C 
ATOM      4  C   UNL     1      33.664 -16.129 -25.414  0.00  0.00    +0.048 C 
ATOM      5  C   UNL     1      35.278 -17.422 -23.580  0.00  0.00    +0.003 C 
ATOM      6  C   UNL     1      34.964 -16.072 -23.381  0.00  0.00    -0.002 C 
ATOM      7  C   UNL     1      32.872 -14.027 -25.572  0.00  0.00    +0.057 C 
ATOM      8  C   UNL     1      33.970 -17.478 -25.626  0.00  0.00    +0.014 C 
ATOM      9  C   UNL     1      34.787 -18.111 -24.687  0.00  0.00    -0.001 C 
ATOM     10  H   UNL     1      32.433 -15.498 -26.996  0.00  0.00    +0.152 HD
ENDROOT
BRANCH   2  11
ATOM     11  C   UNL     1      33.874 -12.971 -23.491  0.00  0.00    +0.005 C 
BRANCH  11  12
ATOM     12  C   UNL     1      33.503 -11.599 -24.084  0.00  0.00    -0.073 C 
BRANCH  12  13
ATOM     13  N   UNL     1      34.686 -10.792 -24.370  0.00  0.00    +0.384 N 
ATOM     14  C   UNL     1      34.483  -9.410 -23.933  0.00  0.00    -0.101 C 
ATOM     15  C   UNL     1      35.003 -10.833 -25.798  0.00  0.00    -0.101 C 
ATOM     16  H   UNL     1      35.472 -11.184 -23.852  0.00  0.00    -0.080 HD
ENDBRANCH  12  13
ENDBRANCH  11  12
ENDBRANCH   2  11
BRANCH   5  17
ATOM     17  C   UNL     1      36.147 -18.127 -22.593  0.00  0.00    +0.195 C 
BRANCH  17  18
ATOM     18  S   UNL     1      35.241 -18.286 -21.089  0.00  0.00    +0.045 S 
ATOM     19  O   UNL     1      35.369 -17.046 -20.340  0.00  0.00    -0.157 OA
ATOM     20  O   UNL     1      33.923 -18.810 -21.413  0.00  0.00    -0.157 OA
BRANCH  18  21
ATOM     21  N   UNL     1      36.125 -19.520 -20.302  0.00  0.00    -0.182 NA
ATOM     22  C   UNL     1      35.466 -20.812 -20.035  0.00  0.00    +0.110 C 
ATOM     23  H   UNL     1      36.423 -19.145 -19.401  0.00  0.00    +0.148 HD
ENDBRANCH  18  21
ENDBRANCH  17  18
ENDBRANCH   5  17
TORSDOF 6
ENDMDL
MODEL 2
REMARK VINA RESULT:      -8.1      7.379     11.154
REMARK  Name = 5358
REMARK  6 active torsions:
REMARK  status: ('A' for Active; 'I' for Inactive)
REMARK    1  A    between atoms: C_2  and  C_11
REMARK    2  A    between atoms: C_5  and  C_17
REMARK    3  A    between atoms: C_11  and  C_12
REMARK    4  A    between atoms: C_12  and  N_13
REMARK    5  A    between atoms: C_17  and  S_18
REMARK    6  A    between atoms: S_18  and  N_21
REMARK                            x       y       z     vdW  Elec       q    Type
REMARK                         _______ _______ _______ _____ _____    ______ ____
ROOT
ATOM      1  N   UNL     1      31.832 -23.161 -15.937  0.00  0.00    -0.312 N 
ATOM      2  C   UNL     1      33.310 -22.916 -17.574  0.00  0.00    -0.008 C 
ATOM      3  C   UNL     1      34.003 -23.357 -16.412  0.00  0.00    +0.010 C 
ATOM      4  C   UNL     1      33.053 -23.503 -15.399  0.00  0.00    +0.048 C 
ATOM      5  C   UNL     1      35.698 -24.071 -14.834  0.00  0.00    +0.003 C 
ATOM      6  C   UNL     1      35.351 -23.647 -16.123  0.00  0.00    -0.002 C 
ATOM      7  C   UNL     1      31.978 -22.805 -17.251  0.00  0.00    +0.057 C 
ATOM      8  C   UNL     1      33.385 -23.926 -14.107  0.00  0.00    +0.014 C 
ATOM      9  C   UNL     1      34.728 -24.208 -13.845  0.00  0.00    -0.001 C 
ATOM     10  H   UNL     1      30.978 -23.172 -15.448  0.00  0.00    +0.152 HD
ENDROOT
BRANCH   2  11
ATOM     11  C   UNL     1      33.906 -22.626 -18.894  0.00  0.00    +0.005 C 
BRANCH  11  12
ATOM     12  C   UNL     1      33.423 -21.290 -19.491  0.00  0.00    -0.073 C 
BRANCH  12  13
ATOM     13  N   UNL     1      34.538 -20.434 -19.882  0.00  0.00    +0.384 N 
ATOM     14  C   UNL     1      34.261 -19.784 -21.164  0.00  0.00    -0.101 C 
ATOM     15  C   UNL     1      35.777 -21.209 -19.962  0.00  0.00    -0.101 C 
ATOM     16  H   UNL     1      34.652 -19.713 -19.171  0.00  0.00    -0.080 HD
ENDBRANCH  12  13
ENDBRANCH  11  12
ENDBRANCH   2  11
BRANCH   5  17
ATOM     17  C   UNL     1      37.124 -24.378 -14.521  0.00  0.00    +0.195 C 
BRANCH  17  18
ATOM     18  S   UNL     1      37.360 -26.114 -14.720  0.00  0.00    +0.045 S 
ATOM     19  O   UNL     1      37.353 -26.735 -13.405  0.00  0.00    -0.157 OA
ATOM     20  O   UNL     1      36.441 -26.576 -15.750  0.00  0.00    -0.157 OA
BRANCH  18  21
ATOM     21  N   UNL     1      38.944 -26.160 -15.362  0.00  0.00    -0.182 NA
ATOM     22  C   UNL     1      40.057 -25.626 -14.556  0.00  0.00    +0.110 C 
ATOM     23  H   UNL     1      38.928 -25.633 -16.235  0.00  0.00    +0.148 HD
ENDBRANCH  18  21
ENDBRANCH  17  18
ENDBRANCH   5  17
TORSDOF 6
ENDMDL
MODEL 3
REMARK VINA RESULT:      -8.0      7.607     11.660
REMARK  Name = 5358
REMARK  6 active torsions:
REMARK  status: ('A' for Active; 'I' for Inactive)
REMARK    1  A    between atoms: C_2  and  C_11
REMARK    2  A    between atoms: C_5  and  C_17
REMARK    3  A    between atoms: C_11  and  C_12
REMARK    4  A    between atoms: C_12  and  N_13
REMARK    5  A    between atoms: C_17  and  S_18
REMARK    6  A    between atoms: S_18  and  N_21
REMARK                            x       y       z     vdW  Elec       q    Type
REMARK                         _______ _______ _______ _____ _____    ______ ____
ROOT
ATOM      1  N   UNL     1      34.169 -22.986 -14.674  0.00  0.00    -0.312 N 
ATOM      2  C   UNL     1      33.624 -23.221 -16.812  0.00  0.00    -0.008 C 
ATOM      3  C   UNL     1      32.457 -23.445 -16.029  0.00  0.00    +0.010 C 
ATOM      4  C   UNL     1      32.827 -23.292 -14.691  0.00  0.00    +0.048 C 
ATOM      5  C   UNL     1      30.202 -23.921 -15.283  0.00  0.00    +0.003 C 
ATOM      6  C   UNL     1      31.119 -23.766 -16.329  0.00  0.00    -0.002 C 
ATOM      7  C   UNL     1      34.660 -22.941 -15.952  0.00  0.00    +0.057 C 
ATOM      8  C   UNL     1      31.921 -23.444 -13.635  0.00  0.00    +0.014 C 
ATOM      9  C   UNL     1      30.600 -23.761 -13.958  0.00  0.00    -0.001 C 
ATOM     10  H   UNL     1      34.700 -22.822 -13.861  0.00  0.00    +0.152 HD
ENDROOT
BRANCH   2  11
ATOM     11  C   UNL     1      33.717 -23.277 -18.285  0.00  0.00    +0.005 C 
BRANCH  11  12
ATOM     12  C   UNL     1      33.427 -21.922 -18.957  0.00  0.00    -0.073 C 
BRANCH  12  13
ATOM     13  N   UNL     1      34.475 -21.546 -19.900  0.00  0.00    +0.384 N 
ATOM     14  C   UNL     1      35.788 -21.590 -19.254  0.00  0.00    -0.101 C 
ATOM     15  C   UNL     1      34.221 -20.212 -20.447  0.00  0.00    -0.101 C 
ATOM     16  H   UNL     1      34.469 -22.218 -20.668  0.00  0.00    -0.080 HD
ENDBRANCH  12  13
ENDBRANCH  11  12
ENDBRANCH   2  11
BRANCH   5  17
ATOM     17  C   UNL     1      28.783 -24.261 -15.595  0.00  0.00    +0.195 C 
BRANCH  17  18
ATOM     18  S   UNL     1      28.151 -23.017 -16.673  0.00  0.00    +0.045 S 
ATOM     19  O   UNL     1      29.147 -21.963 -16.794  0.00  0.00    -0.157 OA
ATOM     20  O   UNL     1      27.638 -23.675 -17.865  0.00  0.00    -0.157 OA
BRANCH  18  21
ATOM     21  N   UNL     1      26.820 -22.441 -15.768  0.00  0.00    -0.182 NA
ATOM     22  C   UNL     1      25.808 -21.606 -16.440  0.00  0.00    +0.110 C 
ATOM     23  H   UNL     1      27.198 -21.891 -14.998  0.00  0.00    +0.148 HD
ENDBRANCH  18  21
ENDBRANCH  17  18
ENDBRANCH   5  17
TORSDOF 6
ENDMDL
MODEL 4
REMARK VINA RESULT:      -8.0      6.465      9.884
REMARK  Name = 5358
REMARK  6 active torsions:
REMARK  status: ('A' for Active; 'I' for Inactive)
REMARK    1  A    between atoms: C_2  and  C_11
REMARK    2  A    between atoms: C_5  and  C_17
REMARK    3  A    between atoms: C_11  and  C_12
REMARK    4  A    between atoms: C_12  and  N_13
REMARK    5  A    between atoms: C_17  and  S_18
REMARK    6  A    between atoms: S_18  and  N_21
REMARK                            x       y       z     vdW  Elec       q    Type
REMARK                         _______ _______ _______ _____ _____    ______ ____
ROOT
ATOM      1  N   UNL     1      32.915 -22.777 -18.368  0.00  0.00    -0.312 N 
ATOM      2  C   UNL     1      34.908 -21.921 -18.835  0.00  0.00    -0.008 C 
ATOM      3  C   UNL     1      34.951 -22.455 -17.516  0.00  0.00    +0.010 C 
ATOM      4  C   UNL     1      33.687 -22.985 -17.248  0.00  0.00    +0.048 C 
ATOM      5  C   UNL     1      35.640 -23.146 -15.298  0.00  0.00    +0.003 C 
ATOM      6  C   UNL     1      35.945 -22.537 -16.521  0.00  0.00    -0.002 C 
ATOM      7  C   UNL     1      33.643 -22.134 -19.332  0.00  0.00    +0.057 C 
ATOM      8  C   UNL     1      33.368 -23.597 -16.030  0.00  0.00    +0.014 C 
ATOM      9  C   UNL     1      34.371 -23.667 -15.060  0.00  0.00    -0.001 C 
ATOM     10  H   UNL     1      31.974 -23.051 -18.463  0.00  0.00    +0.152 HD
ENDROOT
BRANCH   2  11
ATOM     11  C   UNL     1      36.016 -21.255 -19.549  0.00  0.00    +0.005 C 
BRANCH  11  12
ATOM     12  C   UNL     1      35.574 -20.613 -20.877  0.00  0.00    -0.073 C 
BRANCH  12  13
ATOM     13  N   UNL     1      35.335 -19.180 -20.737  0.00  0.00    +0.384 N 
ATOM     14  C   UNL     1      33.950 -18.854 -21.079  0.00  0.00    -0.101 C 
ATOM     15  C   UNL     1      36.259 -18.419 -21.579  0.00  0.00    -0.101 C 
ATOM     16  H   UNL     1      35.498 -18.924 -19.763  0.00  0.00    -0.080 HD
ENDBRANCH  12  13
ENDBRANCH  11  12
ENDBRANCH   2  11
BRANCH   5  17
ATOM     17  C   UNL     1      36.688 -23.236 -14.240  0.00  0.00    +0.195 C 
BRANCH  17  18
ATOM     18  S   UNL     1      37.830 -24.493 -14.715  0.00  0.00    +0.045 S 
ATOM     19  O   UNL     1      37.090 -25.572 -15.350  0.00  0.00    -0.157 OA
ATOM     20  O   UNL     1      38.934 -23.854 -15.416  0.00  0.00    -0.157 OA
BRANCH  18  21
ATOM     21  N   UNL     1      38.400 -25.014 -13.189  0.00  0.00    -0.182 NA
ATOM     22  C   UNL     1      37.724 -24.530 -11.972  0.00  0.00    +0.110 C 
ATOM     23  H   UNL     1      39.376 -24.729 -13.122  0.00  0.00    +0.148 HD
ENDBRANCH  18  21
ENDBRANCH  17  18
ENDBRANCH   5  17
TORSDOF 6
ENDMDL
MODEL 5
REMARK VINA RESULT:      -7.7     10.535     12.373
REMARK  Name = 5358
REMARK  6 active torsions:
REMARK  status: ('A' for Active; 'I' for Inactive)
REMARK    1  A    between atoms: C_2  and  C_11
REMARK    2  A    between atoms: C_5  and  C_17
REMARK    3  A    between atoms: C_11  and  C_12
REMARK    4  A    between atoms: C_12  and  N_13
REMARK    5  A    between atoms: C_17  and  S_18
REMARK    6  A    between atoms: S_18  and  N_21
REMARK                            x       y       z     vdW  Elec       q    Type
REMARK                         _______ _______ _______ _____ _____    ______ ____
ROOT
ATOM      1  N   UNL     1      34.545 -22.478 -18.061  0.00  0.00    -0.312 N 
ATOM      2  C   UNL     1      33.241 -23.261 -16.446  0.00  0.00    -0.008 C 
ATOM      3  C   UNL     1      34.562 -23.136 -15.930  0.00  0.00    +0.010 C 
ATOM      4  C   UNL     1      35.360 -22.644 -16.964  0.00  0.00    +0.048 C 
ATOM      5  C   UNL     1      36.525 -23.155 -14.511  0.00  0.00    +0.003 C 
ATOM      6  C   UNL     1      35.157 -23.397 -14.680  0.00  0.00    -0.002 C 
ATOM      7  C   UNL     1      33.263 -22.849 -17.758  0.00  0.00    +0.057 C 
ATOM      8  C   UNL     1      36.729 -22.397 -16.810  0.00  0.00    +0.014 C 
ATOM      9  C   UNL     1      37.296 -22.662 -15.561  0.00  0.00    -0.001 C 
ATOM     10  H   UNL     1      34.841 -22.142 -18.938  0.00  0.00    +0.152 HD
ENDROOT
BRANCH   2  11
ATOM     11  C   UNL     1      32.054 -23.745 -15.712  0.00  0.00    +0.005 C 
BRANCH  11  12
ATOM     12  C   UNL     1      30.738 -23.134 -16.229  0.00  0.00    -0.073 C 
BRANCH  12  13
ATOM     13  N   UNL     1      29.569 -23.796 -15.658  0.00  0.00    +0.384 N 
ATOM     14  C   UNL     1      29.911 -25.146 -15.209  0.00  0.00    -0.101 C 
ATOM     15  C   UNL     1      28.478 -23.845 -16.633  0.00  0.00    -0.101 C 
ATOM     16  H   UNL     1      29.259 -23.254 -14.851  0.00  0.00    -0.080 HD
ENDBRANCH  12  13
ENDBRANCH  11  12
ENDBRANCH   2  11
BRANCH   5  17
ATOM     17  C   UNL     1      37.162 -23.429 -13.190  0.00  0.00    +0.195 C 
BRANCH  17  18
ATOM     18  S   UNL     1      37.828 -25.061 -13.238  0.00  0.00    +0.045 S 
ATOM     19  O   UNL     1      37.691 -25.655 -11.917  0.00  0.00    -0.157 OA
ATOM     20  O   UNL     1      37.275 -25.737 -14.402  0.00  0.00    -0.157 OA
BRANCH  18  21
ATOM     21  N   UNL     1      39.478 -24.735 -13.547  0.00  0.00    -0.182 NA
ATOM     22  C   UNL     1      40.159 -25.464 -14.632  0.00  0.00    +0.110 C 
ATOM     23  H   UNL     1      39.987 -24.935 -12.686  0.00  0.00    +0.148 HD
ENDBRANCH  18  21
ENDBRANCH  17  18
ENDBRANCH   5  17
TORSDOF 6
ENDMDL
MODEL 6
REMARK VINA RESULT:      -7.6      2.801      6.907
REMARK  Name = 5358
REMARK  6 active torsions:
REMARK  status: ('A' for Active; 'I' for Inactive)
REMARK    1  A    between atoms: C_2  and  C_11
REMARK    2  A    between atoms: C_5  and  C_17
REMARK    3  A    between atoms: C_11  and  C_12
REMARK    4  A    between atoms: C_12  and  N_13
REMARK    5  A    between atoms: C_17  and  S_18
REMARK    6  A    between atoms: S_18  and  N_21
REMARK                            x       y       z     vdW  Elec       q    Type
REMARK                         _______ _______ _______ _____ _____    ______ ____
ROOT
ATOM      1  N   UNL     1      34.607 -18.685 -25.096  0.00  0.00    -0.312 N 
ATOM      2  C   UNL     1      35.136 -18.785 -22.943  0.00  0.00    -0.008 C 
ATOM      3  C   UNL     1      34.750 -17.448 -23.244  0.00  0.00    +0.010 C 
ATOM      4  C   UNL     1      34.425 -17.413 -24.602  0.00  0.00    +0.048 C 
ATOM      5  C   UNL     1      34.225 -15.087 -23.123  0.00  0.00    +0.003 C 
ATOM      6  C   UNL     1      34.649 -16.262 -22.492  0.00  0.00    -0.002 C 
ATOM      7  C   UNL     1      35.037 -19.521 -24.101  0.00  0.00    +0.057 C 
ATOM      8  C   UNL     1      33.999 -16.245 -25.246  0.00  0.00    +0.014 C 
ATOM      9  C   UNL     1      33.905 -15.082 -24.478  0.00  0.00    -0.001 C 
ATOM     10  H   UNL     1      34.451 -18.955 -26.029  0.00  0.00    +0.152 HD
ENDROOT
BRANCH   2  11
ATOM     11  C   UNL     1      35.566 -19.299 -21.627  0.00  0.00    +0.005 C 
BRANCH  11  12
ATOM     12  C   UNL     1      34.396 -19.831 -20.778  0.00  0.00    -0.073 C 
BRANCH  12  13
ATOM     13  N   UNL     1      34.857 -20.690 -19.692  0.00  0.00    +0.384 N 
ATOM     14  C   UNL     1      36.153 -21.285 -20.022  0.00  0.00    -0.101 C 
ATOM     15  C   UNL     1      33.873 -21.737 -19.411  0.00  0.00    -0.101 C 
ATOM     16  H   UNL     1      34.967 -20.116 -18.856  0.00  0.00    -0.080 HD
ENDBRANCH  12  13
ENDBRANCH  11  12
ENDBRANCH   2  11
BRANCH   5  17
ATOM     17  C   UNL     1      34.115 -13.826 -22.331  0.00  0.00    +0.195 C 
BRANCH  17  18
ATOM     18  S   UNL     1      32.545 -13.826 -21.528  0.00  0.00    +0.045 S 
ATOM     19  O   UNL     1      31.960 -15.151 -21.658  0.00  0.00    -0.157 OA
ATOM     20  O   UNL     1      32.716 -13.230 -20.211  0.00  0.00    -0.157 OA
BRANCH  18  21
ATOM     21  N   UNL     1      31.677 -12.722 -22.503  0.00  0.00    -0.182 NA
ATOM     22  C   UNL     1      31.306 -11.411 -21.940  0.00  0.00    +0.110 C 
ATOM     23  H   UNL     1      30.811 -13.185 -22.779  0.00  0.00    +0.148 HD
ENDBRANCH  18  21
ENDBRANCH  17  18
ENDBRANCH   5  17
TORSDOF 6
ENDMDL
MODEL 7
REMARK VINA RESULT:      -7.6     10.316     12.199
REMARK  Name = 5358
REMARK  6 active torsions:
REMARK  status: ('A' for Active; 'I' for Inactive)
REMARK    1  A    between atoms: C_2  and  C_11
REMARK    2  A    between atoms: C_5  and  C_17
REMARK    3  A    between atoms: C_11  and  C_12
REMARK    4  A    between atoms: C_12  and  N_13
REMARK    5  A    between atoms: C_17  and  S_18
REMARK    6  A    between atoms: S_18  and  N_21
REMARK                            x       y       z     vdW  Elec       q    Type
REMARK                         _______ _______ _______ _____ _____    ______ ____
ROOT
ATOM      1  N   UNL     1      34.491 -22.383 -18.320  0.00  0.00    -0.312 N 
ATOM      2  C   UNL     1      33.154 -23.185 -16.741  0.00  0.00    -0.008 C 
ATOM      3  C   UNL     1      34.465 -23.068 -16.197  0.00  0.00    +0.010 C 
ATOM      4  C   UNL     1      35.284 -22.563 -17.209  0.00  0.00    +0.048 C 
ATOM      5  C   UNL     1      36.399 -23.105 -14.739  0.00  0.00    +0.003 C 
ATOM      6  C   UNL     1      35.034 -23.344 -14.939  0.00  0.00    -0.002 C 
ATOM      7  C   UNL     1      33.203 -22.757 -18.047  0.00  0.00    +0.057 C 
ATOM      8  C   UNL     1      36.650 -22.319 -17.024  0.00  0.00    +0.014 C 
ATOM      9  C   UNL     1      37.191 -22.600 -15.767  0.00  0.00    -0.001 C 
ATOM     10  H   UNL     1      34.805 -22.036 -19.186  0.00  0.00    +0.152 HD
ENDROOT
BRANCH   2  11
ATOM     11  C   UNL     1      31.953 -23.678 -16.037  0.00  0.00    +0.005 C 
BRANCH  11  12
ATOM     12  C   UNL     1      30.682 -22.883 -16.392  0.00  0.00    -0.073 C 
BRANCH  12  13
ATOM     13  N   UNL     1      29.586 -23.171 -15.472  0.00  0.00    +0.384 N 
ATOM     14  C   UNL     1      29.398 -24.615 -15.331  0.00  0.00    -0.101 C 
ATOM     15  C   UNL     1      28.348 -22.540 -15.933  0.00  0.00    -0.101 C 
ATOM     16  H   UNL     1      29.826 -22.784 -14.559  0.00  0.00    -0.080 HD
ENDBRANCH  12  13
ENDBRANCH  11  12
ENDBRANCH   2  11
BRANCH   5  17
ATOM     17  C   UNL     1      37.009 -23.396 -13.409  0.00  0.00    +0.195 C 
BRANCH  17  18
ATOM     18  S   UNL     1      37.394 -25.116 -13.354  0.00  0.00    +0.045 S 
ATOM     19  O   UNL     1      36.919 -25.734 -14.582  0.00  0.00    -0.157 OA
ATOM     20  O   UNL     1      38.789 -25.251 -12.961  0.00  0.00    -0.157 OA
BRANCH  18  21
ATOM     21  N   UNL     1      36.421 -25.629 -12.045  0.00  0.00    -0.182 NA
ATOM     22  C   UNL     1      35.630 -24.628 -11.307  0.00  0.00    +0.110 C 
ATOM     23  H   UNL     1      37.040 -26.077 -11.370  0.00  0.00    +0.148 HD
ENDBRANCH  18  21
ENDBRANCH  17  18
ENDBRANCH   5  17
TORSDOF 6
ENDMDL
MODEL 8
REMARK VINA RESULT:      -7.6      2.518      2.957
REMARK  Name = 5358
REMARK  6 active torsions:
REMARK  status: ('A' for Active; 'I' for Inactive)
REMARK    1  A    between atoms: C_2  and  C_11
REMARK    2  A    between atoms: C_5  and  C_17
REMARK    3  A    between atoms: C_11  and  C_12
REMARK    4  A    between atoms: C_12  and  N_13
REMARK    5  A    between atoms: C_17  and  S_18
REMARK    6  A    between atoms: S_18  and  N_21
REMARK                            x       y       z     vdW  Elec       q    Type
REMARK                         _______ _______ _______ _____ _____    ______ ____
ROOT
ATOM      1  N   UNL     1      33.095 -13.947 -24.408  0.00  0.00    -0.312 N 
ATOM      2  C   UNL     1      32.682 -13.655 -22.247  0.00  0.00    -0.008 C 
ATOM      3  C   UNL     1      33.505 -14.808 -22.391  0.00  0.00    +0.010 C 
ATOM      4  C   UNL     1      33.749 -14.969 -23.757  0.00  0.00    +0.048 C 
ATOM      5  C   UNL     1      34.850 -16.782 -21.985  0.00  0.00    +0.003 C 
ATOM      6  C   UNL     1      34.067 -15.733 -21.489  0.00  0.00    -0.002 C 
ATOM      7  C   UNL     1      32.447 -13.149 -23.504  0.00  0.00    +0.057 C 
ATOM      8  C   UNL     1      34.530 -16.012 -24.267  0.00  0.00    +0.014 C 
ATOM      9  C   UNL     1      35.077 -16.916 -23.353  0.00  0.00    -0.001 C 
ATOM     10  H   UNL     1      33.093 -13.810 -25.382  0.00  0.00    +0.152 HD
ENDROOT
BRANCH   2  11
ATOM     11  C   UNL     1      32.167 -13.097 -20.980  0.00  0.00    +0.005 C 
BRANCH  11  12
ATOM     12  C   UNL     1      31.359 -11.801 -21.180  0.00  0.00    -0.073 C 
BRANCH  12  13
ATOM     13  N   UNL     1      31.868 -10.710 -20.356  0.00  0.00    +0.384 N 
ATOM     14  C   UNL     1      31.067 -10.567 -19.139  0.00  0.00    -0.101 C 
ATOM     15  C   UNL     1      31.874  -9.455 -21.110  0.00  0.00    -0.101 C 
ATOM     16  H   UNL     1      32.827 -10.932 -20.089  0.00  0.00    -0.080 HD
ENDBRANCH  12  13
ENDBRANCH  11  12
ENDBRANCH   2  11
BRANCH   5  17
ATOM     17  C   UNL     1      35.448 -17.765 -21.035  0.00  0.00    +0.195 C 
BRANCH  17  18
ATOM     18  S   UNL     1      34.599 -19.298 -21.237  0.00  0.00    +0.045 S 
ATOM     19  O   UNL     1      33.226 -19.128 -20.786  0.00  0.00    -0.157 OA
ATOM     20  O   UNL     1      34.871 -19.786 -22.581  0.00  0.00    -0.157 OA
BRANCH  18  21
ATOM     21  N   UNL     1      35.443 -20.290 -20.130  0.00  0.00    -0.182 NA
ATOM     22  C   UNL     1      34.760 -21.466 -19.560  0.00  0.00    +0.110 C 
ATOM     23  H   UNL     1      35.719 -19.696 -19.348  0.00  0.00    +0.148 HD
ENDBRANCH  18  21
ENDBRANCH  17  18
ENDBRANCH   5  17
TORSDOF 6
ENDMDL
MODEL 9
REMARK VINA RESULT:      -7.4      2.134      2.784
REMARK  Name = 5358
REMARK  6 active torsions:
REMARK  status: ('A' for Active; 'I' for Inactive)
REMARK    1  A    between atoms: C_2  and  C_11
REMARK    2  A    between atoms: C_5  and  C_17
REMARK    3  A    between atoms: C_11  and  C_12
REMARK    4  A    between atoms: C_12  and  N_13
REMARK    5  A    between atoms: C_17  and  S_18
REMARK    6  A    between atoms: S_18  and  N_21
REMARK                            x       y       z     vdW  Elec       q    Type
REMARK                         _______ _______ _______ _____ _____    ______ ____
ROOT
ATOM      1  N   UNL     1      31.910 -12.944 -21.673  0.00  0.00    -0.312 N 
ATOM      2  C   UNL     1      33.187 -13.220 -23.467  0.00  0.00    -0.008 C 
ATOM      3  C   UNL     1      33.504 -14.247 -22.532  0.00  0.00    +0.010 C 
ATOM      4  C   UNL     1      32.689 -14.050 -21.416  0.00  0.00    +0.048 C 
ATOM      5  C   UNL     1      34.465 -16.167 -21.411  0.00  0.00    +0.003 C 
ATOM      6  C   UNL     1      34.409 -15.326 -22.528  0.00  0.00    -0.002 C 
ATOM      7  C   UNL     1      32.204 -12.436 -22.910  0.00  0.00    +0.057 C 
ATOM      8  C   UNL     1      32.733 -14.882 -20.292  0.00  0.00    +0.014 C 
ATOM      9  C   UNL     1      33.638 -15.947 -20.312  0.00  0.00    -0.001 C 
ATOM     10  H   UNL     1      31.238 -12.573 -21.058  0.00  0.00    +0.152 HD
ENDROOT
BRANCH   2  11
ATOM     11  C   UNL     1      33.799 -13.025 -24.797  0.00  0.00    +0.005 C 
BRANCH  11  12
ATOM     12  C   UNL     1      33.732 -11.563 -25.279  0.00  0.00    -0.073 C 
BRANCH  12  13
ATOM     13  N   UNL     1      34.929 -10.813 -24.910  0.00  0.00    +0.384 N 
ATOM     14  C   UNL     1      34.579  -9.667 -24.070  0.00  0.00    -0.101 C 
ATOM     15  C   UNL     1      35.645 -10.367 -26.106  0.00  0.00    -0.101 C 
ATOM     16  H   UNL     1      35.541 -11.431 -24.377  0.00  0.00    -0.080 HD
ENDBRANCH  12  13
ENDBRANCH  11  12
ENDBRANCH   2  11
BRANCH   5  17
ATOM     17  C   UNL     1      35.422 -17.312 -21.400  0.00  0.00    +0.195 C 
BRANCH  17  18
ATOM     18  S   UNL     1      34.499 -18.792 -21.659  0.00  0.00    +0.045 S 
ATOM     19  O   UNL     1      33.260 -18.702 -20.902  0.00  0.00    -0.157 OA
ATOM     20  O   UNL     1      34.462 -19.052 -23.091  0.00  0.00    -0.157 OA
BRANCH  18  21
ATOM     21  N   UNL     1      35.525 -19.952 -20.934  0.00  0.00    -0.182 NA
ATOM     22  C   UNL     1      34.942 -20.945 -20.014  0.00  0.00    +0.110 C 
ATOM     23  H   UNL     1      36.232 -19.438 -20.410  0.00  0.00    +0.148 HD
ENDBRANCH  18  21
ENDBRANCH  17  18
ENDBRANCH   5  17
TORSDOF 6
ENDMDL
