MODEL 1
REMARK VINA RESULT:      -5.4      0.000      0.000
REMARK  Name = 11575
REMARK  0 active torsions:
REMARK  status: ('A' for Active; 'I' for Inactive)
REMARK                            x       y       z     vdW  Elec       q    Type
REMARK                         _______ _______ _______ _____ _____    ______ ____
ROOT
ATOM      1  I   UNL     1      35.608 -18.273 -22.127  0.00  0.00    -0.043 I 
ATOM      2  C   UNL     1      34.935 -19.791 -20.879  0.00  0.00    +0.030 C 
ATOM      3  C   UNL     1      35.849 -20.645 -20.262  0.00  0.00    +0.006 C 
ATOM      4  C   UNL     1      33.568 -19.956 -20.657  0.00  0.00    +0.006 C 
ATOM      5  C   UNL     1      35.397 -21.664 -19.424  0.00  0.00    +0.000 C 
ATOM      6  C   UNL     1      33.115 -20.976 -19.818  0.00  0.00    +0.000 C 
ATOM      7  C   UNL     1      34.030 -21.829 -19.202  0.00  0.00    +0.000 C 
ENDROOT
TORSDOF 0
ENDMDL
MODEL 2
REMARK VINA RESULT:      -5.4      0.462      1.883
REMARK  Name = 11575
REMARK  0 active torsions:
REMARK  status: ('A' for Active; 'I' for Inactive)
REMARK                            x       y       z     vdW  Elec       q    Type
REMARK                         _______ _______ _______ _____ _____    ______ ____
ROOT
ATOM      1  I   UNL     1      35.360 -18.025 -22.488  0.00  0.00    -0.043 I 
ATOM      2  C   UNL     1      34.718 -19.504 -21.179  0.00  0.00    +0.030 C 
ATOM      3  C   UNL     1      33.360 -19.636 -20.887  0.00  0.00    +0.006 C 
ATOM      4  C   UNL     1      35.644 -20.367 -20.593  0.00  0.00    +0.006 C 
ATOM      5  C   UNL     1      32.929 -20.630 -20.008  0.00  0.00    +0.000 C 
ATOM      6  C   UNL     1      35.213 -21.361 -19.714  0.00  0.00    +0.000 C 
ATOM      7  C   UNL     1      33.855 -21.492 -19.421  0.00  0.00    +0.000 C 
ENDROOT
TORSDOF 0
ENDMDL
MODEL 3
REMARK VINA RESULT:      -5.1      2.495      3.581
REMARK  Name = 11575
REMARK  0 active torsions:
REMARK  status: ('A' for Active; 'I' for Inactive)
REMARK                            x       y       z     vdW  Elec       q    Type
REMARK                         _______ _______ _______ _____ _____    ______ ____
ROOT
ATOM      1  I   UNL     1      33.723 -22.951 -18.124  0.00  0.00    -0.043 I 
ATOM      2  C   UNL     1      34.103 -21.413 -19.467  0.00  0.00    +0.030 C 
ATOM      3  C   UNL     1      33.047 -20.674 -20.000  0.00  0.00    +0.006 C 
ATOM      4  C   UNL     1      35.416 -21.117 -19.835  0.00  0.00    +0.006 C 
ATOM      5  C   UNL     1      33.302 -19.641 -20.901  0.00  0.00    +0.000 C 
ATOM      6  C   UNL     1      35.671 -20.083 -20.737  0.00  0.00    +0.000 C 
ATOM      7  C   UNL     1      34.614 -19.346 -21.270  0.00  0.00    +0.000 C 
ENDROOT
TORSDOF 0
ENDMDL
MODEL 4
REMARK VINA RESULT:      -4.9      3.253      4.346
REMARK  Name = 11575
REMARK  0 active torsions:
REMARK  status: ('A' for Active; 'I' for Inactive)
REMARK                            x       y       z     vdW  Elec       q    Type
REMARK                         _______ _______ _______ _____ _____    ______ ____
ROOT
ATOM      1  I   UNL     1      34.199 -15.258 -20.986  0.00  0.00    -0.043 I 
ATOM      2  C   UNL     1      34.511 -16.906 -22.212  0.00  0.00    +0.030 C 
ATOM      3  C   UNL     1      34.510 -18.191 -21.668  0.00  0.00    +0.006 C 
ATOM      4  C   UNL     1      34.720 -16.728 -23.579  0.00  0.00    +0.006 C 
ATOM      5  C   UNL     1      34.720 -19.297 -22.492  0.00  0.00    +0.000 C 
ATOM      6  C   UNL     1      34.929 -17.835 -24.403  0.00  0.00    +0.000 C 
ATOM      7  C   UNL     1      34.929 -19.119 -23.859  0.00  0.00    +0.000 C 
ENDROOT
TORSDOF 0
ENDMDL
MODEL 5
REMARK VINA RESULT:      -4.9      3.253      4.428
REMARK  Name = 11575
REMARK  0 active torsions:
REMARK  status: ('A' for Active; 'I' for Inactive)
REMARK                            x       y       z     vdW  Elec       q    Type
REMARK                         _______ _______ _______ _____ _____    ______ ____
ROOT
ATOM      1  I   UNL     1      34.227 -15.279 -20.972  0.00  0.00    -0.043 I 
ATOM      2  C   UNL     1      34.528 -16.919 -22.210  0.00  0.00    +0.030 C 
ATOM      3  C   UNL     1      34.735 -16.733 -23.577  0.00  0.00    +0.006 C 
ATOM      4  C   UNL     1      34.524 -18.207 -21.674  0.00  0.00    +0.006 C 
ATOM      5  C   UNL     1      34.938 -17.834 -24.409  0.00  0.00    +0.000 C 
ATOM      6  C   UNL     1      34.727 -19.309 -22.506  0.00  0.00    +0.000 C 
ATOM      7  C   UNL     1      34.934 -19.122 -23.873  0.00  0.00    +0.000 C 
ENDROOT
TORSDOF 0
ENDMDL
MODEL 6
REMARK VINA RESULT:      -4.7      4.144      5.459
REMARK  Name = 11575
REMARK  0 active torsions:
REMARK  status: ('A' for Active; 'I' for Inactive)
REMARK                            x       y       z     vdW  Elec       q    Type
REMARK                         _______ _______ _______ _____ _____    ______ ____
ROOT
ATOM      1  I   UNL     1      34.971 -18.646 -23.807  0.00  0.00    -0.043 I 
ATOM      2  C   UNL     1      34.730 -16.916 -22.682  0.00  0.00    +0.030 C 
ATOM      3  C   UNL     1      34.554 -15.688 -23.320  0.00  0.00    +0.006 C 
ATOM      4  C   UNL     1      34.745 -16.982 -21.289  0.00  0.00    +0.006 C 
ATOM      5  C   UNL     1      34.393 -14.526 -22.565  0.00  0.00    +0.000 C 
ATOM      6  C   UNL     1      34.584 -15.820 -20.534  0.00  0.00    +0.000 C 
ATOM      7  C   UNL     1      34.408 -14.592 -21.172  0.00  0.00    +0.000 C 
ENDROOT
TORSDOF 0
ENDMDL
MODEL 7
REMARK VINA RESULT:      -4.7      4.771      5.668
REMARK  Name = 11575
REMARK  0 active torsions:
REMARK  status: ('A' for Active; 'I' for Inactive)
REMARK                            x       y       z     vdW  Elec       q    Type
REMARK                         _______ _______ _______ _____ _____    ______ ____
ROOT
ATOM      1  I   UNL     1      33.477 -13.612 -23.666  0.00  0.00    -0.043 I 
ATOM      2  C   UNL     1      34.207 -15.551 -23.814  0.00  0.00    +0.030 C 
ATOM      3  C   UNL     1      34.850 -16.139 -22.725  0.00  0.00    +0.006 C 
ATOM      4  C   UNL     1      34.055 -16.264 -25.003  0.00  0.00    +0.006 C 
ATOM      5  C   UNL     1      35.341 -17.441 -22.824  0.00  0.00    +0.000 C 
ATOM      6  C   UNL     1      34.546 -17.567 -25.102  0.00  0.00    +0.000 C 
ATOM      7  C   UNL     1      35.189 -18.155 -24.013  0.00  0.00    +0.000 C 
ENDROOT
TORSDOF 0
ENDMDL
MODEL 8
REMARK VINA RESULT:      -4.7      4.304      5.410
REMARK  Name = 11575
REMARK  0 active torsions:
REMARK  status: ('A' for Active; 'I' for Inactive)
REMARK                            x       y       z     vdW  Elec       q    Type
REMARK                         _______ _______ _______ _____ _____    ______ ____
ROOT
ATOM      1  I   UNL     1      33.737 -14.040 -23.490  0.00  0.00    -0.043 I 
ATOM      2  C   UNL     1      34.327 -16.019 -23.707  0.00  0.00    +0.030 C 
ATOM      3  C   UNL     1      34.172 -16.663 -24.935  0.00  0.00    +0.006 C 
ATOM      4  C   UNL     1      34.878 -16.705 -22.625  0.00  0.00    +0.006 C 
ATOM      5  C   UNL     1      34.568 -17.992 -25.081  0.00  0.00    +0.000 C 
ATOM      6  C   UNL     1      35.275 -18.035 -22.771  0.00  0.00    +0.000 C 
ATOM      7  C   UNL     1      35.120 -18.678 -23.999  0.00  0.00    +0.000 C 
ENDROOT
TORSDOF 0
ENDMDL
MODEL 9
REMARK VINA RESULT:      -4.7     10.159     11.025
REMARK  Name = 11575
REMARK  0 active torsions:
REMARK  status: ('A' for Active; 'I' for Inactive)
REMARK                            x       y       z     vdW  Elec       q    Type
REMARK                         _______ _______ _______ _____ _____    ______ ____
ROOT
ATOM      1  I   UNL     1      32.309  -7.295 -22.166  0.00  0.00    -0.043 I 
ATOM      2  C   UNL     1      31.936  -9.099 -21.207  0.00  0.00    +0.030 C 
ATOM      3  C   UNL     1      32.048  -9.188 -19.819  0.00  0.00    +0.006 C 
ATOM      4  C   UNL     1      31.575 -10.223 -21.950  0.00  0.00    +0.006 C 
ATOM      5  C   UNL     1      31.797 -10.400 -19.174  0.00  0.00    +0.000 C 
ATOM      6  C   UNL     1      31.325 -11.435 -21.306  0.00  0.00    +0.000 C 
ATOM      7  C   UNL     1      31.436 -11.523 -19.918  0.00  0.00    +0.000 C 
ENDROOT
TORSDOF 0
ENDMDL
