MODEL 1
REMARK VINA RESULT:     -10.5      0.000      0.000
REMARK  Name = 24894167
REMARK  9 active torsions:
REMARK  status: ('A' for Active; 'I' for Inactive)
REMARK    1  A    between atoms: C_2  and  C_13
REMARK    2  A    between atoms: C_3  and  N_21
REMARK    3  A    between atoms: N_21  and  O_23
REMARK    4  A    between atoms: O_23  and  C_24
REMARK    5  A    between atoms: C_24  and  C_25
REMARK    6  A    between atoms: C_25  and  C_26
REMARK    7  A    between atoms: C_26  and  O_27
REMARK    8  A    between atoms: C_26  and  C_29
REMARK    9  A    between atoms: C_29  and  O_30
REMARK                            x       y       z     vdW  Elec       q    Type
REMARK                         _______ _______ _______ _____ _____    ______ ____
ROOT
ATOM      1  N   UNL     1      32.407 -22.602 -17.421  0.00  0.00    -0.351 N 
ATOM      2  C   UNL     1      33.768 -22.688 -17.290  0.00  0.00    +0.086 A 
ATOM      3  C   UNL     1      34.038 -23.454 -16.179  0.00  0.00    +0.096 A 
ATOM      4  C   UNL     1      32.795 -23.849 -15.612  0.00  0.00    +0.034 A 
ATOM      5  C   UNL     1      31.788 -23.302 -16.409  0.00  0.00    +0.058 A 
ATOM      6  C   UNL     1      32.429 -24.624 -14.493  0.00  0.00    +0.003 C 
ATOM      7  C   UNL     1      30.427 -23.490 -16.143  0.00  0.00    +0.017 C 
ATOM      8  C   UNL     1      31.071 -24.821 -14.215  0.00  0.00    +0.000 C 
ATOM      9  C   UNL     1      30.087 -24.262 -15.028  0.00  0.00    +0.001 C 
ATOM     10  H   UNL     1      31.939 -22.110 -18.134  0.00  0.00    +0.166 HD
ENDROOT
BRANCH   2  13
ATOM     11  O   UNL     1      36.787 -22.555 -17.471  0.00  0.00    -0.209 OA
ATOM     12  N   UNL     1      36.514 -21.220 -19.357  0.00  0.00    -0.333 NA
ATOM     13  C   UNL     1      34.591 -21.999 -18.283  0.00  0.00    +0.114 C 
ATOM     14  C   UNL     1      34.193 -21.264 -19.326  0.00  0.00    +0.044 C 
ATOM     15  C   UNL     1      35.442 -20.812 -19.952  0.00  0.00    +0.145 C 
ATOM     16  C   UNL     1      36.085 -21.977 -18.287  0.00  0.00    +0.206 C 
ATOM     17  C   UNL     1      32.923 -20.872 -19.859  0.00  0.00    +0.003 C 
ATOM     18  C   UNL     1      35.336 -19.965 -21.157  0.00  0.00    +0.033 C 
ATOM     19  C   UNL     1      32.890 -20.095 -20.954  0.00  0.00    +0.000 C 
ATOM     20  C   UNL     1      34.110 -19.648 -21.604  0.00  0.00    +0.003 C 
ENDBRANCH   2  13
BRANCH   3  21
ATOM     21  N   UNL     1      35.310 -23.785 -15.698  0.00  0.00    -0.262 N 
ATOM     22  H   UNL     1      35.863 -23.075 -15.299  0.00  0.00    +0.194 HD
BRANCH  21  23
ATOM     23  O   UNL     1      35.825 -25.071 -15.761  0.00  0.00    -0.260 OA
BRANCH  23  24
ATOM     24  C   UNL     1      36.361 -25.355 -14.477  0.00  0.00    +0.176 C 
BRANCH  24  25
ATOM     25  C   UNL     1      37.767 -25.932 -14.618  0.00  0.00    +0.067 C 
BRANCH  25  26
ATOM     26  C   UNL     1      38.866 -24.865 -14.557  0.00  0.00    +0.142 C 
BRANCH  26  27
ATOM     27  O   UNL     1      38.638 -23.912 -15.595  0.00  0.00    -0.382 OA
ATOM     28  H   UNL     1      39.267 -24.062 -16.317  0.00  0.00    +0.210 HD
ENDBRANCH  26  27
BRANCH  26  29
ATOM     29  C   UNL     1      40.247 -25.485 -14.758  0.00  0.00    +0.166 C 
BRANCH  29  30
ATOM     30  O   UNL     1      40.389 -25.922 -16.105  0.00  0.00    -0.379 OA
ATOM     31  H   UNL     1      40.202 -26.873 -16.157  0.00  0.00    +0.211 HD
ENDBRANCH  29  30
ENDBRANCH  26  29
ENDBRANCH  25  26
ENDBRANCH  24  25
ENDBRANCH  23  24
ENDBRANCH  21  23
ENDBRANCH   3  21
TORSDOF 9
ENDMDL
MODEL 2
REMARK VINA RESULT:     -10.4      2.268      6.532
REMARK  Name = 24894167
REMARK  9 active torsions:
REMARK  status: ('A' for Active; 'I' for Inactive)
REMARK    1  A    between atoms: C_2  and  C_13
REMARK    2  A    between atoms: C_3  and  N_21
REMARK    3  A    between atoms: N_21  and  O_23
REMARK    4  A    between atoms: O_23  and  C_24
REMARK    5  A    between atoms: C_24  and  C_25
REMARK    6  A    between atoms: C_25  and  C_26
REMARK    7  A    between atoms: C_26  and  O_27
REMARK    8  A    between atoms: C_26  and  C_29
REMARK    9  A    between atoms: C_29  and  O_30
REMARK                            x       y       z     vdW  Elec       q    Type
REMARK                         _______ _______ _______ _____ _____    ______ ____
ROOT
ATOM      1  N   UNL     1      33.264 -24.929 -13.341  0.00  0.00    -0.351 N 
ATOM      2  C   UNL     1      34.393 -24.309 -13.807  0.00  0.00    +0.086 A 
ATOM      3  C   UNL     1      34.037 -23.538 -14.889  0.00  0.00    +0.096 A 
ATOM      4  C   UNL     1      32.638 -23.693 -15.091  0.00  0.00    +0.034 A 
ATOM      5  C   UNL     1      32.176 -24.571 -14.107  0.00  0.00    +0.058 A 
ATOM      6  C   UNL     1      31.715 -23.169 -16.018  0.00  0.00    +0.003 C 
ATOM      7  C   UNL     1      30.834 -24.952 -14.004  0.00  0.00    +0.017 C 
ATOM      8  C   UNL     1      30.369 -23.542 -15.927  0.00  0.00    +0.000 C 
ATOM      9  C   UNL     1      29.937 -24.420 -14.934  0.00  0.00    +0.001 C 
ATOM     10  H   UNL     1      33.233 -25.542 -12.572  0.00  0.00    +0.166 HD
ENDROOT
BRANCH   2  13
ATOM     11  O   UNL     1      34.989 -24.103 -10.846  0.00  0.00    -0.209 OA
ATOM     12  N   UNL     1      37.167 -24.752 -11.342  0.00  0.00    -0.333 NA
ATOM     13  C   UNL     1      35.651 -24.576 -13.111  0.00  0.00    +0.114 C 
ATOM     14  C   UNL     1      36.822 -24.959 -13.628  0.00  0.00    +0.044 C 
ATOM     15  C   UNL     1      37.720 -25.052 -12.470  0.00  0.00    +0.145 C 
ATOM     16  C   UNL     1      35.858 -24.434 -11.638  0.00  0.00    +0.206 C 
ATOM     17  C   UNL     1      37.299 -25.237 -14.950  0.00  0.00    +0.003 C 
ATOM     18  C   UNL     1      39.117 -25.464 -12.719  0.00  0.00    +0.033 C 
ATOM     19  C   UNL     1      38.582 -25.602 -15.114  0.00  0.00    +0.000 C 
ATOM     20  C   UNL     1      39.488 -25.719 -13.985  0.00  0.00    +0.003 C 
ENDBRANCH   2  13
BRANCH   3  21
ATOM     21  N   UNL     1      34.900 -22.742 -15.652  0.00  0.00    -0.262 N 
ATOM     22  H   UNL     1      35.112 -21.836 -15.331  0.00  0.00    +0.194 HD
BRANCH  21  23
ATOM     23  O   UNL     1      35.466 -23.176 -16.841  0.00  0.00    -0.260 OA
BRANCH  23  24
ATOM     24  C   UNL     1      36.148 -22.060 -17.395  0.00  0.00    +0.176 C 
BRANCH  24  25
ATOM     25  C   UNL     1      35.702 -21.843 -18.838  0.00  0.00    +0.067 C 
BRANCH  25  26
ATOM     26  C   UNL     1      34.207 -22.106 -19.054  0.00  0.00    +0.142 C 
BRANCH  26  27
ATOM     27  O   UNL     1      34.039 -23.446 -19.517  0.00  0.00    -0.382 OA
ATOM     28  H   UNL     1      34.303 -24.065 -18.819  0.00  0.00    +0.210 HD
ENDBRANCH  26  27
BRANCH  26  29
ATOM     29  C   UNL     1      33.626 -21.152 -20.095  0.00  0.00    +0.166 C 
BRANCH  29  30
ATOM     30  O   UNL     1      32.460 -20.522 -19.575  0.00  0.00    -0.379 OA
ATOM     31  H   UNL     1      31.760 -21.185 -19.458  0.00  0.00    +0.211 HD
ENDBRANCH  29  30
ENDBRANCH  26  29
ENDBRANCH  25  26
ENDBRANCH  24  25
ENDBRANCH  23  24
ENDBRANCH  21  23
ENDBRANCH   3  21
TORSDOF 9
ENDMDL
MODEL 3
REMARK VINA RESULT:     -10.2      1.987      5.909
REMARK  Name = 24894167
REMARK  9 active torsions:
REMARK  status: ('A' for Active; 'I' for Inactive)
REMARK    1  A    between atoms: C_2  and  C_13
REMARK    2  A    between atoms: C_3  and  N_21
REMARK    3  A    between atoms: N_21  and  O_23
REMARK    4  A    between atoms: O_23  and  C_24
REMARK    5  A    between atoms: C_24  and  C_25
REMARK    6  A    between atoms: C_25  and  C_26
REMARK    7  A    between atoms: C_26  and  O_27
REMARK    8  A    between atoms: C_26  and  C_29
REMARK    9  A    between atoms: C_29  and  O_30
REMARK                            x       y       z     vdW  Elec       q    Type
REMARK                         _______ _______ _______ _____ _____    ______ ____
ROOT
ATOM      1  N   UNL     1      33.798 -23.478 -14.411  0.00  0.00    -0.351 N 
ATOM      2  C   UNL     1      34.491 -23.374 -15.588  0.00  0.00    +0.086 A 
ATOM      3  C   UNL     1      33.581 -23.169 -16.599  0.00  0.00    +0.096 A 
ATOM      4  C   UNL     1      32.284 -23.147 -16.017  0.00  0.00    +0.034 A 
ATOM      5  C   UNL     1      32.447 -23.343 -14.644  0.00  0.00    +0.058 A 
ATOM      6  C   UNL     1      30.981 -22.978 -16.527  0.00  0.00    +0.003 C 
ATOM      7  C   UNL     1      31.369 -23.379 -13.752  0.00  0.00    +0.017 C 
ATOM      8  C   UNL     1      29.893 -23.011 -15.647  0.00  0.00    +0.000 C 
ATOM      9  C   UNL     1      30.086 -23.209 -14.281  0.00  0.00    +0.001 C 
ATOM     10  H   UNL     1      34.205 -23.628 -13.528  0.00  0.00    +0.166 HD
ENDROOT
BRANCH   2  13
ATOM     11  O   UNL     1      36.584 -21.424 -16.578  0.00  0.00    -0.209 OA
ATOM     12  N   UNL     1      38.194 -22.937 -15.848  0.00  0.00    -0.333 NA
ATOM     13  C   UNL     1      35.947 -23.494 -15.531  0.00  0.00    +0.114 C 
ATOM     14  C   UNL     1      36.679 -24.499 -15.040  0.00  0.00    +0.044 C 
ATOM     15  C   UNL     1      38.069 -24.084 -15.267  0.00  0.00    +0.145 C 
ATOM     16  C   UNL     1      36.910 -22.481 -16.060  0.00  0.00    +0.206 C 
ATOM     17  C   UNL     1      36.382 -25.760 -14.428  0.00  0.00    +0.003 C 
ATOM     18  C   UNL     1      39.139 -24.999 -14.822  0.00  0.00    +0.033 C 
ATOM     19  C   UNL     1      37.398 -26.552 -14.048  0.00  0.00    +0.000 C 
ATOM     20  C   UNL     1      38.782 -26.159 -14.246  0.00  0.00    +0.003 C 
ENDBRANCH   2  13
BRANCH   3  21
ATOM     21  N   UNL     1      33.882 -23.009 -17.956  0.00  0.00    -0.262 N 
ATOM     22  H   UNL     1      34.753 -23.325 -18.287  0.00  0.00    +0.194 HD
BRANCH  21  23
ATOM     23  O   UNL     1      33.003 -22.422 -18.855  0.00  0.00    -0.260 OA
BRANCH  23  24
ATOM     24  C   UNL     1      33.742 -21.430 -19.553  0.00  0.00    +0.176 C 
BRANCH  24  25
ATOM     25  C   UNL     1      35.200 -21.861 -19.677  0.00  0.00    +0.067 C 
BRANCH  25  26
ATOM     26  C   UNL     1      36.104 -20.770 -20.263  0.00  0.00    +0.142 C 
BRANCH  26  27
ATOM     27  O   UNL     1      36.802 -20.130 -19.195  0.00  0.00    -0.382 OA
ATOM     28  H   UNL     1      36.206 -20.019 -18.438  0.00  0.00    +0.210 HD
ENDBRANCH  26  27
BRANCH  26  29
ATOM     29  C   UNL     1      35.285 -19.720 -21.011  0.00  0.00    +0.166 C 
BRANCH  29  30
ATOM     30  O   UNL     1      35.702 -18.416 -20.623  0.00  0.00    -0.379 OA
ATOM     31  H   UNL     1      36.253 -18.031 -21.323  0.00  0.00    +0.211 HD
ENDBRANCH  29  30
ENDBRANCH  26  29
ENDBRANCH  25  26
ENDBRANCH  24  25
ENDBRANCH  23  24
ENDBRANCH  21  23
ENDBRANCH   3  21
TORSDOF 9
ENDMDL
MODEL 4
REMARK VINA RESULT:     -10.2     10.378     13.817
REMARK  Name = 24894167
REMARK  9 active torsions:
REMARK  status: ('A' for Active; 'I' for Inactive)
REMARK    1  A    between atoms: C_2  and  C_13
REMARK    2  A    between atoms: C_3  and  N_21
REMARK    3  A    between atoms: N_21  and  O_23
REMARK    4  A    between atoms: O_23  and  C_24
REMARK    5  A    between atoms: C_24  and  C_25
REMARK    6  A    between atoms: C_25  and  C_26
REMARK    7  A    between atoms: C_26  and  O_27
REMARK    8  A    between atoms: C_26  and  C_29
REMARK    9  A    between atoms: C_29  and  O_30
REMARK                            x       y       z     vdW  Elec       q    Type
REMARK                         _______ _______ _______ _____ _____    ______ ____
ROOT
ATOM      1  N   UNL     1      34.522 -11.613 -24.906  0.00  0.00    -0.351 N 
ATOM      2  C   UNL     1      33.615 -12.507 -24.401  0.00  0.00    +0.086 A 
ATOM      3  C   UNL     1      32.819 -11.840 -23.499  0.00  0.00    +0.096 A 
ATOM      4  C   UNL     1      33.258 -10.487 -23.452  0.00  0.00    +0.034 A 
ATOM      5  C   UNL     1      34.327 -10.372 -24.343  0.00  0.00    +0.058 A 
ATOM      6  C   UNL     1      32.847  -9.346 -22.734  0.00  0.00    +0.003 C 
ATOM      7  C   UNL     1      35.009  -9.168 -24.553  0.00  0.00    +0.017 C 
ATOM      8  C   UNL     1      33.519  -8.135 -22.935  0.00  0.00    +0.000 C 
ATOM      9  C   UNL     1      34.583  -8.049 -23.831  0.00  0.00    +0.001 C 
ATOM     10  H   UNL     1      35.213 -11.827 -25.573  0.00  0.00    +0.166 HD
ENDROOT
BRANCH   2  13
ATOM     11  O   UNL     1      32.729 -13.598 -27.082  0.00  0.00    -0.209 OA
ATOM     12  N   UNL     1      33.398 -15.698 -26.336  0.00  0.00    -0.333 NA
ATOM     13  C   UNL     1      33.675 -13.884 -24.889  0.00  0.00    +0.114 C 
ATOM     14  C   UNL     1      34.124 -14.972 -24.254  0.00  0.00    +0.044 C 
ATOM     15  C   UNL     1      33.924 -16.064 -25.215  0.00  0.00    +0.145 C 
ATOM     16  C   UNL     1      33.199 -14.337 -26.231  0.00  0.00    +0.206 C 
ATOM     17  C   UNL     1      34.675 -15.228 -22.957  0.00  0.00    +0.003 C 
ATOM     18  C   UNL     1      34.333 -17.422 -24.802  0.00  0.00    +0.033 C 
ATOM     19  C   UNL     1      35.024 -16.485 -22.637  0.00  0.00    +0.000 C 
ATOM     20  C   UNL     1      34.853 -17.582 -23.574  0.00  0.00    +0.003 C 
ENDBRANCH   2  13
BRANCH   3  21
ATOM     21  N   UNL     1      31.766 -12.394 -22.763  0.00  0.00    -0.262 N 
ATOM     22  H   UNL     1      30.857 -12.043 -22.902  0.00  0.00    +0.194 HD
BRANCH  21  23
ATOM     23  O   UNL     1      31.950 -13.417 -21.845  0.00  0.00    -0.260 OA
BRANCH  23  24
ATOM     24  C   UNL     1      32.295 -12.798 -20.614  0.00  0.00    +0.176 C 
BRANCH  24  25
ATOM     25  C   UNL     1      31.378 -11.606 -20.358  0.00  0.00    +0.067 C 
BRANCH  25  26
ATOM     26  C   UNL     1      31.873 -10.697 -19.226  0.00  0.00    +0.142 C 
BRANCH  26  27
ATOM     27  O   UNL     1      31.191 -11.052 -18.023  0.00  0.00    -0.382 OA
ATOM     28  H   UNL     1      30.279 -10.724 -18.058  0.00  0.00    +0.210 HD
ENDBRANCH  26  27
BRANCH  26  29
ATOM     29  C   UNL     1      31.589  -9.229 -19.535  0.00  0.00    +0.166 C 
BRANCH  29  30
ATOM     30  O   UNL     1      32.800  -8.483 -19.486  0.00  0.00    -0.379 OA
ATOM     31  H   UNL     1      32.959  -8.185 -18.577  0.00  0.00    +0.211 HD
ENDBRANCH  29  30
ENDBRANCH  26  29
ENDBRANCH  25  26
ENDBRANCH  24  25
ENDBRANCH  23  24
ENDBRANCH  21  23
ENDBRANCH   3  21
TORSDOF 9
ENDMDL
MODEL 5
REMARK VINA RESULT:     -10.2      2.230      6.617
REMARK  Name = 24894167
REMARK  9 active torsions:
REMARK  status: ('A' for Active; 'I' for Inactive)
REMARK    1  A    between atoms: C_2  and  C_13
REMARK    2  A    between atoms: C_3  and  N_21
REMARK    3  A    between atoms: N_21  and  O_23
REMARK    4  A    between atoms: O_23  and  C_24
REMARK    5  A    between atoms: C_24  and  C_25
REMARK    6  A    between atoms: C_25  and  C_26
REMARK    7  A    between atoms: C_26  and  O_27
REMARK    8  A    between atoms: C_26  and  C_29
REMARK    9  A    between atoms: C_29  and  O_30
REMARK                            x       y       z     vdW  Elec       q    Type
REMARK                         _______ _______ _______ _____ _____    ______ ____
ROOT
ATOM      1  N   UNL     1      33.290 -24.846 -14.250  0.00  0.00    -0.351 N 
ATOM      2  C   UNL     1      34.387 -24.363 -14.914  0.00  0.00    +0.086 A 
ATOM      3  C   UNL     1      33.947 -23.490 -15.881  0.00  0.00    +0.096 A 
ATOM      4  C   UNL     1      32.527 -23.438 -15.804  0.00  0.00    +0.034 A 
ATOM      5  C   UNL     1      32.140 -24.297 -14.774  0.00  0.00    +0.058 A 
ATOM      6  C   UNL     1      31.530 -22.739 -16.515  0.00  0.00    +0.003 C 
ATOM      7  C   UNL     1      30.802 -24.494 -14.416  0.00  0.00    +0.017 C 
ATOM      8  C   UNL     1      30.187 -22.927 -16.168  0.00  0.00    +0.000 C 
ATOM      9  C   UNL     1      29.831 -23.791 -15.135  0.00  0.00    +0.001 C 
ATOM     10  H   UNL     1      33.319 -25.491 -13.508  0.00  0.00    +0.166 HD
ENDROOT
BRANCH   2  13
ATOM     11  O   UNL     1      35.972 -26.716 -15.972  0.00  0.00    -0.209 OA
ATOM     12  N   UNL     1      37.611 -26.186 -14.409  0.00  0.00    -0.333 NA
ATOM     13  C   UNL     1      35.703 -24.841 -14.489  0.00  0.00    +0.114 C 
ATOM     14  C   UNL     1      36.493 -24.352 -13.529  0.00  0.00    +0.044 C 
ATOM     15  C   UNL     1      37.666 -25.235 -13.536  0.00  0.00    +0.145 C 
ATOM     16  C   UNL     1      36.407 -26.027 -15.063  0.00  0.00    +0.206 C 
ATOM     17  C   UNL     1      36.399 -23.267 -12.598  0.00  0.00    +0.003 C 
ATOM     18  C   UNL     1      38.745 -24.948 -12.569  0.00  0.00    +0.033 C 
ATOM     19  C   UNL     1      37.411 -23.059 -11.739  0.00  0.00    +0.000 C 
ATOM     20  C   UNL     1      38.590 -23.907 -11.735  0.00  0.00    +0.003 C 
ENDBRANCH   2  13
BRANCH   3  21
ATOM     21  N   UNL     1      34.753 -22.779 -16.777  0.00  0.00    -0.262 N 
ATOM     22  H   UNL     1      35.495 -22.240 -16.419  0.00  0.00    +0.194 HD
BRANCH  21  23
ATOM     23  O   UNL     1      34.551 -22.803 -18.150  0.00  0.00    -0.260 OA
BRANCH  23  24
ATOM     24  C   UNL     1      35.542 -21.960 -18.718  0.00  0.00    +0.176 C 
BRANCH  24  25
ATOM     25  C   UNL     1      34.957 -21.195 -19.902  0.00  0.00    +0.067 C 
BRANCH  25  26
ATOM     26  C   UNL     1      33.457 -20.916 -19.757  0.00  0.00    +0.142 C 
BRANCH  26  27
ATOM     27  O   UNL     1      32.735 -22.104 -20.084  0.00  0.00    -0.382 OA
ATOM     28  H   UNL     1      33.006 -22.821 -19.490  0.00  0.00    +0.210 HD
ENDBRANCH  26  27
BRANCH  26  29
ATOM     29  C   UNL     1      33.012 -19.798 -20.698  0.00  0.00    +0.166 C 
BRANCH  29  30
ATOM     30  O   UNL     1      33.935 -19.677 -21.774  0.00  0.00    -0.379 OA
ATOM     31  H   UNL     1      34.749 -19.255 -21.456  0.00  0.00    +0.211 HD
ENDBRANCH  29  30
ENDBRANCH  26  29
ENDBRANCH  25  26
ENDBRANCH  24  25
ENDBRANCH  23  24
ENDBRANCH  21  23
ENDBRANCH   3  21
TORSDOF 9
ENDMDL
MODEL 6
REMARK VINA RESULT:     -10.1      2.856      5.794
REMARK  Name = 24894167
REMARK  9 active torsions:
REMARK  status: ('A' for Active; 'I' for Inactive)
REMARK    1  A    between atoms: C_2  and  C_13
REMARK    2  A    between atoms: C_3  and  N_21
REMARK    3  A    between atoms: N_21  and  O_23
REMARK    4  A    between atoms: O_23  and  C_24
REMARK    5  A    between atoms: C_24  and  C_25
REMARK    6  A    between atoms: C_25  and  C_26
REMARK    7  A    between atoms: C_26  and  O_27
REMARK    8  A    between atoms: C_26  and  C_29
REMARK    9  A    between atoms: C_29  and  O_30
REMARK                            x       y       z     vdW  Elec       q    Type
REMARK                         _______ _______ _______ _____ _____    ______ ____
ROOT
ATOM      1  N   UNL     1      36.234 -23.767 -15.783  0.00  0.00    -0.351 N 
ATOM      2  C   UNL     1      34.930 -23.354 -15.851  0.00  0.00    +0.086 A 
ATOM      3  C   UNL     1      34.356 -23.559 -14.618  0.00  0.00    +0.096 A 
ATOM      4  C   UNL     1      35.347 -24.118 -13.766  0.00  0.00    +0.034 A 
ATOM      5  C   UNL     1      36.516 -24.239 -14.520  0.00  0.00    +0.058 A 
ATOM      6  C   UNL     1      35.364 -24.535 -12.419  0.00  0.00    +0.003 C 
ATOM      7  C   UNL     1      37.705 -24.758 -13.995  0.00  0.00    +0.017 C 
ATOM      8  C   UNL     1      36.546 -25.055 -11.880  0.00  0.00    +0.000 C 
ATOM      9  C   UNL     1      37.697 -25.164 -12.657  0.00  0.00    +0.001 C 
ATOM     10  H   UNL     1      36.877 -23.732 -16.528  0.00  0.00    +0.166 HD
ENDROOT
BRANCH   2  13
ATOM     11  O   UNL     1      32.171 -23.581 -17.077  0.00  0.00    -0.209 OA
ATOM     12  N   UNL     1      32.987 -22.371 -18.889  0.00  0.00    -0.333 NA
ATOM     13  C   UNL     1      34.453 -22.819 -17.126  0.00  0.00    +0.114 C 
ATOM     14  C   UNL     1      35.133 -22.122 -18.041  0.00  0.00    +0.044 C 
ATOM     15  C   UNL     1      34.158 -21.874 -19.111  0.00  0.00    +0.145 C 
ATOM     16  C   UNL     1      33.068 -22.993 -17.661  0.00  0.00    +0.206 C 
ATOM     17  C   UNL     1      36.482 -21.652 -18.156  0.00  0.00    +0.003 C 
ATOM     18  C   UNL     1      34.614 -21.107 -20.288  0.00  0.00    +0.033 C 
ATOM     19  C   UNL     1      36.838 -20.964 -19.253  0.00  0.00    +0.000 C 
ATOM     20  C   UNL     1      35.890 -20.690 -20.319  0.00  0.00    +0.003 C 
ENDBRANCH   2  13
BRANCH   3  21
ATOM     21  N   UNL     1      33.033 -23.266 -14.268  0.00  0.00    -0.262 N 
ATOM     22  H   UNL     1      32.746 -22.324 -14.254  0.00  0.00    +0.194 HD
BRANCH  21  23
ATOM     23  O   UNL     1      32.110 -24.247 -13.938  0.00  0.00    -0.260 OA
BRANCH  23  24
ATOM     24  C   UNL     1      30.963 -23.572 -13.441  0.00  0.00    +0.176 C 
BRANCH  24  25
ATOM     25  C   UNL     1      30.174 -22.967 -14.598  0.00  0.00    +0.067 C 
BRANCH  25  26
ATOM     26  C   UNL     1      29.242 -23.973 -15.284  0.00  0.00    +0.142 C 
BRANCH  26  27
ATOM     27  O   UNL     1      30.016 -25.088 -15.725  0.00  0.00    -0.382 OA
ATOM     28  H   UNL     1      30.739 -25.249 -15.100  0.00  0.00    +0.210 HD
ENDBRANCH  26  27
BRANCH  26  29
ATOM     29  C   UNL     1      28.551 -23.348 -16.493  0.00  0.00    +0.166 C 
BRANCH  29  30
ATOM     30  O   UNL     1      29.425 -22.416 -17.120  0.00  0.00    -0.379 OA
ATOM     31  H   UNL     1      30.176 -22.890 -17.511  0.00  0.00    +0.211 HD
ENDBRANCH  29  30
ENDBRANCH  26  29
ENDBRANCH  25  26
ENDBRANCH  24  25
ENDBRANCH  23  24
ENDBRANCH  21  23
ENDBRANCH   3  21
TORSDOF 9
ENDMDL
MODEL 7
REMARK VINA RESULT:     -10.0      3.040      7.798
REMARK  Name = 24894167
REMARK  9 active torsions:
REMARK  status: ('A' for Active; 'I' for Inactive)
REMARK    1  A    between atoms: C_2  and  C_13
REMARK    2  A    between atoms: C_3  and  N_21
REMARK    3  A    between atoms: N_21  and  O_23
REMARK    4  A    between atoms: O_23  and  C_24
REMARK    5  A    between atoms: C_24  and  C_25
REMARK    6  A    between atoms: C_25  and  C_26
REMARK    7  A    between atoms: C_26  and  O_27
REMARK    8  A    between atoms: C_26  and  C_29
REMARK    9  A    between atoms: C_29  and  O_30
REMARK                            x       y       z     vdW  Elec       q    Type
REMARK                         _______ _______ _______ _____ _____    ______ ____
ROOT
ATOM      1  N   UNL     1      36.036 -22.574 -16.717  0.00  0.00    -0.351 N 
ATOM      2  C   UNL     1      34.962 -23.185 -16.127  0.00  0.00    +0.086 A 
ATOM      3  C   UNL     1      33.881 -23.046 -16.967  0.00  0.00    +0.096 A 
ATOM      4  C   UNL     1      34.313 -22.323 -18.113  0.00  0.00    +0.034 A 
ATOM      5  C   UNL     1      35.668 -22.038 -17.932  0.00  0.00    +0.058 A 
ATOM      6  C   UNL     1      33.680 -21.881 -19.292  0.00  0.00    +0.003 C 
ATOM      7  C   UNL     1      36.425 -21.332 -18.873  0.00  0.00    +0.017 C 
ATOM      8  C   UNL     1      34.424 -21.174 -20.243  0.00  0.00    +0.000 C 
ATOM      9  C   UNL     1      35.775 -20.904 -20.035  0.00  0.00    +0.001 C 
ATOM     10  H   UNL     1      36.939 -22.524 -16.330  0.00  0.00    +0.166 HD
ENDROOT
BRANCH   2  13
ATOM     11  O   UNL     1      33.008 -23.450 -13.829  0.00  0.00    -0.209 OA
ATOM     12  N   UNL     1      34.698 -24.530 -12.650  0.00  0.00    -0.333 NA
ATOM     13  C   UNL     1      35.169 -23.812 -14.822  0.00  0.00    +0.114 C 
ATOM     14  C   UNL     1      36.274 -24.398 -14.349  0.00  0.00    +0.044 C 
ATOM     15  C   UNL     1      35.908 -24.825 -12.992  0.00  0.00    +0.145 C 
ATOM     16  C   UNL     1      34.145 -23.886 -13.737  0.00  0.00    +0.206 C 
ATOM     17  C   UNL     1      37.591 -24.633 -14.861  0.00  0.00    +0.003 C 
ATOM     18  C   UNL     1      36.936 -25.522 -12.193  0.00  0.00    +0.033 C 
ATOM     19  C   UNL     1      38.485 -25.267 -14.084  0.00  0.00    +0.000 C 
ATOM     20  C   UNL     1      38.145 -25.715 -12.745  0.00  0.00    +0.003 C 
ENDBRANCH   2  13
BRANCH   3  21
ATOM     21  N   UNL     1      32.590 -23.533 -16.734  0.00  0.00    -0.262 N 
ATOM     22  H   UNL     1      32.488 -24.426 -16.332  0.00  0.00    +0.194 HD
BRANCH  21  23
ATOM     23  O   UNL     1      31.448 -22.810 -17.047  0.00  0.00    -0.260 OA
BRANCH  23  24
ATOM     24  C   UNL     1      30.570 -22.943 -15.938  0.00  0.00    +0.176 C 
BRANCH  24  25
ATOM     25  C   UNL     1      29.665 -24.156 -16.136  0.00  0.00    +0.067 C 
BRANCH  25  26
ATOM     26  C   UNL     1      28.181 -23.788 -16.256  0.00  0.00    +0.142 C 
BRANCH  26  27
ATOM     27  O   UNL     1      27.750 -24.052 -17.591  0.00  0.00    -0.382 OA
ATOM     28  H   UNL     1      28.334 -23.596 -18.216  0.00  0.00    +0.210 HD
ENDBRANCH  26  27
BRANCH  26  29
ATOM     29  C   UNL     1      27.954 -22.309 -15.951  0.00  0.00    +0.166 C 
BRANCH  29  30
ATOM     30  O   UNL     1      27.407 -21.660 -17.093  0.00  0.00    -0.379 OA
ATOM     31  H   UNL     1      27.201 -22.321 -17.773  0.00  0.00    +0.211 HD
ENDBRANCH  29  30
ENDBRANCH  26  29
ENDBRANCH  25  26
ENDBRANCH  24  25
ENDBRANCH  23  24
ENDBRANCH  21  23
ENDBRANCH   3  21
TORSDOF 9
ENDMDL
MODEL 8
REMARK VINA RESULT:     -10.0     13.285     16.956
REMARK  Name = 24894167
REMARK  9 active torsions:
REMARK  status: ('A' for Active; 'I' for Inactive)
REMARK    1  A    between atoms: C_2  and  C_13
REMARK    2  A    between atoms: C_3  and  N_21
REMARK    3  A    between atoms: N_21  and  O_23
REMARK    4  A    between atoms: O_23  and  C_24
REMARK    5  A    between atoms: C_24  and  C_25
REMARK    6  A    between atoms: C_25  and  C_26
REMARK    7  A    between atoms: C_26  and  O_27
REMARK    8  A    between atoms: C_26  and  C_29
REMARK    9  A    between atoms: C_29  and  O_30
REMARK                            x       y       z     vdW  Elec       q    Type
REMARK                         _______ _______ _______ _____ _____    ______ ____
ROOT
ATOM      1  N   UNL     1      31.875  -6.326 -23.255  0.00  0.00    -0.351 N 
ATOM      2  C   UNL     1      32.768  -7.258 -22.798  0.00  0.00    +0.086 A 
ATOM      3  C   UNL     1      33.837  -7.280 -23.664  0.00  0.00    +0.096 A 
ATOM      4  C   UNL     1      33.586  -6.325 -24.687  0.00  0.00    +0.034 A 
ATOM      5  C   UNL     1      32.349  -5.741 -24.408  0.00  0.00    +0.058 A 
ATOM      6  C   UNL     1      34.295  -5.898 -25.828  0.00  0.00    +0.003 C 
ATOM      7  C   UNL     1      31.782  -4.748 -25.215  0.00  0.00    +0.017 C 
ATOM      8  C   UNL     1      33.740  -4.906 -26.645  0.00  0.00    +0.000 C 
ATOM      9  C   UNL     1      32.503  -4.341 -26.342  0.00  0.00    +0.001 C 
ATOM     10  H   UNL     1      31.018  -6.107 -22.822  0.00  0.00    +0.166 HD
ENDROOT
BRANCH   2  13
ATOM     11  O   UNL     1      32.666  -6.222 -19.955  0.00  0.00    -0.209 OA
ATOM     12  N   UNL     1      32.064  -8.372 -19.300  0.00  0.00    -0.333 NA
ATOM     13  C   UNL     1      32.427  -7.985 -21.575  0.00  0.00    +0.114 C 
ATOM     14  C   UNL     1      32.097  -9.273 -21.439  0.00  0.00    +0.044 C 
ATOM     15  C   UNL     1      31.882  -9.444 -19.997  0.00  0.00    +0.145 C 
ATOM     16  C   UNL     1      32.415  -7.391 -20.204  0.00  0.00    +0.206 C 
ATOM     17  C   UNL     1      31.955 -10.379 -22.338  0.00  0.00    +0.003 C 
ATOM     18  C   UNL     1      31.493 -10.786 -19.518  0.00  0.00    +0.033 C 
ATOM     19  C   UNL     1      31.605 -11.577 -21.842  0.00  0.00    +0.000 C 
ATOM     20  C   UNL     1      31.369 -11.772 -20.422  0.00  0.00    +0.003 C 
ENDBRANCH   2  13
BRANCH   3  21
ATOM     21  N   UNL     1      34.970  -8.095 -23.553  0.00  0.00    -0.262 N 
ATOM     22  H   UNL     1      35.797  -7.706 -23.189  0.00  0.00    +0.194 HD
BRANCH  21  23
ATOM     23  O   UNL     1      34.974  -9.429 -23.936  0.00  0.00    -0.260 OA
BRANCH  23  24
ATOM     24  C   UNL     1      35.237  -9.447 -25.331  0.00  0.00    +0.176 C 
BRANCH  24  25
ATOM     25  C   UNL     1      35.146 -10.876 -25.859  0.00  0.00    +0.067 C 
BRANCH  25  26
ATOM     26  C   UNL     1      33.918 -11.633 -25.340  0.00  0.00    +0.142 C 
BRANCH  26  27
ATOM     27  O   UNL     1      34.266 -12.291 -24.122  0.00  0.00    -0.382 OA
ATOM     28  H   UNL     1      34.528 -11.632 -23.461  0.00  0.00    +0.210 HD
ENDBRANCH  26  27
BRANCH  26  29
ATOM     29  C   UNL     1      33.453 -12.682 -26.348  0.00  0.00    +0.166 C 
BRANCH  29  30
ATOM     30  O   UNL     1      33.028 -13.855 -25.662  0.00  0.00    -0.379 OA
ATOM     31  H   UNL     1      33.165 -13.739 -24.708  0.00  0.00    +0.211 HD
ENDBRANCH  29  30
ENDBRANCH  26  29
ENDBRANCH  25  26
ENDBRANCH  24  25
ENDBRANCH  23  24
ENDBRANCH  21  23
ENDBRANCH   3  21
TORSDOF 9
ENDMDL
MODEL 9
REMARK VINA RESULT:      -9.9      1.697      5.305
REMARK  Name = 24894167
REMARK  9 active torsions:
REMARK  status: ('A' for Active; 'I' for Inactive)
REMARK    1  A    between atoms: C_2  and  C_13
REMARK    2  A    between atoms: C_3  and  N_21
REMARK    3  A    between atoms: N_21  and  O_23
REMARK    4  A    between atoms: O_23  and  C_24
REMARK    5  A    between atoms: C_24  and  C_25
REMARK    6  A    between atoms: C_25  and  C_26
REMARK    7  A    between atoms: C_26  and  O_27
REMARK    8  A    between atoms: C_26  and  C_29
REMARK    9  A    between atoms: C_29  and  O_30
REMARK                            x       y       z     vdW  Elec       q    Type
REMARK                         _______ _______ _______ _____ _____    ______ ____
ROOT
ATOM      1  N   UNL     1      33.380 -22.998 -17.516  0.00  0.00    -0.351 N 
ATOM      2  C   UNL     1      33.706 -23.183 -16.198  0.00  0.00    +0.086 A 
ATOM      3  C   UNL     1      34.997 -22.744 -16.016  0.00  0.00    +0.096 A 
ATOM      4  C   UNL     1      35.476 -22.273 -17.269  0.00  0.00    +0.034 A 
ATOM      5  C   UNL     1      34.443 -22.444 -18.194  0.00  0.00    +0.058 A 
ATOM      6  C   UNL     1      36.694 -21.715 -17.709  0.00  0.00    +0.003 C 
ATOM      7  C   UNL     1      34.567 -22.084 -19.540  0.00  0.00    +0.017 C 
ATOM      8  C   UNL     1      36.831 -21.351 -19.053  0.00  0.00    +0.000 C 
ATOM      9  C   UNL     1      35.784 -21.533 -19.953  0.00  0.00    +0.001 C 
ATOM     10  H   UNL     1      32.513 -23.228 -17.920  0.00  0.00    +0.166 HD
ENDROOT
BRANCH   2  13
ATOM     11  O   UNL     1      34.096 -24.718 -13.619  0.00  0.00    -0.209 OA
ATOM     12  N   UNL     1      31.782 -24.936 -13.516  0.00  0.00    -0.333 NA
ATOM     13  C   UNL     1      32.690 -23.766 -15.323  0.00  0.00    +0.114 C 
ATOM     14  C   UNL     1      31.362 -23.762 -15.474  0.00  0.00    +0.044 C 
ATOM     15  C   UNL     1      30.860 -24.505 -14.311  0.00  0.00    +0.145 C 
ATOM     16  C   UNL     1      32.977 -24.524 -14.067  0.00  0.00    +0.206 C 
ATOM     17  C   UNL     1      30.459 -23.243 -16.457  0.00  0.00    +0.003 C 
ATOM     18  C   UNL     1      29.398 -24.674 -14.186  0.00  0.00    +0.033 C 
ATOM     19  C   UNL     1      29.140 -23.433 -16.292  0.00  0.00    +0.000 C 
ATOM     20  C   UNL     1      28.614 -24.150 -15.143  0.00  0.00    +0.003 C 
ENDBRANCH   2  13
BRANCH   3  21
ATOM     21  N   UNL     1      35.708 -22.757 -14.810  0.00  0.00    -0.262 N 
ATOM     22  H   UNL     1      35.248 -22.468 -13.989  0.00  0.00    +0.194 HD
BRANCH  21  23
ATOM     23  O   UNL     1      37.033 -23.158 -14.725  0.00  0.00    -0.260 OA
BRANCH  23  24
ATOM     24  C   UNL     1      37.223 -23.643 -13.404  0.00  0.00    +0.176 C 
BRANCH  24  25
ATOM     25  C   UNL     1      38.269 -24.754 -13.404  0.00  0.00    +0.067 C 
BRANCH  25  26
ATOM     26  C   UNL     1      38.819 -25.064 -14.801  0.00  0.00    +0.142 C 
BRANCH  26  27
ATOM     27  O   UNL     1      37.999 -26.064 -15.405  0.00  0.00    -0.382 OA
ATOM     28  H   UNL     1      37.412 -26.450 -14.737  0.00  0.00    +0.210 HD
ENDBRANCH  26  27
BRANCH  26  29
ATOM     29  C   UNL     1      40.252 -25.587 -14.724  0.00  0.00    +0.166 C 
BRANCH  29  30
ATOM     30  O   UNL     1      40.653 -26.086 -15.996  0.00  0.00    -0.379 OA
ATOM     31  H   UNL     1      40.686 -27.056 -15.966  0.00  0.00    +0.211 HD
ENDBRANCH  29  30
ENDBRANCH  26  29
ENDBRANCH  25  26
ENDBRANCH  24  25
ENDBRANCH  23  24
ENDBRANCH  21  23
ENDBRANCH   3  21
TORSDOF 9
ENDMDL
