MODEL 1
REMARK VINA RESULT:      -9.5      0.000      0.000
REMARK  Name = 127516
REMARK  5 active torsions:
REMARK  status: ('A' for Active; 'I' for Inactive)
REMARK    1  A    between atoms: C_7  and  O_22
REMARK    2  A    between atoms: C_7  and  C_27
REMARK    3  A    between atoms: C_10  and  O_24
REMARK    4  A    between atoms: C_27  and  C_28
REMARK    5  A    between atoms: C_28  and  O_29
REMARK                            x       y       z     vdW  Elec       q    Type
REMARK                         _______ _______ _______ _____ _____    ______ ____
ROOT
ATOM      1  F   UNL     1      35.094 -25.512 -15.085  0.00  0.00    -0.237 F 
ATOM      2  O   UNL     1      39.839 -26.526 -14.584  0.00  0.00    -0.287 OA
ATOM      3  C   UNL     1      32.116 -23.671 -14.803  0.00  0.00    +0.032 C 
ATOM      4  C   UNL     1      33.206 -23.557 -15.891  0.00  0.00    +0.005 C 
ATOM      5  C   UNL     1      34.597 -23.222 -15.330  0.00  0.00    +0.033 C 
ATOM      6  C   UNL     1      35.035 -24.349 -14.334  0.00  0.00    +0.164 C 
ATOM      7  C   UNL     1      30.876 -23.926 -15.706  0.00  0.00    +0.141 C 
ATOM      8  C   UNL     1      32.529 -24.819 -13.860  0.00  0.00    +0.035 C 
ATOM      9  C   UNL     1      32.584 -22.614 -16.918  0.00  0.00    +0.003 C 
ATOM     10  C   UNL     1      33.942 -24.635 -13.259  0.00  0.00    +0.141 C 
ATOM     11  C   UNL     1      36.499 -24.121 -13.788  0.00  0.00    +0.064 C 
ATOM     12  C   UNL     1      31.086 -22.980 -16.910  0.00  0.00    +0.034 C 
ATOM     13  C   UNL     1      35.613 -23.069 -16.477  0.00  0.00    +0.007 C 
ATOM     14  C   UNL     1      31.907 -22.354 -14.004  0.00  0.00    +0.003 C 
ATOM     15  C   UNL     1      37.033 -22.848 -15.966  0.00  0.00    +0.023 C 
ATOM     16  C   UNL     1      37.419 -23.941 -15.002  0.00  0.00    -0.035 C 
ATOM     17  C   UNL     1      36.656 -22.871 -12.892  0.00  0.00    +0.011 C 
ATOM     18  C   UNL     1      36.935 -25.309 -12.941  0.00  0.00    -0.017 C 
ATOM     19  C   UNL     1      38.485 -24.716 -15.253  0.00  0.00    +0.034 C 
ATOM     20  C   UNL     1      37.995 -26.086 -13.187  0.00  0.00    +0.038 C 
ATOM     21  C   UNL     1      38.854 -25.831 -14.357  0.00  0.00    +0.195 C 
ENDROOT
BRANCH   7  22
ATOM     22  O   UNL     1      30.844 -25.275 -16.164  0.00  0.00    -0.380 OA
ATOM     23  H   UNL     1      31.367 -25.832 -15.567  0.00  0.00    +0.211 HD
ENDBRANCH   7  22
BRANCH  10  24
ATOM     24  O   UNL     1      33.887 -23.636 -12.254  0.00  0.00    -0.382 OA
ATOM     25  H   UNL     1      34.681 -23.693 -11.698  0.00  0.00    +0.210 HD
ENDBRANCH  10  24
BRANCH   7  27
ATOM     26  O   UNL     1      29.155 -24.517 -14.169  0.00  0.00    -0.291 OA
ATOM     27  C   UNL     1      29.556 -23.731 -15.026  0.00  0.00    +0.204 C 
BRANCH  27  28
ATOM     28  C   UNL     1      28.753 -22.520 -15.456  0.00  0.00    +0.204 C 
BRANCH  28  29
ATOM     29  O   UNL     1      27.404 -22.871 -15.681  0.00  0.00    -0.375 OA
ATOM     30  H   UNL     1      26.829 -22.309 -15.138  0.00  0.00    +0.211 HD
ENDBRANCH  28  29
ENDBRANCH  27  28
ENDBRANCH   7  27
TORSDOF 5
ENDMDL
MODEL 2
REMARK VINA RESULT:      -7.5     14.689     17.155
REMARK  Name = 127516
REMARK  5 active torsions:
REMARK  status: ('A' for Active; 'I' for Inactive)
REMARK    1  A    between atoms: C_7  and  O_22
REMARK    2  A    between atoms: C_7  and  C_27
REMARK    3  A    between atoms: C_10  and  O_24
REMARK    4  A    between atoms: C_27  and  C_28
REMARK    5  A    between atoms: C_28  and  O_29
REMARK                            x       y       z     vdW  Elec       q    Type
REMARK                         _______ _______ _______ _____ _____    ______ ____
ROOT
ATOM      1  F   UNL     1      31.610  -9.386 -24.026  0.00  0.00    -0.237 F 
ATOM      2  O   UNL     1      30.635  -4.612 -23.787  0.00  0.00    -0.287 OA
ATOM      3  C   UNL     1      33.356 -12.379 -23.457  0.00  0.00    +0.032 C 
ATOM      4  C   UNL     1      32.324 -11.691 -22.539  0.00  0.00    +0.005 C 
ATOM      5  C   UNL     1      32.718 -10.260 -22.140  0.00  0.00    +0.033 C 
ATOM      6  C   UNL     1      32.861  -9.387 -23.433  0.00  0.00    +0.164 C 
ATOM      7  C   UNL     1      32.695 -13.781 -23.584  0.00  0.00    +0.141 C 
ATOM      8  C   UNL     1      33.449 -11.543 -24.749  0.00  0.00    +0.035 C 
ATOM      9  C   UNL     1      32.089 -12.721 -21.436  0.00  0.00    +0.003 C 
ATOM     10  C   UNL     1      33.792 -10.057 -24.489  0.00  0.00    +0.141 C 
ATOM     11  C   UNL     1      33.172  -7.876 -23.095  0.00  0.00    +0.064 C 
ATOM     12  C   UNL     1      32.168 -14.079 -22.162  0.00  0.00    +0.034 C 
ATOM     13  C   UNL     1      31.671  -9.665 -21.181  0.00  0.00    +0.007 C 
ATOM     14  C   UNL     1      34.758 -12.530 -22.801  0.00  0.00    +0.003 C 
ATOM     15  C   UNL     1      31.958  -8.205 -20.845  0.00  0.00    +0.023 C 
ATOM     16  C   UNL     1      32.102  -7.395 -22.108  0.00  0.00    -0.035 C 
ATOM     17  C   UNL     1      34.553  -7.642 -22.438  0.00  0.00    +0.011 C 
ATOM     18  C   UNL     1      33.160  -7.040 -24.368  0.00  0.00    -0.017 C 
ATOM     19  C   UNL     1      31.291  -6.352 -22.337  0.00  0.00    +0.034 C 
ATOM     20  C   UNL     1      32.354  -6.001 -24.602  0.00  0.00    +0.038 C 
ATOM     21  C   UNL     1      31.369  -5.575 -23.591  0.00  0.00    +0.195 C 
ENDROOT
BRANCH   7  22
ATOM     22  O   UNL     1      31.602 -13.752 -24.497  0.00  0.00    -0.380 OA
ATOM     23  H   UNL     1      31.633 -12.931 -25.013  0.00  0.00    +0.211 HD
ENDBRANCH   7  22
BRANCH  10  24
ATOM     24  O   UNL     1      35.166  -9.955 -24.152  0.00  0.00    -0.382 OA
ATOM     25  H   UNL     1      35.704 -10.293 -24.886  0.00  0.00    +0.210 HD
ENDBRANCH  10  24
BRANCH   7  27
ATOM     26  O   UNL     1      33.758 -15.013 -25.323  0.00  0.00    -0.291 OA
ATOM     27  C   UNL     1      33.597 -14.853 -24.114  0.00  0.00    +0.204 C 
BRANCH  27  28
ATOM     28  C   UNL     1      34.289 -15.719 -23.082  0.00  0.00    +0.204 C 
BRANCH  28  29
ATOM     29  O   UNL     1      35.589 -16.064 -23.512  0.00  0.00    -0.375 OA
ATOM     30  H   UNL     1      36.243 -15.644 -22.932  0.00  0.00    +0.211 HD
ENDBRANCH  28  29
ENDBRANCH  27  28
ENDBRANCH   7  27
TORSDOF 5
ENDMDL
MODEL 3
REMARK VINA RESULT:      -7.5     10.635     13.087
REMARK  Name = 127516
REMARK  5 active torsions:
REMARK  status: ('A' for Active; 'I' for Inactive)
REMARK    1  A    between atoms: C_7  and  O_22
REMARK    2  A    between atoms: C_7  and  C_27
REMARK    3  A    between atoms: C_10  and  O_24
REMARK    4  A    between atoms: C_27  and  C_28
REMARK    5  A    between atoms: C_28  and  O_29
REMARK                            x       y       z     vdW  Elec       q    Type
REMARK                         _______ _______ _______ _____ _____    ______ ____
ROOT
ATOM      1  F   UNL     1      35.460 -14.535 -23.824  0.00  0.00    -0.237 F 
ATOM      2  O   UNL     1      34.713 -10.250 -26.031  0.00  0.00    -0.287 OA
ATOM      3  C   UNL     1      34.652 -17.505 -22.133  0.00  0.00    +0.032 C 
ATOM      4  C   UNL     1      34.629 -17.240 -23.654  0.00  0.00    +0.005 C 
ATOM      5  C   UNL     1      33.701 -16.084 -24.060  0.00  0.00    +0.033 C 
ATOM      6  C   UNL     1      34.178 -14.769 -23.354  0.00  0.00    +0.164 C 
ATOM      7  C   UNL     1      35.592 -18.742 -22.101  0.00  0.00    +0.141 C 
ATOM      8  C   UNL     1      35.175 -16.224 -21.453  0.00  0.00    +0.035 C 
ATOM      9  C   UNL     1      34.381 -18.622 -24.251  0.00  0.00    +0.003 C 
ATOM     10  C   UNL     1      34.357 -14.963 -21.817  0.00  0.00    +0.141 C 
ATOM     11  C   UNL     1      33.327 -13.515 -23.799  0.00  0.00    +0.064 C 
ATOM     12  C   UNL     1      35.154 -19.581 -23.323  0.00  0.00    +0.034 C 
ATOM     13  C   UNL     1      33.689 -15.920 -25.591  0.00  0.00    +0.007 C 
ATOM     14  C   UNL     1      33.262 -17.901 -21.559  0.00  0.00    +0.003 C 
ATOM     15  C   UNL     1      32.871 -14.713 -26.036  0.00  0.00    +0.023 C 
ATOM     16  C   UNL     1      33.346 -13.468 -25.332  0.00  0.00    -0.035 C 
ATOM     17  C   UNL     1      31.848 -13.559 -23.350  0.00  0.00    +0.011 C 
ATOM     18  C   UNL     1      33.915 -12.243 -23.203  0.00  0.00    -0.017 C 
ATOM     19  C   UNL     1      33.794 -12.420 -26.041  0.00  0.00    +0.034 C 
ATOM     20  C   UNL     1      34.364 -11.197 -23.904  0.00  0.00    +0.038 C 
ATOM     21  C   UNL     1      34.320 -11.210 -25.377  0.00  0.00    +0.195 C 
ENDROOT
BRANCH   7  22
ATOM     22  O   UNL     1      36.955 -18.355 -22.257  0.00  0.00    -0.380 OA
ATOM     23  H   UNL     1      37.532 -19.067 -21.941  0.00  0.00    +0.211 HD
ENDBRANCH   7  22
BRANCH  10  24
ATOM     24  O   UNL     1      33.121 -15.000 -21.123  0.00  0.00    -0.382 OA
ATOM     25  H   UNL     1      32.403 -14.752 -21.726  0.00  0.00    +0.210 HD
ENDBRANCH  10  24
BRANCH   7  27
ATOM     26  O   UNL     1      36.474 -19.411 -19.992  0.00  0.00    -0.291 OA
ATOM     27  C   UNL     1      35.569 -19.514 -20.818  0.00  0.00    +0.204 C 
BRANCH  27  28
ATOM     28  C   UNL     1      34.374 -20.421 -20.603  0.00  0.00    +0.204 C 
BRANCH  28  29
ATOM     29  O   UNL     1      34.573 -21.248 -19.476  0.00  0.00    -0.375 OA
ATOM     30  H   UNL     1      35.514 -21.253 -19.241  0.00  0.00    +0.211 HD
ENDBRANCH  28  29
ENDBRANCH  27  28
ENDBRANCH   7  27
TORSDOF 5
ENDMDL
MODEL 4
REMARK VINA RESULT:      -7.0      1.763      6.980
REMARK  Name = 127516
REMARK  5 active torsions:
REMARK  status: ('A' for Active; 'I' for Inactive)
REMARK    1  A    between atoms: C_7  and  O_22
REMARK    2  A    between atoms: C_7  and  C_27
REMARK    3  A    between atoms: C_10  and  O_24
REMARK    4  A    between atoms: C_27  and  C_28
REMARK    5  A    between atoms: C_28  and  O_29
REMARK                            x       y       z     vdW  Elec       q    Type
REMARK                         _______ _______ _______ _____ _____    ______ ____
ROOT
ATOM      1  F   UNL     1      32.326 -22.424 -14.362  0.00  0.00    -0.237 F 
ATOM      2  O   UNL     1      27.613 -21.607 -15.314  0.00  0.00    -0.287 OA
ATOM      3  C   UNL     1      35.414 -24.097 -14.430  0.00  0.00    +0.032 C 
ATOM      4  C   UNL     1      34.838 -23.119 -15.477  0.00  0.00    +0.005 C 
ATOM      5  C   UNL     1      33.489 -23.571 -16.060  0.00  0.00    +0.033 C 
ATOM      6  C   UNL     1      32.444 -23.695 -14.899  0.00  0.00    +0.164 C 
ATOM      7  C   UNL     1      36.765 -23.389 -14.132  0.00  0.00    +0.141 C 
ATOM      8  C   UNL     1      34.404 -24.169 -13.268  0.00  0.00    +0.035 C 
ATOM      9  C   UNL     1      36.008 -22.892 -16.431  0.00  0.00    +0.003 C 
ATOM     10  C   UNL     1      32.980 -24.567 -13.722  0.00  0.00    +0.141 C 
ATOM     11  C   UNL     1      31.005 -24.065 -15.435  0.00  0.00    +0.064 C 
ATOM     12  C   UNL     1      37.250 -22.903 -15.517  0.00  0.00    +0.034 C 
ATOM     13  C   UNL     1      33.011 -22.577 -17.134  0.00  0.00    +0.007 C 
ATOM     14  C   UNL     1      35.693 -25.515 -15.003  0.00  0.00    +0.003 C 
ATOM     15  C   UNL     1      31.622 -22.921 -17.661  0.00  0.00    +0.023 C 
ATOM     16  C   UNL     1      30.644 -23.045 -16.522  0.00  0.00    -0.035 C 
ATOM     17  C   UNL     1      30.903 -25.474 -16.063  0.00  0.00    +0.011 C 
ATOM     18  C   UNL     1      29.996 -24.033 -14.295  0.00  0.00    -0.017 C 
ATOM     19  C   UNL     1      29.558 -22.259 -16.476  0.00  0.00    +0.034 C 
ATOM     20  C   UNL     1      28.914 -23.251 -14.243  0.00  0.00    +0.038 C 
ATOM     21  C   UNL     1      28.612 -22.317 -15.342  0.00  0.00    +0.195 C 
ENDROOT
BRANCH   7  22
ATOM     22  O   UNL     1      36.578 -22.265 -13.276  0.00  0.00    -0.380 OA
ATOM     23  H   UNL     1      35.636 -22.035 -13.245  0.00  0.00    +0.211 HD
ENDBRANCH   7  22
BRANCH  10  24
ATOM     24  O   UNL     1      32.962 -25.954 -14.015  0.00  0.00    -0.382 OA
ATOM     25  H   UNL     1      33.061 -26.459 -13.193  0.00  0.00    +0.210 HD
ENDBRANCH  10  24
BRANCH   7  27
ATOM     26  O   UNL     1      38.508 -25.009 -14.033  0.00  0.00    -0.291 OA
ATOM     27  C   UNL     1      37.773 -24.237 -13.419  0.00  0.00    +0.204 C 
BRANCH  27  28
ATOM     28  C   UNL     1      37.832 -24.087 -11.913  0.00  0.00    +0.204 C 
BRANCH  28  29
ATOM     29  O   UNL     1      38.684 -23.020 -11.551  0.00  0.00    -0.375 OA
ATOM     30  H   UNL     1      38.682 -22.352 -12.255  0.00  0.00    +0.211 HD
ENDBRANCH  28  29
ENDBRANCH  27  28
ENDBRANCH   7  27
TORSDOF 5
ENDMDL
