MODEL 1
REMARK VINA RESULT:      -9.5      0.000      0.000
REMARK  Name = 5289324
REMARK  7 active torsions:
REMARK  status: ('A' for Active; 'I' for Inactive)
REMARK    1  A    between atoms: C_10  and  C_21
REMARK    2  A    between atoms: C_19  and  O_23
REMARK    3  A    between atoms: O_23  and  C_25
REMARK    4  A    between atoms: C_25  and  C_26
REMARK    5  A    between atoms: C_26  and  C_27
REMARK    6  A    between atoms: C_27  and  C_29
REMARK    7  A    between atoms: C_29  and  O_30
REMARK                            x       y       z     vdW  Elec       q    Type
REMARK                         _______ _______ _______ _____ _____    ______ ____
ROOT
ATOM      1  C   UNL     1      33.435 -11.571 -22.705  0.00  0.00    +0.000 C 
ATOM      2  C   UNL     1      32.282 -10.693 -22.120  0.00  0.00    +0.000 C 
ATOM      3  C   UNL     1      32.728  -9.226 -22.139  0.00  0.00    +0.000 C 
ATOM      4  C   UNL     1      33.059  -8.716 -23.560  0.00  0.00    +0.007 C 
ATOM      5  C   UNL     1      33.080 -13.104 -22.672  0.00  0.00    +0.000 C 
ATOM      6  C   UNL     1      32.739 -13.472 -21.192  0.00  0.00    +0.004 C 
ATOM      7  C   UNL     1      33.915 -11.052 -24.086  0.00  0.00    +0.000 C 
ATOM      8  C   UNL     1      34.233  -9.545 -24.096  0.00  0.00    +0.000 C 
ATOM      9  C   UNL     1      31.902 -11.145 -20.703  0.00  0.00    +0.000 C 
ATOM     10  C   UNL     1      33.399  -7.247 -23.223  0.00  0.00    +0.058 C 
ATOM     11  C   UNL     1      31.789  -8.159 -21.589  0.00  0.00    +0.000 C 
ATOM     12  C   UNL     1      31.583 -12.637 -20.632  0.00  0.00    +0.000 C 
ATOM     13  C   UNL     1      34.306 -13.961 -23.101  0.00  0.00    +0.004 C 
ATOM     14  C   UNL     1      32.344  -6.846 -22.170  0.00  0.00    +0.007 C 
ATOM     15  C   UNL     1      32.494 -14.973 -20.992  0.00  0.00    +0.044 C 
ATOM     16  C   UNL     1      31.865  -8.793 -24.548  0.00  0.00    +0.000 C 
ATOM     17  C   UNL     1      31.905 -13.417 -23.635  0.00  0.00    +0.000 C 
ATOM     18  C   UNL     1      34.109 -15.462 -22.882  0.00  0.00    +0.044 C 
ATOM     19  C   UNL     1      33.698 -15.792 -21.451  0.00  0.00    +0.169 C 
ENDROOT
BRANCH  10  21
ATOM     20  O   UNL     1      34.334  -6.322 -25.213  0.00  0.00    -0.296 OA
ATOM     21  C   UNL     1      33.413  -6.317 -24.397  0.00  0.00    +0.151 C 
ATOM     22  C   UNL     1      32.245  -5.378 -24.530  0.00  0.00    +0.072 C 
ENDBRANCH  10  21
BRANCH  19  23
ATOM     23  O   UNL     1      33.373 -17.174 -21.351  0.00  0.00    -0.452 OA
BRANCH  23  25
ATOM     24  O   UNL     1      35.507 -17.694 -20.649  0.00  0.00    -0.250 OA
ATOM     25  C   UNL     1      34.425 -18.020 -21.118  0.00  0.00    +0.317 C 
BRANCH  25  26
ATOM     26  C   UNL     1      34.036 -19.421 -21.537  0.00  0.00    +0.121 C 
BRANCH  26  27
ATOM     27  C   UNL     1      33.066 -20.087 -20.569  0.00  0.00    +0.121 C 
BRANCH  27  29
ATOM     28  O   UNL     1      34.925 -21.149 -19.450  0.00  0.00    -0.250 OA
ATOM     29  C   UNL     1      33.745 -21.175 -19.774  0.00  0.00    +0.314 C 
BRANCH  29  30
ATOM     30  O   UNL     1      32.900 -22.179 -19.435  0.00  0.00    -0.480 OA
ATOM     31  H   UNL     1      32.119 -21.993 -18.953  0.00  0.00    +0.295 HD
ENDBRANCH  29  30
ENDBRANCH  27  29
ENDBRANCH  26  27
ENDBRANCH  25  26
ENDBRANCH  23  25
ENDBRANCH  19  23
TORSDOF 7
ENDMDL
MODEL 2
REMARK VINA RESULT:      -9.3      1.624      2.443
REMARK  Name = 5289324
REMARK  7 active torsions:
REMARK  status: ('A' for Active; 'I' for Inactive)
REMARK    1  A    between atoms: C_10  and  C_21
REMARK    2  A    between atoms: C_19  and  O_23
REMARK    3  A    between atoms: O_23  and  C_25
REMARK    4  A    between atoms: C_25  and  C_26
REMARK    5  A    between atoms: C_26  and  C_27
REMARK    6  A    between atoms: C_27  and  C_29
REMARK    7  A    between atoms: C_29  and  O_30
REMARK                            x       y       z     vdW  Elec       q    Type
REMARK                         _______ _______ _______ _____ _____    ______ ____
ROOT
ATOM      1  C   UNL     1      33.185 -11.159 -22.584  0.00  0.00    +0.000 C 
ATOM      2  C   UNL     1      32.113 -10.347 -21.787  0.00  0.00    +0.000 C 
ATOM      3  C   UNL     1      32.500  -8.864 -21.821  0.00  0.00    +0.000 C 
ATOM      4  C   UNL     1      32.578  -8.294 -23.255  0.00  0.00    +0.007 C 
ATOM      5  C   UNL     1      32.892 -12.705 -22.555  0.00  0.00    +0.000 C 
ATOM      6  C   UNL     1      32.808 -13.135 -21.055  0.00  0.00    +0.004 C 
ATOM      7  C   UNL     1      33.417 -10.576 -24.003  0.00  0.00    +0.000 C 
ATOM      8  C   UNL     1      33.677  -9.058 -24.005  0.00  0.00    +0.000 C 
ATOM      9  C   UNL     1      31.983 -10.860 -20.346  0.00  0.00    +0.000 C 
ATOM     10  C   UNL     1      32.919  -6.825 -22.921  0.00  0.00    +0.058 C 
ATOM     11  C   UNL     1      31.627  -7.854 -21.086  0.00  0.00    +0.000 C 
ATOM     12  C   UNL     1      31.731 -12.365 -20.283  0.00  0.00    +0.000 C 
ATOM     13  C   UNL     1      34.060 -13.498 -23.208  0.00  0.00    +0.004 C 
ATOM     14  C   UNL     1      32.036  -6.501 -21.697  0.00  0.00    +0.007 C 
ATOM     15  C   UNL     1      32.650 -14.650 -20.876  0.00  0.00    +0.044 C 
ATOM     16  C   UNL     1      31.243  -8.387 -24.041  0.00  0.00    +0.000 C 
ATOM     17  C   UNL     1      31.587 -13.033 -23.327  0.00  0.00    +0.000 C 
ATOM     18  C   UNL     1      33.953 -15.012 -23.019  0.00  0.00    +0.044 C 
ATOM     19  C   UNL     1      33.791 -15.405 -21.554  0.00  0.00    +0.169 C 
ENDROOT
BRANCH  10  21
ATOM     20  O   UNL     1      33.401  -5.892 -25.062  0.00  0.00    -0.296 OA
ATOM     21  C   UNL     1      32.711  -5.857 -24.044  0.00  0.00    +0.151 C 
ATOM     22  C   UNL     1      31.614  -4.842 -23.868  0.00  0.00    +0.072 C 
ENDBRANCH  10  21
BRANCH  19  23
ATOM     23  O   UNL     1      33.533 -16.802 -21.458  0.00  0.00    -0.452 OA
BRANCH  23  25
ATOM     24  O   UNL     1      35.538 -17.529 -20.582  0.00  0.00    -0.250 OA
ATOM     25  C   UNL     1      34.638 -17.611 -21.405  0.00  0.00    +0.317 C 
BRANCH  25  26
ATOM     26  C   UNL     1      34.565 -18.620 -22.531  0.00  0.00    +0.121 C 
BRANCH  26  27
ATOM     27  C   UNL     1      35.397 -18.224 -23.745  0.00  0.00    +0.121 C 
BRANCH  27  29
ATOM     28  O   UNL     1      33.611 -18.844 -25.249  0.00  0.00    -0.250 OA
ATOM     29  C   UNL     1      34.539 -18.093 -24.979  0.00  0.00    +0.314 C 
BRANCH  29  30
ATOM     30  O   UNL     1      34.893 -17.037 -25.751  0.00  0.00    -0.480 OA
ATOM     31  H   UNL     1      35.646 -16.526 -25.530  0.00  0.00    +0.295 HD
ENDBRANCH  29  30
ENDBRANCH  27  29
ENDBRANCH  26  27
ENDBRANCH  25  26
ENDBRANCH  23  25
ENDBRANCH  19  23
TORSDOF 7
ENDMDL
MODEL 3
REMARK VINA RESULT:      -9.1      5.974     13.202
REMARK  Name = 5289324
REMARK  7 active torsions:
REMARK  status: ('A' for Active; 'I' for Inactive)
REMARK    1  A    between atoms: C_10  and  C_21
REMARK    2  A    between atoms: C_19  and  O_23
REMARK    3  A    between atoms: O_23  and  C_25
REMARK    4  A    between atoms: C_25  and  C_26
REMARK    5  A    between atoms: C_26  and  C_27
REMARK    6  A    between atoms: C_27  and  C_29
REMARK    7  A    between atoms: C_29  and  O_30
REMARK                            x       y       z     vdW  Elec       q    Type
REMARK                         _______ _______ _______ _____ _____    ______ ____
ROOT
ATOM      1  C   UNL     1      34.688 -22.050 -17.384  0.00  0.00    +0.000 C 
ATOM      2  C   UNL     1      36.152 -22.529 -17.122  0.00  0.00    +0.000 C 
ATOM      3  C   UNL     1      36.361 -22.653 -15.608  0.00  0.00    +0.000 C 
ATOM      4  C   UNL     1      35.393 -23.660 -14.947  0.00  0.00    +0.007 C 
ATOM      5  C   UNL     1      34.403 -21.844 -18.918  0.00  0.00    +0.000 C 
ATOM      6  C   UNL     1      35.467 -20.835 -19.458  0.00  0.00    +0.004 C 
ATOM      7  C   UNL     1      33.647 -22.938 -16.651  0.00  0.00    +0.000 C 
ATOM      8  C   UNL     1      33.963 -23.144 -15.158  0.00  0.00    +0.000 C 
ATOM      9  C   UNL     1      37.173 -21.570 -17.752  0.00  0.00    +0.000 C 
ATOM     10  C   UNL     1      35.906 -23.580 -13.492  0.00  0.00    +0.058 C 
ATOM     11  C   UNL     1      37.727 -23.079 -15.082  0.00  0.00    +0.000 C 
ATOM     12  C   UNL     1      36.903 -21.323 -19.235  0.00  0.00    +0.000 C 
ATOM     13  C   UNL     1      32.999 -21.208 -19.135  0.00  0.00    +0.004 C 
ATOM     14  C   UNL     1      37.442 -23.522 -13.635  0.00  0.00    +0.007 C 
ATOM     15  C   UNL     1      35.230 -20.444 -20.922  0.00  0.00    +0.044 C 
ATOM     16  C   UNL     1      35.517 -25.105 -15.498  0.00  0.00    +0.000 C 
ATOM     17  C   UNL     1      34.448 -23.197 -19.673  0.00  0.00    +0.000 C 
ATOM     18  C   UNL     1      32.741 -20.774 -20.579  0.00  0.00    +0.044 C 
ATOM     19  C   UNL     1      33.835 -19.854 -21.113  0.00  0.00    +0.169 C 
ENDROOT
BRANCH  10  21
ATOM     20  O   UNL     1      34.292 -24.796 -12.226  0.00  0.00    -0.296 OA
ATOM     21  C   UNL     1      35.459 -24.698 -12.603  0.00  0.00    +0.151 C 
ATOM     22  C   UNL     1      36.507 -25.697 -12.193  0.00  0.00    +0.072 C 
ENDBRANCH  10  21
BRANCH  19  23
ATOM     23  O   UNL     1      33.627 -19.618 -22.502  0.00  0.00    -0.452 OA
BRANCH  23  25
ATOM     24  O   UNL     1      35.340 -19.242 -24.000  0.00  0.00    -0.250 OA
ATOM     25  C   UNL     1      34.578 -18.853 -23.126  0.00  0.00    +0.317 C 
BRANCH  25  26
ATOM     26  C   UNL     1      34.534 -17.451 -22.558  0.00  0.00    +0.121 C 
BRANCH  26  27
ATOM     27  C   UNL     1      35.189 -16.417 -23.466  0.00  0.00    +0.121 C 
BRANCH  27  29
ATOM     28  O   UNL     1      33.376 -15.324 -24.631  0.00  0.00    -0.250 OA
ATOM     29  C   UNL     1      34.319 -16.104 -24.658  0.00  0.00    +0.314 C 
BRANCH  29  30
ATOM     30  O   UNL     1      34.706 -16.766 -25.775  0.00  0.00    -0.480 OA
ATOM     31  H   UNL     1      34.069 -17.204 -26.305  0.00  0.00    +0.295 HD
ENDBRANCH  29  30
ENDBRANCH  27  29
ENDBRANCH  26  27
ENDBRANCH  25  26
ENDBRANCH  23  25
ENDBRANCH  19  23
TORSDOF 7
ENDMDL
MODEL 4
REMARK VINA RESULT:      -8.5      2.420      4.682
REMARK  Name = 5289324
REMARK  7 active torsions:
REMARK  status: ('A' for Active; 'I' for Inactive)
REMARK    1  A    between atoms: C_10  and  C_21
REMARK    2  A    between atoms: C_19  and  O_23
REMARK    3  A    between atoms: O_23  and  C_25
REMARK    4  A    between atoms: C_25  and  C_26
REMARK    5  A    between atoms: C_26  and  C_27
REMARK    6  A    between atoms: C_27  and  C_29
REMARK    7  A    between atoms: C_29  and  O_30
REMARK                            x       y       z     vdW  Elec       q    Type
REMARK                         _______ _______ _______ _____ _____    ______ ____
ROOT
ATOM      1  C   UNL     1      31.795  -8.155 -23.713  0.00  0.00    +0.000 C 
ATOM      2  C   UNL     1      33.106  -7.404 -24.114  0.00  0.00    +0.000 C 
ATOM      3  C   UNL     1      32.743  -6.277 -25.087  0.00  0.00    +0.000 C 
ATOM      4  C   UNL     1      31.758  -5.251 -24.482  0.00  0.00    +0.007 C 
ATOM      5  C   UNL     1      32.084  -9.368 -22.752  0.00  0.00    +0.000 C 
ATOM      6  C   UNL     1      33.111 -10.300 -23.473  0.00  0.00    +0.004 C 
ATOM      7  C   UNL     1      30.700  -7.180 -23.205  0.00  0.00    +0.000 C 
ATOM      8  C   UNL     1      30.455  -5.990 -24.151  0.00  0.00    +0.000 C 
ATOM      9  C   UNL     1      34.133  -8.366 -24.728  0.00  0.00    +0.000 C 
ATOM     10  C   UNL     1      31.665  -4.266 -25.667  0.00  0.00    +0.058 C 
ATOM     11  C   UNL     1      33.855  -5.404 -25.658  0.00  0.00    +0.000 C 
ATOM     12  C   UNL     1      34.410  -9.572 -23.833  0.00  0.00    +0.000 C 
ATOM     13  C   UNL     1      30.789 -10.195 -22.506  0.00  0.00    +0.004 C 
ATOM     14  C   UNL     1      33.114  -4.164 -26.190  0.00  0.00    +0.007 C 
ATOM     15  C   UNL     1      33.389 -11.593 -22.699  0.00  0.00    +0.044 C 
ATOM     16  C   UNL     1      32.296  -4.539 -23.212  0.00  0.00    +0.000 C 
ATOM     17  C   UNL     1      32.613  -8.871 -21.382  0.00  0.00    +0.000 C 
ATOM     18  C   UNL     1      31.034 -11.510 -21.766  0.00  0.00    +0.044 C 
ATOM     19  C   UNL     1      32.099 -12.369 -22.443  0.00  0.00    +0.169 C 
ENDROOT
BRANCH  10  21
ATOM     20  O   UNL     1      29.877  -2.766 -25.176  0.00  0.00    -0.296 OA
ATOM     21  C   UNL     1      31.087  -2.926 -25.331  0.00  0.00    +0.151 C 
ATOM     22  C   UNL     1      32.059  -1.786 -25.190  0.00  0.00    +0.072 C 
ENDBRANCH  10  21
BRANCH  19  23
ATOM     23  O   UNL     1      32.399 -13.495 -21.625  0.00  0.00    -0.452 OA
BRANCH  23  25
ATOM     24  O   UNL     1      33.028 -14.696 -23.490  0.00  0.00    -0.250 OA
ATOM     25  C   UNL     1      32.891 -14.593 -22.279  0.00  0.00    +0.317 C 
BRANCH  25  26
ATOM     26  C   UNL     1      33.235 -15.660 -21.263  0.00  0.00    +0.121 C 
BRANCH  26  27
ATOM     27  C   UNL     1      34.726 -15.968 -21.200  0.00  0.00    +0.121 C 
BRANCH  27  29
ATOM     28  O   UNL     1      35.007 -18.106 -22.289  0.00  0.00    -0.250 OA
ATOM     29  C   UNL     1      35.144 -16.890 -22.318  0.00  0.00    +0.314 C 
BRANCH  29  30
ATOM     30  O   UNL     1      35.672 -16.225 -23.374  0.00  0.00    -0.480 OA
ATOM     31  H   UNL     1      35.112 -15.900 -24.052  0.00  0.00    +0.295 HD
ENDBRANCH  29  30
ENDBRANCH  27  29
ENDBRANCH  26  27
ENDBRANCH  25  26
ENDBRANCH  23  25
ENDBRANCH  19  23
TORSDOF 7
ENDMDL
MODEL 5
REMARK VINA RESULT:      -8.4      3.265      5.066
REMARK  Name = 5289324
REMARK  7 active torsions:
REMARK  status: ('A' for Active; 'I' for Inactive)
REMARK    1  A    between atoms: C_10  and  C_21
REMARK    2  A    between atoms: C_19  and  O_23
REMARK    3  A    between atoms: O_23  and  C_25
REMARK    4  A    between atoms: C_25  and  C_26
REMARK    5  A    between atoms: C_26  and  C_27
REMARK    6  A    between atoms: C_27  and  C_29
REMARK    7  A    between atoms: C_29  and  O_30
REMARK                            x       y       z     vdW  Elec       q    Type
REMARK                         _______ _______ _______ _____ _____    ______ ____
ROOT
ATOM      1  C   UNL     1      31.809  -8.164 -23.712  0.00  0.00    +0.000 C 
ATOM      2  C   UNL     1      33.104  -7.388 -24.118  0.00  0.00    +0.000 C 
ATOM      3  C   UNL     1      32.714  -6.250 -25.067  0.00  0.00    +0.000 C 
ATOM      4  C   UNL     1      31.723  -5.248 -24.431  0.00  0.00    +0.007 C 
ATOM      5  C   UNL     1      32.127  -9.389 -22.776  0.00  0.00    +0.000 C 
ATOM      6  C   UNL     1      33.156 -10.294 -23.526  0.00  0.00    +0.004 C 
ATOM      7  C   UNL     1      30.708  -7.213 -23.174  0.00  0.00    +0.000 C 
ATOM      8  C   UNL     1      30.434  -6.011 -24.097  0.00  0.00    +0.000 C 
ATOM      9  C   UNL     1      34.136  -8.326 -24.761  0.00  0.00    +0.000 C 
ATOM     10  C   UNL     1      31.601  -4.244 -25.599  0.00  0.00    +0.058 C 
ATOM     11  C   UNL     1      33.807  -5.353 -25.637  0.00  0.00    +0.000 C 
ATOM     12  C   UNL     1      34.441  -9.543 -23.890  0.00  0.00    +0.000 C 
ATOM     13  C   UNL     1      30.846 -10.237 -22.528  0.00  0.00    +0.004 C 
ATOM     14  C   UNL     1      33.042  -4.114 -26.139  0.00  0.00    +0.007 C 
ATOM     15  C   UNL     1      33.462 -11.597 -22.777  0.00  0.00    +0.044 C 
ATOM     16  C   UNL     1      32.267  -4.550 -23.157  0.00  0.00    +0.000 C 
ATOM     17  C   UNL     1      32.667  -8.908 -21.404  0.00  0.00    +0.000 C 
ATOM     18  C   UNL     1      31.118 -11.561 -21.813  0.00  0.00    +0.044 C 
ATOM     19  C   UNL     1      32.185 -12.394 -22.518  0.00  0.00    +0.169 C 
ENDROOT
BRANCH  10  21
ATOM     20  O   UNL     1      29.795  -2.763 -25.119  0.00  0.00    -0.296 OA
ATOM     21  C   UNL     1      31.010  -2.918 -25.232  0.00  0.00    +0.151 C 
ATOM     22  C   UNL     1      31.975  -1.786 -25.008  0.00  0.00    +0.072 C 
ENDBRANCH  10  21
BRANCH  19  23
ATOM     23  O   UNL     1      32.511 -13.529 -21.723  0.00  0.00    -0.452 OA
BRANCH  23  25
ATOM     24  O   UNL     1      34.583 -14.526 -21.546  0.00  0.00    -0.250 OA
ATOM     25  C   UNL     1      33.559 -14.290 -22.171  0.00  0.00    +0.317 C 
BRANCH  25  26
ATOM     26  C   UNL     1      33.244 -14.791 -23.564  0.00  0.00    +0.121 C 
BRANCH  26  27
ATOM     27  C   UNL     1      34.385 -15.589 -24.185  0.00  0.00    +0.121 C 
BRANCH  27  29
ATOM     28  O   UNL     1      33.586 -15.527 -26.465  0.00  0.00    -0.250 OA
ATOM     29  C   UNL     1      33.978 -16.185 -25.510  0.00  0.00    +0.314 C 
BRANCH  29  30
ATOM     30  O   UNL     1      34.114 -17.534 -25.540  0.00  0.00    -0.480 OA
ATOM     31  H   UNL     1      34.967 -17.920 -25.507  0.00  0.00    +0.295 HD
ENDBRANCH  29  30
ENDBRANCH  27  29
ENDBRANCH  26  27
ENDBRANCH  25  26
ENDBRANCH  23  25
ENDBRANCH  19  23
TORSDOF 7
ENDMDL
MODEL 6
REMARK VINA RESULT:      -8.3      1.634      2.138
REMARK  Name = 5289324
REMARK  7 active torsions:
REMARK  status: ('A' for Active; 'I' for Inactive)
REMARK    1  A    between atoms: C_10  and  C_21
REMARK    2  A    between atoms: C_19  and  O_23
REMARK    3  A    between atoms: O_23  and  C_25
REMARK    4  A    between atoms: C_25  and  C_26
REMARK    5  A    between atoms: C_26  and  C_27
REMARK    6  A    between atoms: C_27  and  C_29
REMARK    7  A    between atoms: C_29  and  O_30
REMARK                            x       y       z     vdW  Elec       q    Type
REMARK                         _______ _______ _______ _____ _____    ______ ____
ROOT
ATOM      1  C   UNL     1      33.137 -11.379 -22.934  0.00  0.00    +0.000 C 
ATOM      2  C   UNL     1      32.152 -10.878 -21.829  0.00  0.00    +0.000 C 
ATOM      3  C   UNL     1      32.468  -9.410 -21.522  0.00  0.00    +0.000 C 
ATOM      4  C   UNL     1      32.325  -8.492 -22.757  0.00  0.00    +0.007 C 
ATOM      5  C   UNL     1      32.916 -12.900 -23.272  0.00  0.00    +0.000 C 
ATOM      6  C   UNL     1      33.058 -13.700 -21.937  0.00  0.00    +0.004 C 
ATOM      7  C   UNL     1      33.148 -10.441 -24.169  0.00  0.00    +0.000 C 
ATOM      8  C   UNL     1      33.341  -8.957 -23.808  0.00  0.00    +0.000 C 
ATOM      9  C   UNL     1      32.243 -11.747 -20.566  0.00  0.00    +0.000 C 
ATOM     10  C   UNL     1      32.646  -7.134 -22.096  0.00  0.00    +0.058 C 
ATOM     11  C   UNL     1      31.662  -8.687 -20.449  0.00  0.00    +0.000 C 
ATOM     12  C   UNL     1      32.065 -13.234 -20.867  0.00  0.00    +0.000 C 
ATOM     13  C   UNL     1      34.016 -13.411 -24.247  0.00  0.00    +0.004 C 
ATOM     14  C   UNL     1      31.926  -7.197 -20.732  0.00  0.00    +0.007 C 
ATOM     15  C   UNL     1      32.989 -15.219 -22.141  0.00  0.00    +0.044 C 
ATOM     16  C   UNL     1      30.900  -8.484 -23.372  0.00  0.00    +0.000 C 
ATOM     17  C   UNL     1      31.534 -13.121 -23.938  0.00  0.00    +0.000 C 
ATOM     18  C   UNL     1      34.000 -14.928 -24.447  0.00  0.00    +0.044 C 
ATOM     19  C   UNL     1      34.057 -15.689 -23.126  0.00  0.00    +0.169 C 
ENDROOT
BRANCH  10  21
ATOM     20  O   UNL     1      32.778  -5.666 -23.971  0.00  0.00    -0.296 OA
ATOM     21  C   UNL     1      32.245  -5.932 -22.895  0.00  0.00    +0.151 C 
ATOM     22  C   UNL     1      31.158  -5.067 -22.317  0.00  0.00    +0.072 C 
ENDBRANCH  10  21
BRANCH  19  23
ATOM     23  O   UNL     1      33.873 -17.080 -23.366  0.00  0.00    -0.452 OA
BRANCH  23  25
ATOM     24  O   UNL     1      34.782 -17.470 -25.449  0.00  0.00    -0.250 OA
ATOM     25  C   UNL     1      34.757 -17.657 -24.241  0.00  0.00    +0.317 C 
BRANCH  25  26
ATOM     26  C   UNL     1      35.694 -18.562 -23.471  0.00  0.00    +0.121 C 
BRANCH  26  27
ATOM     27  C   UNL     1      35.049 -19.182 -22.237  0.00  0.00    +0.121 C 
BRANCH  27  29
ATOM     28  O   UNL     1      35.523 -17.535 -20.534  0.00  0.00    -0.250 OA
ATOM     29  C   UNL     1      35.685 -18.667 -20.970  0.00  0.00    +0.314 C 
BRANCH  29  30
ATOM     30  O   UNL     1      36.444 -19.603 -20.349  0.00  0.00    -0.480 OA
ATOM     31  H   UNL     1      36.428 -19.675 -19.415  0.00  0.00    +0.295 HD
ENDBRANCH  29  30
ENDBRANCH  27  29
ENDBRANCH  26  27
ENDBRANCH  25  26
ENDBRANCH  23  25
ENDBRANCH  19  23
TORSDOF 7
ENDMDL
MODEL 7
REMARK VINA RESULT:      -8.1     12.326     14.187
REMARK  Name = 5289324
REMARK  7 active torsions:
REMARK  status: ('A' for Active; 'I' for Inactive)
REMARK    1  A    between atoms: C_10  and  C_21
REMARK    2  A    between atoms: C_19  and  O_23
REMARK    3  A    between atoms: O_23  and  C_25
REMARK    4  A    between atoms: C_25  and  C_26
REMARK    5  A    between atoms: C_26  and  C_27
REMARK    6  A    between atoms: C_27  and  C_29
REMARK    7  A    between atoms: C_29  and  O_30
REMARK                            x       y       z     vdW  Elec       q    Type
REMARK                         _______ _______ _______ _____ _____    ______ ____
ROOT
ATOM      1  C   UNL     1      32.940 -23.037 -15.506  0.00  0.00    +0.000 C 
ATOM      2  C   UNL     1      31.876 -23.659 -14.544  0.00  0.00    +0.000 C 
ATOM      3  C   UNL     1      30.529 -22.973 -14.799  0.00  0.00    +0.000 C 
ATOM      4  C   UNL     1      30.032 -23.142 -16.252  0.00  0.00    +0.007 C 
ATOM      5  C   UNL     1      34.371 -23.650 -15.274  0.00  0.00    +0.000 C 
ATOM      6  C   UNL     1      34.730 -23.438 -13.768  0.00  0.00    +0.004 C 
ATOM      7  C   UNL     1      32.467 -23.054 -16.984  0.00  0.00    +0.000 C 
ATOM      8  C   UNL     1      31.055 -22.472 -17.179  0.00  0.00    +0.000 C 
ATOM      9  C   UNL     1      32.306 -23.524 -13.077  0.00  0.00    +0.000 C 
ATOM     10  C   UNL     1      28.678 -22.408 -16.138  0.00  0.00    +0.058 C 
ATOM     11  C   UNL     1      29.322 -23.379 -13.962  0.00  0.00    +0.000 C 
ATOM     12  C   UNL     1      33.706 -24.080 -12.825  0.00  0.00    +0.000 C 
ATOM     13  C   UNL     1      35.436 -22.897 -16.122  0.00  0.00    +0.004 C 
ATOM     14  C   UNL     1      28.121 -22.850 -14.768  0.00  0.00    +0.007 C 
ATOM     15  C   UNL     1      36.159 -23.879 -13.426  0.00  0.00    +0.044 C 
ATOM     16  C   UNL     1      29.826 -24.620 -16.677  0.00  0.00    +0.000 C 
ATOM     17  C   UNL     1      34.401 -25.148 -15.673  0.00  0.00    +0.000 C 
ATOM     18  C   UNL     1      36.876 -23.286 -15.784  0.00  0.00    +0.044 C 
ATOM     19  C   UNL     1      37.181 -23.149 -14.295  0.00  0.00    +0.169 C 
ENDROOT
BRANCH  10  21
ATOM     20  O   UNL     1      27.820 -23.675 -17.968  0.00  0.00    -0.296 OA
ATOM     21  C   UNL     1      27.718 -22.677 -17.256  0.00  0.00    +0.151 C 
ATOM     22  C   UNL     1      26.621 -21.668 -17.464  0.00  0.00    +0.072 C 
ENDBRANCH  10  21
BRANCH  19  23
ATOM     23  O   UNL     1      38.473 -23.678 -14.019  0.00  0.00    -0.452 OA
BRANCH  23  25
ATOM     24  O   UNL     1      38.727 -23.540 -11.731  0.00  0.00    -0.250 OA
ATOM     25  C   UNL     1      38.651 -24.194 -12.762  0.00  0.00    +0.317 C 
BRANCH  25  26
ATOM     26  C   UNL     1      38.739 -25.701 -12.854  0.00  0.00    +0.121 C 
BRANCH  26  27
ATOM     27  C   UNL     1      38.854 -26.208 -14.287  0.00  0.00    +0.121 C 
BRANCH  27  29
ATOM     28  O   UNL     1      41.227 -26.582 -14.032  0.00  0.00    -0.250 OA
ATOM     29  C   UNL     1      40.291 -26.241 -14.743  0.00  0.00    +0.314 C 
BRANCH  29  30
ATOM     30  O   UNL     1      40.437 -25.871 -16.039  0.00  0.00    -0.480 OA
ATOM     31  H   UNL     1      41.223 -26.084 -16.502  0.00  0.00    +0.295 HD
ENDBRANCH  29  30
ENDBRANCH  27  29
ENDBRANCH  26  27
ENDBRANCH  25  26
ENDBRANCH  23  25
ENDBRANCH  19  23
TORSDOF 7
ENDMDL
MODEL 8
REMARK VINA RESULT:      -7.7      1.248      1.500
REMARK  Name = 5289324
REMARK  7 active torsions:
REMARK  status: ('A' for Active; 'I' for Inactive)
REMARK    1  A    between atoms: C_10  and  C_21
REMARK    2  A    between atoms: C_19  and  O_23
REMARK    3  A    between atoms: O_23  and  C_25
REMARK    4  A    between atoms: C_25  and  C_26
REMARK    5  A    between atoms: C_26  and  C_27
REMARK    6  A    between atoms: C_27  and  C_29
REMARK    7  A    between atoms: C_29  and  O_30
REMARK                            x       y       z     vdW  Elec       q    Type
REMARK                         _______ _______ _______ _____ _____    ______ ____
ROOT
ATOM      1  C   UNL     1      33.389 -12.333 -22.355  0.00  0.00    +0.000 C 
ATOM      2  C   UNL     1      32.283 -11.809 -21.383  0.00  0.00    +0.000 C 
ATOM      3  C   UNL     1      32.449 -10.293 -21.227  0.00  0.00    +0.000 C 
ATOM      4  C   UNL     1      32.323  -9.532 -22.566  0.00  0.00    +0.007 C 
ATOM      5  C   UNL     1      33.325 -13.896 -22.530  0.00  0.00    +0.000 C 
ATOM      6  C   UNL     1      33.431 -14.529 -21.105  0.00  0.00    +0.004 C 
ATOM      7  C   UNL     1      33.415 -11.538 -23.687  0.00  0.00    +0.000 C 
ATOM      8  C   UNL     1      33.453 -10.012 -23.487  0.00  0.00    +0.000 C 
ATOM      9  C   UNL     1      32.350 -12.523 -20.025  0.00  0.00    +0.000 C 
ATOM     10  C   UNL     1      32.476  -8.086 -22.046  0.00  0.00    +0.058 C 
ATOM     11  C   UNL     1      31.505  -9.536 -20.300  0.00  0.00    +0.000 C 
ATOM     12  C   UNL     1      32.323 -14.044 -20.164  0.00  0.00    +0.000 C 
ATOM     13  C   UNL     1      34.535 -14.405 -23.364  0.00  0.00    +0.004 C 
ATOM     14  C   UNL     1      31.662  -8.067 -20.735  0.00  0.00    +0.007 C 
ATOM     15  C   UNL     1      33.507 -16.060 -21.137  0.00  0.00    +0.044 C 
ATOM     16  C   UNL     1      30.953  -9.724 -23.271  0.00  0.00    +0.000 C 
ATOM     17  C   UNL     1      32.021 -14.315 -23.256  0.00  0.00    +0.000 C 
ATOM     18  C   UNL     1      34.663 -15.929 -23.389  0.00  0.00    +0.044 C 
ATOM     19  C   UNL     1      34.684 -16.534 -21.988  0.00  0.00    +0.169 C 
ENDROOT
BRANCH  10  21
ATOM     20  O   UNL     1      32.805  -6.549 -23.839  0.00  0.00    -0.296 OA
ATOM     21  C   UNL     1      32.037  -7.021 -23.003  0.00  0.00    +0.151 C 
ATOM     22  C   UNL     1      30.609  -6.558 -22.892  0.00  0.00    +0.072 C 
ENDBRANCH  10  21
BRANCH  19  23
ATOM     23  O   UNL     1      34.638 -17.954 -22.078  0.00  0.00    -0.452 OA
BRANCH  23  25
ATOM     24  O   UNL     1      36.103 -18.349 -20.341  0.00  0.00    -0.250 OA
ATOM     25  C   UNL     1      35.103 -18.636 -20.984  0.00  0.00    +0.317 C 
BRANCH  25  26
ATOM     26  C   UNL     1      34.182 -19.803 -20.701  0.00  0.00    +0.121 C 
BRANCH  26  27
ATOM     27  C   UNL     1      34.912 -21.021 -20.147  0.00  0.00    +0.121 C 
BRANCH  27  29
ATOM     28  O   UNL     1      34.267 -23.242 -19.448  0.00  0.00    -0.250 OA
ATOM     29  C   UNL     1      33.941 -22.094 -19.720  0.00  0.00    +0.314 C 
BRANCH  29  30
ATOM     30  O   UNL     1      32.664 -21.645 -19.648  0.00  0.00    -0.480 OA
ATOM     31  H   UNL     1      32.416 -21.046 -18.971  0.00  0.00    +0.295 HD
ENDBRANCH  29  30
ENDBRANCH  27  29
ENDBRANCH  26  27
ENDBRANCH  25  26
ENDBRANCH  23  25
ENDBRANCH  19  23
TORSDOF 7
ENDMDL
MODEL 9
REMARK VINA RESULT:      -7.7      2.182      9.826
REMARK  Name = 5289324
REMARK  7 active torsions:
REMARK  status: ('A' for Active; 'I' for Inactive)
REMARK    1  A    between atoms: C_10  and  C_21
REMARK    2  A    between atoms: C_19  and  O_23
REMARK    3  A    between atoms: O_23  and  C_25
REMARK    4  A    between atoms: C_25  and  C_26
REMARK    5  A    between atoms: C_26  and  C_27
REMARK    6  A    between atoms: C_27  and  C_29
REMARK    7  A    between atoms: C_29  and  O_30
REMARK                            x       y       z     vdW  Elec       q    Type
REMARK                         _______ _______ _______ _____ _____    ______ ____
ROOT
ATOM      1  C   UNL     1      34.516 -15.472 -22.526  0.00  0.00    +0.000 C 
ATOM      2  C   UNL     1      34.091 -16.706 -23.386  0.00  0.00    +0.000 C 
ATOM      3  C   UNL     1      34.951 -17.906 -22.974  0.00  0.00    +0.000 C 
ATOM      4  C   UNL     1      34.796 -18.274 -21.481  0.00  0.00    +0.007 C 
ATOM      5  C   UNL     1      33.716 -14.176 -22.924  0.00  0.00    +0.000 C 
ATOM      6  C   UNL     1      33.936 -13.943 -24.454  0.00  0.00    +0.004 C 
ATOM      7  C   UNL     1      34.507 -15.791 -21.008  0.00  0.00    +0.000 C 
ATOM      8  C   UNL     1      35.276 -17.077 -20.650  0.00  0.00    +0.000 C 
ATOM      9  C   UNL     1      34.223 -16.411 -24.887  0.00  0.00    +0.000 C 
ATOM     10  C   UNL     1      35.719 -19.512 -21.432  0.00  0.00    +0.058 C 
ATOM     11  C   UNL     1      34.755 -19.238 -23.689  0.00  0.00    +0.000 C 
ATOM     12  C   UNL     1      33.484 -15.139 -25.299  0.00  0.00    +0.000 C 
ATOM     13  C   UNL     1      34.276 -12.933 -22.173  0.00  0.00    +0.004 C 
ATOM     14  C   UNL     1      35.416 -20.262 -22.747  0.00  0.00    +0.007 C 
ATOM     15  C   UNL     1      33.310 -12.636 -24.955  0.00  0.00    +0.044 C 
ATOM     16  C   UNL     1      33.347 -18.650 -21.074  0.00  0.00    +0.000 C 
ATOM     17  C   UNL     1      32.214 -14.325 -22.568  0.00  0.00    +0.000 C 
ATOM     18  C   UNL     1      33.700 -11.607 -22.672  0.00  0.00    +0.044 C 
ATOM     19  C   UNL     1      33.852 -11.436 -24.180  0.00  0.00    +0.169 C 
ENDROOT
BRANCH  10  21
ATOM     20  O   UNL     1      36.386 -20.421 -19.331  0.00  0.00    -0.296 OA
ATOM     21  C   UNL     1      35.544 -20.383 -20.228  0.00  0.00    +0.151 C 
ATOM     22  C   UNL     1      34.288 -21.208 -20.165  0.00  0.00    +0.072 C 
ENDBRANCH  10  21
BRANCH  19  23
ATOM     23  O   UNL     1      33.156 -10.269 -24.604  0.00  0.00    -0.452 OA
BRANCH  23  25
ATOM     24  O   UNL     1      34.805  -8.697 -24.245  0.00  0.00    -0.250 OA
ATOM     25  C   UNL     1      33.648  -9.078 -24.137  0.00  0.00    +0.317 C 
BRANCH  25  26
ATOM     26  C   UNL     1      32.530  -8.312 -23.464  0.00  0.00    +0.121 C 
BRANCH  26  27
ATOM     27  C   UNL     1      32.989  -7.541 -22.232  0.00  0.00    +0.121 C 
BRANCH  27  29
ATOM     28  O   UNL     1      31.817  -9.202 -20.927  0.00  0.00    -0.250 OA
ATOM     29  C   UNL     1      32.569  -8.238 -20.961  0.00  0.00    +0.314 C 
BRANCH  29  30
ATOM     30  O   UNL     1      33.132  -7.692 -19.856  0.00  0.00    -0.480 OA
ATOM     31  H   UNL     1      33.717  -6.964 -19.938  0.00  0.00    +0.295 HD
ENDBRANCH  29  30
ENDBRANCH  27  29
ENDBRANCH  26  27
ENDBRANCH  25  26
ENDBRANCH  23  25
ENDBRANCH  19  23
TORSDOF 7
ENDMDL
