MODEL 1
REMARK VINA RESULT:     -13.3      0.000      0.000
REMARK  Name = 10224181
REMARK  7 active torsions:
REMARK  status: ('A' for Active; 'I' for Inactive)
REMARK    1  A    between atoms: N_3  and  C_23
REMARK    2  A    between atoms: C_12  and  C_14
REMARK    3  A    between atoms: C_15  and  C_16
REMARK    4  A    between atoms: C_16  and  C_17
REMARK    5  A    between atoms: C_23  and  C_24
REMARK    6  A    between atoms: C_29  and  C_31
REMARK    7  A    between atoms: C_31  and  O_32
REMARK                            x       y       z     vdW  Elec       q    Type
REMARK                         _______ _______ _______ _____ _____    ______ ____
ROOT
ATOM      1  O   UNL     1      35.241 -16.488 -20.098  0.00  0.00    -0.267 OA
ATOM      2  O   UNL     1      35.819 -18.900 -24.029  0.00  0.00    -0.246 OA
ATOM      3  N   UNL     1      35.549 -17.719 -22.056  0.00  0.00    -0.244 N 
ATOM      4  N   UNL     1      34.509 -16.990 -24.078  0.00  0.00    -0.279 N 
ATOM      5  C   UNL     1      33.941 -15.878 -23.389  0.00  0.00    +0.069 A 
ATOM      6  C   UNL     1      34.188 -15.702 -22.027  0.00  0.00    +0.073 A 
ATOM      7  C   UNL     1      35.035 -16.660 -21.297  0.00  0.00    +0.266 A 
ATOM      8  C   UNL     1      35.325 -17.935 -23.435  0.00  0.00    +0.334 A 
ATOM      9  C   UNL     1      33.638 -14.613 -21.331  0.00  0.00    +0.014 C 
ATOM     10  C   UNL     1      33.125 -14.935 -24.041  0.00  0.00    +0.018 C 
ATOM     11  C   UNL     1      34.233 -17.151 -25.505  0.00  0.00    +0.135 C 
ATOM     12  C   UNL     1      32.833 -13.691 -21.994  0.00  0.00    +0.042 C 
ATOM     13  C   UNL     1      32.578 -13.852 -23.350  0.00  0.00    +0.010 C 
ENDROOT
BRANCH  12  14
ATOM     14  C   UNL     1      32.275 -12.584 -21.284  0.00  0.00    -0.064 C 
ATOM     15  C   UNL     1      31.807 -11.648 -20.686  0.00  0.00    -0.082 C 
BRANCH  15  16
ATOM     16  C   UNL     1      31.241 -10.507 -19.959  0.00  0.00    +0.103 C 
BRANCH  16  17
ATOM     17  C   UNL     1      31.684  -9.190 -20.542  0.00  0.00    -0.009 C 
ATOM     18  C   UNL     1      31.739  -9.038 -21.920  0.00  0.00    -0.003 C 
ATOM     19  C   UNL     1      32.030  -8.150 -19.692  0.00  0.00    -0.003 C 
ATOM     20  C   UNL     1      32.148  -7.819 -22.460  0.00  0.00    -0.000 C 
ATOM     21  C   UNL     1      32.441  -6.931 -20.232  0.00  0.00    -0.000 C 
ATOM     22  C   UNL     1      32.499  -6.766 -21.615  0.00  0.00    -0.000 C 
ENDBRANCH  16  17
ENDBRANCH  15  16
ENDBRANCH  12  14
BRANCH   3  23
ATOM     23  C   UNL     1      36.394 -18.686 -21.361  0.00  0.00    +0.140 C 
BRANCH  23  24
ATOM     24  C   UNL     1      35.580 -19.739 -20.658  0.00  0.00    +0.001 C 
ATOM     25  C   UNL     1      36.222 -20.689 -19.875  0.00  0.00    -0.002 C 
ATOM     26  C   UNL     1      34.200 -19.745 -20.801  0.00  0.00    -0.002 C 
ATOM     27  C   UNL     1      35.468 -21.665 -19.223  0.00  0.00    +0.006 C 
ATOM     28  C   UNL     1      33.446 -20.720 -20.149  0.00  0.00    +0.006 C 
ATOM     29  C   UNL     1      34.080 -21.681 -19.360  0.00  0.00    +0.075 C 
BRANCH  29  31
ATOM     30  O   UNL     1      32.278 -22.486 -18.008  0.00  0.00    -0.245 OA
ATOM     31  C   UNL     1      33.293 -22.698 -18.680  0.00  0.00    +0.338 C 
BRANCH  31  32
ATOM     32  O   UNL     1      33.796 -23.950 -18.857  0.00  0.00    -0.477 OA
ATOM     33  H   UNL     1      33.577 -24.632 -18.253  0.00  0.00    +0.295 HD
ENDBRANCH  31  32
ENDBRANCH  29  31
ENDBRANCH  23  24
ENDBRANCH   3  23
TORSDOF 7
ENDMDL
MODEL 2
REMARK VINA RESULT:     -11.5      5.253      9.255
REMARK  Name = 10224181
REMARK  7 active torsions:
REMARK  status: ('A' for Active; 'I' for Inactive)
REMARK    1  A    between atoms: N_3  and  C_23
REMARK    2  A    between atoms: C_12  and  C_14
REMARK    3  A    between atoms: C_15  and  C_16
REMARK    4  A    between atoms: C_16  and  C_17
REMARK    5  A    between atoms: C_23  and  C_24
REMARK    6  A    between atoms: C_29  and  C_31
REMARK    7  A    between atoms: C_31  and  O_32
REMARK                            x       y       z     vdW  Elec       q    Type
REMARK                         _______ _______ _______ _____ _____    ______ ____
ROOT
ATOM      1  O   UNL     1      32.293 -23.535 -17.123  0.00  0.00    -0.267 OA
ATOM      2  O   UNL     1      34.756 -24.580 -13.323  0.00  0.00    -0.246 OA
ATOM      3  N   UNL     1      33.505 -24.075 -15.204  0.00  0.00    -0.244 N 
ATOM      4  N   UNL     1      35.772 -23.352 -15.004  0.00  0.00    -0.279 N 
ATOM      5  C   UNL     1      35.689 -22.728 -16.283  0.00  0.00    +0.069 A 
ATOM      6  C   UNL     1      34.501 -22.788 -17.013  0.00  0.00    +0.073 A 
ATOM      7  C   UNL     1      33.330 -23.493 -16.466  0.00  0.00    +0.266 A 
ATOM      8  C   UNL     1      34.688 -24.038 -14.432  0.00  0.00    +0.334 A 
ATOM      9  C   UNL     1      34.400 -22.179 -18.274  0.00  0.00    +0.014 C 
ATOM     10  C   UNL     1      36.780 -22.042 -16.849  0.00  0.00    +0.018 C 
ATOM     11  C   UNL     1      37.030 -23.275 -14.261  0.00  0.00    +0.135 C 
ATOM     12  C   UNL     1      35.490 -21.505 -18.817  0.00  0.00    +0.042 C 
ATOM     13  C   UNL     1      36.680 -21.436 -18.104  0.00  0.00    +0.010 C 
ENDROOT
BRANCH  12  14
ATOM     14  C   UNL     1      35.385 -20.886 -20.100  0.00  0.00    -0.064 C 
ATOM     15  C   UNL     1      35.296 -20.360 -21.181  0.00  0.00    -0.082 C 
BRANCH  15  16
ATOM     16  C   UNL     1      35.188 -19.718 -22.495  0.00  0.00    +0.103 C 
BRANCH  16  17
ATOM     17  C   UNL     1      35.014 -18.225 -22.380  0.00  0.00    -0.009 C 
ATOM     18  C   UNL     1      34.847 -17.652 -21.127  0.00  0.00    -0.003 C 
ATOM     19  C   UNL     1      35.026 -17.446 -23.528  0.00  0.00    -0.003 C 
ATOM     20  C   UNL     1      34.687 -16.271 -21.021  0.00  0.00    -0.000 C 
ATOM     21  C   UNL     1      34.865 -16.065 -23.421  0.00  0.00    -0.000 C 
ATOM     22  C   UNL     1      34.696 -15.477 -22.168  0.00  0.00    -0.000 C 
ENDBRANCH  16  17
ENDBRANCH  15  16
ENDBRANCH  12  14
BRANCH   3  23
ATOM     23  C   UNL     1      32.361 -24.781 -14.633  0.00  0.00    +0.140 C 
BRANCH  23  24
ATOM     24  C   UNL     1      31.056 -24.131 -15.008  0.00  0.00    +0.001 C 
ATOM     25  C   UNL     1      30.106 -24.860 -15.710  0.00  0.00    -0.002 C 
ATOM     26  C   UNL     1      30.820 -22.813 -14.644  0.00  0.00    -0.002 C 
ATOM     27  C   UNL     1      28.897 -24.258 -16.057  0.00  0.00    +0.006 C 
ATOM     28  C   UNL     1      29.611 -22.210 -14.991  0.00  0.00    +0.006 C 
ATOM     29  C   UNL     1      28.649 -22.933 -15.697  0.00  0.00    +0.075 C 
BRANCH  29  31
ATOM     30  O   UNL     1      26.344 -22.366 -15.400  0.00  0.00    -0.245 OA
ATOM     31  C   UNL     1      27.387 -22.305 -16.058  0.00  0.00    +0.338 C 
BRANCH  31  32
ATOM     32  O   UNL     1      27.464 -21.620 -17.232  0.00  0.00    -0.477 OA
ATOM     33  H   UNL     1      26.689 -21.467 -17.736  0.00  0.00    +0.295 HD
ENDBRANCH  31  32
ENDBRANCH  29  31
ENDBRANCH  23  24
ENDBRANCH   3  23
TORSDOF 7
ENDMDL
MODEL 3
REMARK VINA RESULT:     -10.9      5.563      9.744
REMARK  Name = 10224181
REMARK  7 active torsions:
REMARK  status: ('A' for Active; 'I' for Inactive)
REMARK    1  A    between atoms: N_3  and  C_23
REMARK    2  A    between atoms: C_12  and  C_14
REMARK    3  A    between atoms: C_15  and  C_16
REMARK    4  A    between atoms: C_16  and  C_17
REMARK    5  A    between atoms: C_23  and  C_24
REMARK    6  A    between atoms: C_29  and  C_31
REMARK    7  A    between atoms: C_31  and  O_32
REMARK                            x       y       z     vdW  Elec       q    Type
REMARK                         _______ _______ _______ _____ _____    ______ ____
ROOT
ATOM      1  O   UNL     1      36.534 -22.831 -15.269  0.00  0.00    -0.267 OA
ATOM      2  O   UNL     1      32.785 -24.811 -13.363  0.00  0.00    -0.246 OA
ATOM      3  N   UNL     1      34.668 -23.832 -14.287  0.00  0.00    -0.244 N 
ATOM      4  N   UNL     1      32.590 -23.849 -15.462  0.00  0.00    -0.279 N 
ATOM      5  C   UNL     1      33.194 -23.153 -16.550  0.00  0.00    +0.069 A 
ATOM      6  C   UNL     1      34.544 -22.802 -16.489  0.00  0.00    +0.073 A 
ATOM      7  C   UNL     1      35.347 -23.149 -15.304  0.00  0.00    +0.266 A 
ATOM      8  C   UNL     1      33.306 -24.207 -14.308  0.00  0.00    +0.334 A 
ATOM      9  C   UNL     1      35.158 -22.117 -17.550  0.00  0.00    +0.014 C 
ATOM     10  C   UNL     1      32.470 -22.800 -17.703  0.00  0.00    +0.018 C 
ATOM     11  C   UNL     1      31.174 -24.204 -15.552  0.00  0.00    +0.135 C 
ATOM     12  C   UNL     1      34.424 -21.776 -18.682  0.00  0.00    +0.042 C 
ATOM     13  C   UNL     1      33.080 -22.118 -18.758  0.00  0.00    +0.010 C 
ENDROOT
BRANCH  12  14
ATOM     14  C   UNL     1      35.050 -21.079 -19.760  0.00  0.00    -0.064 C 
ATOM     15  C   UNL     1      35.578 -20.487 -20.668  0.00  0.00    -0.082 C 
BRANCH  15  16
ATOM     16  C   UNL     1      36.219 -19.764 -21.771  0.00  0.00    +0.103 C 
BRANCH  16  17
ATOM     17  C   UNL     1      35.567 -18.429 -22.025  0.00  0.00    -0.009 C 
ATOM     18  C   UNL     1      35.288 -17.591 -20.956  0.00  0.00    -0.003 C 
ATOM     19  C   UNL     1      35.256 -18.059 -23.326  0.00  0.00    -0.003 C 
ATOM     20  C   UNL     1      34.685 -16.356 -21.191  0.00  0.00    -0.000 C 
ATOM     21  C   UNL     1      34.652 -16.824 -23.561  0.00  0.00    -0.000 C 
ATOM     22  C   UNL     1      34.367 -15.973 -22.494  0.00  0.00    -0.000 C 
ENDBRANCH  16  17
ENDBRANCH  15  16
ENDBRANCH  12  14
BRANCH   3  23
ATOM     23  C   UNL     1      35.438 -24.191 -13.099  0.00  0.00    +0.140 C 
BRANCH  23  24
ATOM     24  C   UNL     1      36.781 -24.770 -13.455  0.00  0.00    +0.001 C 
ATOM     25  C   UNL     1      36.853 -25.833 -14.344  0.00  0.00    -0.002 C 
ATOM     26  C   UNL     1      37.929 -24.231 -12.890  0.00  0.00    -0.002 C 
ATOM     27  C   UNL     1      38.098 -26.369 -14.674  0.00  0.00    +0.006 C 
ATOM     28  C   UNL     1      39.174 -24.767 -13.220  0.00  0.00    +0.006 C 
ATOM     29  C   UNL     1      39.258 -25.837 -14.112  0.00  0.00    +0.075 C 
BRANCH  29  31
ATOM     30  O   UNL     1      41.342 -26.923 -13.662  0.00  0.00    -0.245 OA
ATOM     31  C   UNL     1      40.557 -26.395 -14.456  0.00  0.00    +0.338 C 
BRANCH  31  32
ATOM     32  O   UNL     1      40.839 -26.279 -15.783  0.00  0.00    -0.477 OA
ATOM     33  H   UNL     1      41.603 -25.813 -16.059  0.00  0.00    +0.295 HD
ENDBRANCH  31  32
ENDBRANCH  29  31
ENDBRANCH  23  24
ENDBRANCH   3  23
TORSDOF 7
ENDMDL
MODEL 4
REMARK VINA RESULT:     -10.5      3.257     10.350
REMARK  Name = 10224181
REMARK  7 active torsions:
REMARK  status: ('A' for Active; 'I' for Inactive)
REMARK    1  A    between atoms: N_3  and  C_23
REMARK    2  A    between atoms: C_12  and  C_14
REMARK    3  A    between atoms: C_15  and  C_16
REMARK    4  A    between atoms: C_16  and  C_17
REMARK    5  A    between atoms: C_23  and  C_24
REMARK    6  A    between atoms: C_29  and  C_31
REMARK    7  A    between atoms: C_31  and  O_32
REMARK                            x       y       z     vdW  Elec       q    Type
REMARK                         _______ _______ _______ _____ _____    ______ ____
ROOT
ATOM      1  O   UNL     1      33.213 -14.704 -20.876  0.00  0.00    -0.267 OA
ATOM      2  O   UNL     1      32.214 -13.350 -25.208  0.00  0.00    -0.246 OA
ATOM      3  N   UNL     1      32.697 -14.000 -23.040  0.00  0.00    -0.244 N 
ATOM      4  N   UNL     1      33.451 -15.285 -24.905  0.00  0.00    -0.279 N 
ATOM      5  C   UNL     1      34.069 -16.216 -24.019  0.00  0.00    +0.069 A 
ATOM      6  C   UNL     1      33.991 -16.021 -22.639  0.00  0.00    +0.073 A 
ATOM      7  C   UNL     1      33.271 -14.858 -22.094  0.00  0.00    +0.266 A 
ATOM      8  C   UNL     1      32.751 -14.158 -24.443  0.00  0.00    +0.334 A 
ATOM      9  C   UNL     1      34.592 -16.927 -21.750  0.00  0.00    +0.014 C 
ATOM     10  C   UNL     1      34.768 -17.342 -24.490  0.00  0.00    +0.018 C 
ATOM     11  C   UNL     1      33.550 -15.512 -26.347  0.00  0.00    +0.135 C 
ATOM     12  C   UNL     1      35.279 -18.035 -22.236  0.00  0.00    +0.042 C 
ATOM     13  C   UNL     1      35.366 -18.243 -23.606  0.00  0.00    +0.010 C 
ENDROOT
BRANCH  12  14
ATOM     14  C   UNL     1      35.890 -18.955 -21.330  0.00  0.00    -0.064 C 
ATOM     15  C   UNL     1      36.405 -19.734 -20.568  0.00  0.00    -0.082 C 
BRANCH  15  16
ATOM     16  C   UNL     1      37.030 -20.684 -19.641  0.00  0.00    +0.103 C 
BRANCH  16  17
ATOM     17  C   UNL     1      36.005 -21.478 -18.872  0.00  0.00    -0.009 C 
ATOM     18  C   UNL     1      34.767 -21.732 -19.445  0.00  0.00    -0.003 C 
ATOM     19  C   UNL     1      36.315 -21.944 -17.603  0.00  0.00    -0.003 C 
ATOM     20  C   UNL     1      33.820 -22.467 -18.734  0.00  0.00    -0.000 C 
ATOM     21  C   UNL     1      35.367 -22.678 -16.891  0.00  0.00    -0.000 C 
ATOM     22  C   UNL     1      34.120 -22.940 -17.456  0.00  0.00    -0.000 C 
ENDBRANCH  16  17
ENDBRANCH  15  16
ENDBRANCH  12  14
BRANCH   3  23
ATOM     23  C   UNL     1      31.975 -12.837 -22.530  0.00  0.00    +0.140 C 
BRANCH  23  24
ATOM     24  C   UNL     1      32.652 -11.547 -22.908  0.00  0.00    +0.001 C 
ATOM     25  C   UNL     1      33.785 -11.579 -23.709  0.00  0.00    -0.002 C 
ATOM     26  C   UNL     1      32.133 -10.343 -22.451  0.00  0.00    -0.002 C 
ATOM     27  C   UNL     1      34.412 -10.383 -24.060  0.00  0.00    +0.006 C 
ATOM     28  C   UNL     1      32.760  -9.147 -22.801  0.00  0.00    +0.006 C 
ATOM     29  C   UNL     1      33.900  -9.167 -23.606  0.00  0.00    +0.075 C 
BRANCH  29  31
ATOM     30  O   UNL     1      34.397  -7.317 -25.038  0.00  0.00    -0.245 OA
ATOM     31  C   UNL     1      34.554  -7.920 -23.972  0.00  0.00    +0.338 C 
BRANCH  31  32
ATOM     32  O   UNL     1      35.385  -7.462 -22.996  0.00  0.00    -0.477 OA
ATOM     33  H   UNL     1      35.311  -7.796 -22.124  0.00  0.00    +0.295 HD
ENDBRANCH  31  32
ENDBRANCH  29  31
ENDBRANCH  23  24
ENDBRANCH   3  23
TORSDOF 7
ENDMDL
