MODEL 1
REMARK VINA RESULT:      -9.2      0.000      0.000
REMARK  Name = 6914666
REMARK  5 active torsions:
REMARK  status: ('A' for Active; 'I' for Inactive)
REMARK    1  A    between atoms: C_5  and  O_21
REMARK    2  A    between atoms: CA_6  and  C_14
REMARK    3  A    between atoms: N_13  and  CA_16
REMARK    4  A    between atoms: CA_16  and  C_18
REMARK    5  A    between atoms: C_18  and  O_19
REMARK                            x       y       z     vdW  Elec       q    Type
REMARK                         _______ _______ _______ _____ _____    ______ ____
ROOT
ATOM      1 CL   UNL     1      33.503 -22.742 -18.533  0.00  0.00    -0.048 Cl
ATOM      2  N   UNL     1      34.641 -23.800 -16.502  0.00  0.00    -0.387 NA
ATOM      3  C   UNL     1      32.392 -23.814 -14.809  0.00  0.00    +0.015 C 
ATOM      4  C   UNL     1      32.291 -23.304 -16.119  0.00  0.00    +0.039 C 
ATOM      5  C   UNL     1      33.624 -24.310 -14.368  0.00  0.00    +0.190 C 
ATOM      6  CA  UNL     1      34.700 -24.281 -15.242  0.00  0.00    +0.194 C 
ATOM      7  C   UNL     1      31.255 -23.809 -13.985  0.00  0.00    -0.001 C 
ATOM      8  C   UNL     1      33.443 -23.326 -16.910  0.00  0.00    +0.188 C 
ATOM      9  C   UNL     1      31.063 -22.800 -16.582  0.00  0.00    +0.003 C 
ATOM     10  C   UNL     1      30.040 -23.307 -14.453  0.00  0.00    -0.000 C 
ATOM     11  C   UNL     1      29.944 -22.804 -15.749  0.00  0.00    +0.000 C 
ENDROOT
BRANCH   6  14
ATOM     12  O   UNL     1      36.531 -25.731 -15.451  0.00  0.00    -0.268 OA
ATOM     13  N   UNL     1      36.633 -24.136 -13.771  0.00  0.00    -0.290 N 
ATOM     14  C   ACE A   1      36.006 -24.783 -14.842  0.00  0.00    +0.275 C 
ATOM     15  H   UNL     1      36.159 -23.392 -13.335  0.00  0.00    +0.150 HD
BRANCH  13  16
ATOM     16  CA  UNL     1      37.940 -24.502 -13.272  0.00  0.00    +0.201 C 
BRANCH  16  18
ATOM     17  OXT UNL     1      38.892 -22.992 -11.653  0.00  0.00    -0.248 OA
ATOM     18  C   UNL     1      38.128 -23.915 -11.903  0.00  0.00    +0.334 C 
BRANCH  18  19
ATOM     19  O   UNL     1      37.343 -24.508 -10.967  0.00  0.00    -0.479 OA
ATOM     20  H   UNL     1      37.094 -24.035 -10.197  0.00  0.00    +0.295 HD
ENDBRANCH  18  19
ENDBRANCH  16  18
ENDBRANCH  13  16
ENDBRANCH   6  14
BRANCH   5  21
ATOM     21  O   UNL     1      33.779 -24.815 -13.113  0.00  0.00    -0.373 OA
ATOM     22  H   UNL     1      33.256 -25.541 -12.832  0.00  0.00    +0.211 HD
ENDBRANCH   5  21
TORSDOF 5
ENDMDL
MODEL 2
REMARK VINA RESULT:      -9.1      2.635      4.126
REMARK  Name = 6914666
REMARK  5 active torsions:
REMARK  status: ('A' for Active; 'I' for Inactive)
REMARK    1  A    between atoms: C_5  and  O_21
REMARK    2  A    between atoms: CA_6  and  C_14
REMARK    3  A    between atoms: N_13  and  CA_16
REMARK    4  A    between atoms: CA_16  and  C_18
REMARK    5  A    between atoms: C_18  and  O_19
REMARK                            x       y       z     vdW  Elec       q    Type
REMARK                         _______ _______ _______ _____ _____    ______ ____
ROOT
ATOM      1 CL   UNL     1      32.415 -23.612 -16.491  0.00  0.00    -0.048 Cl
ATOM      2  N   UNL     1      34.718 -23.409 -15.400  0.00  0.00    -0.387 NA
ATOM      3  C   UNL     1      36.009 -22.122 -17.545  0.00  0.00    +0.015 C 
ATOM      4  C   UNL     1      34.648 -22.474 -17.644  0.00  0.00    +0.039 C 
ATOM      5  C   UNL     1      36.703 -22.423 -16.367  0.00  0.00    +0.190 C 
ATOM      6  CA  UNL     1      36.020 -23.057 -15.340  0.00  0.00    +0.194 C 
ATOM      7  C   UNL     1      36.630 -21.483 -18.630  0.00  0.00    -0.001 C 
ATOM      8  C   UNL     1      34.065 -23.110 -16.545  0.00  0.00    +0.188 C 
ATOM      9  C   UNL     1      33.933 -22.182 -18.818  0.00  0.00    +0.003 C 
ATOM     10  C   UNL     1      35.911 -21.196 -19.792  0.00  0.00    -0.000 C 
ATOM     11  C   UNL     1      34.566 -21.545 -19.885  0.00  0.00    +0.000 C 
ENDROOT
BRANCH   6  14
ATOM     12  O   UNL     1      37.852 -23.828 -14.096  0.00  0.00    -0.268 OA
ATOM     13  N   UNL     1      35.964 -23.186 -12.911  0.00  0.00    -0.290 N 
ATOM     14  C   ACE A   1      36.686 -23.394 -14.092  0.00  0.00    +0.275 C 
ATOM     15  H   UNL     1      35.045 -22.841 -12.982  0.00  0.00    +0.150 HD
BRANCH  13  16
ATOM     16  CA  UNL     1      36.496 -23.451 -11.593  0.00  0.00    +0.201 C 
BRANCH  16  18
ATOM     17  OXT UNL     1      35.511 -24.472  -9.645  0.00  0.00    -0.248 OA
ATOM     18  C   UNL     1      35.571 -24.382 -10.864  0.00  0.00    +0.334 C 
BRANCH  18  19
ATOM     19  O   UNL     1      34.789 -25.107 -11.704  0.00  0.00    -0.479 OA
ATOM     20  H   UNL     1      33.883 -25.239 -11.504  0.00  0.00    +0.295 HD
ENDBRANCH  18  19
ENDBRANCH  16  18
ENDBRANCH  13  16
ENDBRANCH   6  14
BRANCH   5  21
ATOM     21  O   UNL     1      38.019 -22.106 -16.217  0.00  0.00    -0.373 OA
ATOM     22  H   UNL     1      38.271 -21.218 -16.052  0.00  0.00    +0.211 HD
ENDBRANCH   5  21
TORSDOF 5
ENDMDL
MODEL 3
REMARK VINA RESULT:      -9.1     12.334     14.024
REMARK  Name = 6914666
REMARK  5 active torsions:
REMARK  status: ('A' for Active; 'I' for Inactive)
REMARK    1  A    between atoms: C_5  and  O_21
REMARK    2  A    between atoms: CA_6  and  C_14
REMARK    3  A    between atoms: N_13  and  CA_16
REMARK    4  A    between atoms: CA_16  and  C_18
REMARK    5  A    between atoms: C_18  and  O_19
REMARK                            x       y       z     vdW  Elec       q    Type
REMARK                         _______ _______ _______ _____ _____    ______ ____
ROOT
ATOM      1 CL   UNL     1      34.537 -15.289 -20.313  0.00  0.00    -0.048 Cl
ATOM      2  N   UNL     1      34.071 -14.582 -22.726  0.00  0.00    -0.387 NA
ATOM      3  C   UNL     1      34.473 -17.102 -23.914  0.00  0.00    +0.015 C 
ATOM      4  C   UNL     1      34.616 -16.943 -22.521  0.00  0.00    +0.039 C 
ATOM      5  C   UNL     1      34.130 -15.990 -24.691  0.00  0.00    +0.190 C 
ATOM      6  CA  UNL     1      33.942 -14.771 -24.056  0.00  0.00    +0.194 C 
ATOM      7  C   UNL     1      34.680 -18.369 -24.481  0.00  0.00    -0.001 C 
ATOM      8  C   UNL     1      34.403 -15.667 -21.992  0.00  0.00    +0.188 C 
ATOM      9  C   UNL     1      34.962 -18.046 -21.722  0.00  0.00    +0.003 C 
ATOM     10  C   UNL     1      35.022 -19.459 -23.680  0.00  0.00    -0.000 C 
ATOM     11  C   UNL     1      35.163 -19.298 -22.303  0.00  0.00    +0.000 C 
ENDROOT
BRANCH   6  14
ATOM     12  O   UNL     1      32.829 -13.660 -25.795  0.00  0.00    -0.268 OA
ATOM     13  N   UNL     1      34.105 -12.362 -24.358  0.00  0.00    -0.290 N 
ATOM     14  C   ACE A   1      33.583 -13.580 -24.810  0.00  0.00    +0.275 C 
ATOM     15  H   UNL     1      34.695 -12.372 -23.571  0.00  0.00    +0.150 HD
BRANCH  13  16
ATOM     16  CA  UNL     1      33.821 -11.091 -24.985  0.00  0.00    +0.201 C 
BRANCH  16  18
ATOM     17  OXT UNL     1      35.721 -10.323 -26.254  0.00  0.00    -0.248 OA
ATOM     18  C   UNL     1      35.108 -10.346 -25.194  0.00  0.00    +0.334 C 
BRANCH  18  19
ATOM     19  O   UNL     1      35.515  -9.680 -24.084  0.00  0.00    -0.479 OA
ATOM     20  H   UNL     1      36.316  -9.922 -23.660  0.00  0.00    +0.295 HD
ENDBRANCH  18  19
ENDBRANCH  16  18
ENDBRANCH  13  16
ENDBRANCH   6  14
BRANCH   5  21
ATOM     21  O   UNL     1      33.978 -16.086 -26.041  0.00  0.00    -0.373 OA
ATOM     22  H   UNL     1      34.720 -15.987 -26.604  0.00  0.00    +0.211 HD
ENDBRANCH   5  21
TORSDOF 5
ENDMDL
MODEL 4
REMARK VINA RESULT:      -9.0      8.146      9.916
REMARK  Name = 6914666
REMARK  5 active torsions:
REMARK  status: ('A' for Active; 'I' for Inactive)
REMARK    1  A    between atoms: C_5  and  O_21
REMARK    2  A    between atoms: CA_6  and  C_14
REMARK    3  A    between atoms: N_13  and  CA_16
REMARK    4  A    between atoms: CA_16  and  C_18
REMARK    5  A    between atoms: C_18  and  O_19
REMARK                            x       y       z     vdW  Elec       q    Type
REMARK                         _______ _______ _______ _____ _____    ______ ____
ROOT
ATOM      1 CL   UNL     1      34.536 -14.766 -20.389  0.00  0.00    -0.048 Cl
ATOM      2  N   UNL     1      35.124 -17.232 -20.724  0.00  0.00    -0.387 NA
ATOM      3  C   UNL     1      34.624 -17.337 -23.493  0.00  0.00    +0.015 C 
ATOM      4  C   UNL     1      34.441 -16.132 -22.783  0.00  0.00    +0.039 C 
ATOM      5  C   UNL     1      35.055 -18.473 -22.798  0.00  0.00    +0.190 C 
ATOM      6  CA  UNL     1      35.288 -18.367 -21.435  0.00  0.00    +0.194 C 
ATOM      7  C   UNL     1      34.366 -17.363 -24.873  0.00  0.00    -0.001 C 
ATOM      8  C   UNL     1      34.707 -16.145 -21.412  0.00  0.00    +0.188 C 
ATOM      9  C   UNL     1      34.007 -14.980 -23.461  0.00  0.00    +0.003 C 
ATOM     10  C   UNL     1      33.936 -16.213 -25.537  0.00  0.00    -0.000 C 
ATOM     11  C   UNL     1      33.757 -15.024 -24.832  0.00  0.00    +0.000 C 
ENDROOT
BRANCH   6  14
ATOM     12  O   UNL     1      36.912 -19.575 -20.251  0.00  0.00    -0.268 OA
ATOM     13  N   UNL     1      34.792 -20.505 -20.387  0.00  0.00    -0.290 N 
ATOM     14  C   ACE A   1      35.739 -19.512 -20.660  0.00  0.00    +0.275 C 
ATOM     15  H   UNL     1      33.882 -20.391 -20.741  0.00  0.00    +0.150 HD
BRANCH  13  16
ATOM     16  CA  UNL     1      35.080 -21.691 -19.610  0.00  0.00    +0.201 C 
BRANCH  16  18
ATOM     17  OXT UNL     1      32.713 -21.890 -19.199  0.00  0.00    -0.248 OA
ATOM     18  C   UNL     1      33.800 -22.432 -19.348  0.00  0.00    +0.334 C 
BRANCH  18  19
ATOM     19  O   UNL     1      33.973 -23.778 -19.311  0.00  0.00    -0.479 OA
ATOM     20  H   UNL     1      33.845 -24.245 -18.509  0.00  0.00    +0.295 HD
ENDBRANCH  18  19
ENDBRANCH  16  18
ENDBRANCH  13  16
ENDBRANCH   6  14
BRANCH   5  21
ATOM     21  O   UNL     1      35.249 -19.662 -23.433  0.00  0.00    -0.373 OA
ATOM     22  H   UNL     1      34.520 -20.229 -23.598  0.00  0.00    +0.211 HD
ENDBRANCH   5  21
TORSDOF 5
ENDMDL
MODEL 5
REMARK VINA RESULT:      -9.0      1.560      1.942
REMARK  Name = 6914666
REMARK  5 active torsions:
REMARK  status: ('A' for Active; 'I' for Inactive)
REMARK    1  A    between atoms: C_5  and  O_21
REMARK    2  A    between atoms: CA_6  and  C_14
REMARK    3  A    between atoms: N_13  and  CA_16
REMARK    4  A    between atoms: CA_16  and  C_18
REMARK    5  A    between atoms: C_18  and  O_19
REMARK                            x       y       z     vdW  Elec       q    Type
REMARK                         _______ _______ _______ _____ _____    ______ ____
ROOT
ATOM      1 CL   UNL     1      34.177 -22.781 -18.262  0.00  0.00    -0.048 Cl
ATOM      2  N   UNL     1      35.092 -23.775 -16.091  0.00  0.00    -0.387 NA
ATOM      3  C   UNL     1      32.656 -23.843 -14.682  0.00  0.00    +0.015 C 
ATOM      4  C   UNL     1      32.699 -23.353 -16.003  0.00  0.00    +0.039 C 
ATOM      5  C   UNL     1      33.841 -24.292 -14.088  0.00  0.00    +0.190 C 
ATOM      6  CA  UNL     1      35.014 -24.238 -14.826  0.00  0.00    +0.194 C 
ATOM      7  C   UNL     1      31.428 -23.865 -14.002  0.00  0.00    -0.001 C 
ATOM      8  C   UNL     1      33.938 -23.346 -16.648  0.00  0.00    +0.188 C 
ATOM      9  C   UNL     1      31.521 -22.895 -16.619  0.00  0.00    +0.003 C 
ATOM     10  C   UNL     1      30.264 -23.409 -14.622  0.00  0.00    -0.000 C 
ATOM     11  C   UNL     1      30.310 -22.925 -15.927  0.00  0.00    +0.000 C 
ENDROOT
BRANCH   6  14
ATOM     12  O   UNL     1      36.532 -24.510 -13.060  0.00  0.00    -0.268 OA
ATOM     13  N   UNL     1      37.157 -25.350 -15.129  0.00  0.00    -0.290 N 
ATOM     14  C   ACE A   1      36.276 -24.692 -14.263  0.00  0.00    +0.275 C 
ATOM     15  H   UNL     1      36.890 -25.459 -16.070  0.00  0.00    +0.150 HD
BRANCH  13  16
ATOM     16  CA  UNL     1      38.437 -25.879 -14.715  0.00  0.00    +0.201 C 
BRANCH  16  18
ATOM     17  OXT UNL     1      40.634 -24.911 -14.507  0.00  0.00    -0.248 OA
ATOM     18  C   UNL     1      39.502 -24.852 -14.969  0.00  0.00    +0.334 C 
BRANCH  18  19
ATOM     19  O   UNL     1      39.081 -23.851 -15.783  0.00  0.00    -0.479 OA
ATOM     20  H   UNL     1      38.365 -23.995 -16.370  0.00  0.00    +0.295 HD
ENDBRANCH  18  19
ENDBRANCH  16  18
ENDBRANCH  13  16
ENDBRANCH   6  14
BRANCH   5  21
ATOM     21  O   UNL     1      33.857 -24.776 -12.815  0.00  0.00    -0.373 OA
ATOM     22  H   UNL     1      34.140 -24.228 -12.109  0.00  0.00    +0.211 HD
ENDBRANCH   5  21
TORSDOF 5
ENDMDL
MODEL 6
REMARK VINA RESULT:      -8.9      8.202      9.841
REMARK  Name = 6914666
REMARK  5 active torsions:
REMARK  status: ('A' for Active; 'I' for Inactive)
REMARK    1  A    between atoms: C_5  and  O_21
REMARK    2  A    between atoms: CA_6  and  C_14
REMARK    3  A    between atoms: N_13  and  CA_16
REMARK    4  A    between atoms: CA_16  and  C_18
REMARK    5  A    between atoms: C_18  and  O_19
REMARK                            x       y       z     vdW  Elec       q    Type
REMARK                         _______ _______ _______ _____ _____    ______ ____
ROOT
ATOM      1 CL   UNL     1      34.321 -19.065 -25.482  0.00  0.00    -0.048 Cl
ATOM      2  N   UNL     1      34.980 -19.102 -23.012  0.00  0.00    -0.387 NA
ATOM      3  C   UNL     1      34.648 -16.350 -22.520  0.00  0.00    +0.015 C 
ATOM      4  C   UNL     1      34.396 -16.877 -23.803  0.00  0.00    +0.039 C 
ATOM      5  C   UNL     1      35.064 -17.215 -21.501  0.00  0.00    +0.190 C 
ATOM      6  CA  UNL     1      35.211 -18.562 -21.797  0.00  0.00    +0.194 C 
ATOM      7  C   UNL     1      34.475 -14.974 -22.302  0.00  0.00    -0.001 C 
ATOM      8  C   UNL     1      34.579 -18.251 -23.982  0.00  0.00    +0.188 C 
ATOM      9  C   UNL     1      33.979 -16.026 -24.840  0.00  0.00    +0.003 C 
ATOM     10  C   UNL     1      34.060 -14.136 -23.338  0.00  0.00    -0.000 C 
ATOM     11  C   UNL     1      33.813 -14.661 -24.604  0.00  0.00    +0.000 C 
ENDROOT
BRANCH   6  14
ATOM     12  O   UNL     1      36.762 -19.409 -20.255  0.00  0.00    -0.268 OA
ATOM     13  N   UNL     1      34.726 -20.508 -20.418  0.00  0.00    -0.290 N 
ATOM     14  C   ACE A   1      35.639 -19.510 -20.780  0.00  0.00    +0.275 C 
ATOM     15  H   UNL     1      33.855 -20.529 -20.875  0.00  0.00    +0.150 HD
BRANCH  13  16
ATOM     16  CA  UNL     1      34.994 -21.507 -19.409  0.00  0.00    +0.201 C 
BRANCH  16  18
ATOM     17  OXT UNL     1      32.671 -21.948 -18.939  0.00  0.00    -0.248 OA
ATOM     18  C   UNL     1      33.780 -22.374 -19.237  0.00  0.00    +0.334 C 
BRANCH  18  19
ATOM     19  O   UNL     1      34.037 -23.687 -19.465  0.00  0.00    -0.479 OA
ATOM     20  H   UNL     1      34.911 -23.966 -19.659  0.00  0.00    +0.295 HD
ENDBRANCH  18  19
ENDBRANCH  16  18
ENDBRANCH  13  16
ENDBRANCH   6  14
BRANCH   5  21
ATOM     21  O   UNL     1      35.320 -16.760 -20.244  0.00  0.00    -0.373 OA
ATOM     22  H   UNL     1      35.284 -17.350 -19.516  0.00  0.00    +0.211 HD
ENDBRANCH   5  21
TORSDOF 5
ENDMDL
MODEL 7
REMARK VINA RESULT:      -8.8      2.791      4.224
REMARK  Name = 6914666
REMARK  5 active torsions:
REMARK  status: ('A' for Active; 'I' for Inactive)
REMARK    1  A    between atoms: C_5  and  O_21
REMARK    2  A    between atoms: CA_6  and  C_14
REMARK    3  A    between atoms: N_13  and  CA_16
REMARK    4  A    between atoms: CA_16  and  C_18
REMARK    5  A    between atoms: C_18  and  O_19
REMARK                            x       y       z     vdW  Elec       q    Type
REMARK                         _______ _______ _______ _____ _____    ______ ____
ROOT
ATOM      1 CL   UNL     1      32.474 -23.927 -15.811  0.00  0.00    -0.048 Cl
ATOM      2  N   UNL     1      34.974 -23.743 -15.305  0.00  0.00    -0.387 NA
ATOM      3  C   UNL     1      35.699 -22.326 -17.627  0.00  0.00    +0.015 C 
ATOM      4  C   UNL     1      34.355 -22.695 -17.410  0.00  0.00    +0.039 C 
ATOM      5  C   UNL     1      36.660 -22.677 -16.672  0.00  0.00    +0.190 C 
ATOM      6  CA  UNL     1      36.250 -23.374 -15.545  0.00  0.00    +0.194 C 
ATOM      7  C   UNL     1      36.034 -21.622 -18.794  0.00  0.00    -0.001 C 
ATOM      8  C   UNL     1      34.060 -23.396 -16.238  0.00  0.00    +0.188 C 
ATOM      9  C   UNL     1      33.375 -22.354 -18.357  0.00  0.00    +0.003 C 
ATOM     10  C   UNL     1      35.052 -21.287 -19.729  0.00  0.00    -0.000 C 
ATOM     11  C   UNL     1      33.726 -21.653 -19.511  0.00  0.00    +0.000 C 
ENDROOT
BRANCH   6  14
ATOM     12  O   UNL     1      37.170 -23.234 -13.393  0.00  0.00    -0.268 OA
ATOM     13  N   UNL     1      38.120 -24.766 -14.851  0.00  0.00    -0.290 N 
ATOM     14  C   ACE A   1      37.202 -23.765 -14.517  0.00  0.00    +0.275 C 
ATOM     15  H   UNL     1      38.089 -25.143 -15.759  0.00  0.00    +0.150 HD
BRANCH  13  16
ATOM     16  CA  UNL     1      39.112 -25.279 -13.932  0.00  0.00    +0.201 C 
BRANCH  16  18
ATOM     17  OXT UNL     1      41.138 -26.554 -14.211  0.00  0.00    -0.248 OA
ATOM     18  C   UNL     1      40.239 -25.891 -14.712  0.00  0.00    +0.334 C 
BRANCH  18  19
ATOM     19  O   UNL     1      40.147 -25.646 -16.044  0.00  0.00    -0.479 OA
ATOM     20  H   UNL     1      40.896 -25.337 -16.516  0.00  0.00    +0.295 HD
ENDBRANCH  18  19
ENDBRANCH  16  18
ENDBRANCH  13  16
ENDBRANCH   6  14
BRANCH   5  21
ATOM     21  O   UNL     1      37.972 -22.347 -16.830  0.00  0.00    -0.373 OA
ATOM     22  H   UNL     1      38.445 -21.956 -16.121  0.00  0.00    +0.211 HD
ENDBRANCH   5  21
TORSDOF 5
ENDMDL
MODEL 8
REMARK VINA RESULT:      -8.3     13.968     15.382
REMARK  Name = 6914666
REMARK  5 active torsions:
REMARK  status: ('A' for Active; 'I' for Inactive)
REMARK    1  A    between atoms: C_5  and  O_21
REMARK    2  A    between atoms: CA_6  and  C_14
REMARK    3  A    between atoms: N_13  and  CA_16
REMARK    4  A    between atoms: CA_16  and  C_18
REMARK    5  A    between atoms: C_18  and  O_19
REMARK                            x       y       z     vdW  Elec       q    Type
REMARK                         _______ _______ _______ _____ _____    ______ ____
ROOT
ATOM      1 CL   UNL     1      30.770 -11.002 -21.070  0.00  0.00    -0.048 Cl
ATOM      2  N   UNL     1      32.319 -12.081 -22.796  0.00  0.00    -0.387 NA
ATOM      3  C   UNL     1      33.674  -9.736 -23.564  0.00  0.00    +0.015 C 
ATOM      4  C   UNL     1      32.663  -9.683 -22.583  0.00  0.00    +0.039 C 
ATOM      5  C   UNL     1      33.990 -10.969 -24.145  0.00  0.00    +0.190 C 
ATOM      6  CA  UNL     1      33.292 -12.094 -23.731  0.00  0.00    +0.194 C 
ATOM      7  C   UNL     1      34.334  -8.552 -23.929  0.00  0.00    -0.001 C 
ATOM      8  C   UNL     1      32.029 -10.881 -22.246  0.00  0.00    +0.188 C 
ATOM      9  C   UNL     1      32.330  -8.454 -21.987  0.00  0.00    +0.003 C 
ATOM     10  C   UNL     1      33.997  -7.337 -23.331  0.00  0.00    -0.000 C 
ATOM     11  C   UNL     1      32.997  -7.288 -22.362  0.00  0.00    +0.000 C 
ENDROOT
BRANCH   6  14
ATOM     12  O   UNL     1      33.328 -13.641 -25.492  0.00  0.00    -0.268 OA
ATOM     13  N   UNL     1      34.151 -14.353 -23.444  0.00  0.00    -0.290 N 
ATOM     14  C   ACE A   1      33.576 -13.404 -24.297  0.00  0.00    +0.275 C 
ATOM     15  H   UNL     1      34.320 -14.097 -22.509  0.00  0.00    +0.150 HD
BRANCH  13  16
ATOM     16  CA  UNL     1      34.512 -15.688 -23.864  0.00  0.00    +0.201 C 
BRANCH  16  18
ATOM     17  OXT UNL     1      34.921 -16.153 -21.534  0.00  0.00    -0.248 OA
ATOM     18  C   UNL     1      35.140 -16.416 -22.710  0.00  0.00    +0.334 C 
BRANCH  18  19
ATOM     19  O   UNL     1      35.967 -17.415 -23.109  0.00  0.00    -0.479 OA
ATOM     20  H   UNL     1      36.591 -17.774 -22.509  0.00  0.00    +0.295 HD
ENDBRANCH  18  19
ENDBRANCH  16  18
ENDBRANCH  13  16
ENDBRANCH   6  14
BRANCH   5  21
ATOM     21  O   UNL     1      34.958 -11.079 -25.097  0.00  0.00    -0.373 OA
ATOM     22  H   UNL     1      35.832 -11.311 -24.851  0.00  0.00    +0.211 HD
ENDBRANCH   5  21
TORSDOF 5
ENDMDL
MODEL 9
REMARK VINA RESULT:      -8.3     12.110     13.712
REMARK  Name = 6914666
REMARK  5 active torsions:
REMARK  status: ('A' for Active; 'I' for Inactive)
REMARK    1  A    between atoms: C_5  and  O_21
REMARK    2  A    between atoms: CA_6  and  C_14
REMARK    3  A    between atoms: N_13  and  CA_16
REMARK    4  A    between atoms: CA_16  and  C_18
REMARK    5  A    between atoms: C_18  and  O_19
REMARK                            x       y       z     vdW  Elec       q    Type
REMARK                         _______ _______ _______ _____ _____    ______ ____
ROOT
ATOM      1 CL   UNL     1      33.330 -14.891 -26.538  0.00  0.00    -0.048 Cl
ATOM      2  N   UNL     1      32.879 -13.656 -24.345  0.00  0.00    -0.387 NA
ATOM      3  C   UNL     1      34.058 -15.551 -22.628  0.00  0.00    +0.015 C 
ATOM      4  C   UNL     1      34.041 -15.768 -24.021  0.00  0.00    +0.039 C 
ATOM      5  C   UNL     1      33.480 -14.383 -22.118  0.00  0.00    +0.190 C 
ATOM      6  CA  UNL     1      32.914 -13.482 -23.007  0.00  0.00    +0.194 C 
ATOM      7  C   UNL     1      34.651 -16.512 -21.795  0.00  0.00    -0.001 C 
ATOM      8  C   UNL     1      33.442 -14.790 -24.819  0.00  0.00    +0.188 C 
ATOM      9  C   UNL     1      34.615 -16.935 -24.554  0.00  0.00    +0.003 C 
ATOM     10  C   UNL     1      35.218 -17.668 -22.334  0.00  0.00    -0.000 C 
ATOM     11  C   UNL     1      35.200 -17.879 -23.711  0.00  0.00    +0.000 C 
ENDROOT
BRANCH   6  14
ATOM     12  O   UNL     1      32.633 -11.154 -23.020  0.00  0.00    -0.268 OA
ATOM     13  N   UNL     1      31.316 -12.368 -21.548  0.00  0.00    -0.290 N 
ATOM     14  C   ACE A   1      32.299 -12.250 -22.537  0.00  0.00    +0.275 C 
ATOM     15  H   UNL     1      31.102 -13.267 -21.210  0.00  0.00    +0.150 HD
BRANCH  13  16
ATOM     16  CA  UNL     1      30.599 -11.241 -20.996  0.00  0.00    +0.201 C 
BRANCH  16  18
ATOM     17  OXT UNL     1      31.470 -11.039 -18.758  0.00  0.00    -0.248 OA
ATOM     18  C   UNL     1      31.422 -10.616 -19.906  0.00  0.00    +0.334 C 
BRANCH  18  19
ATOM     19  O   UNL     1      32.125  -9.537 -20.334  0.00  0.00    -0.479 OA
ATOM     20  H   UNL     1      31.987  -8.701 -19.935  0.00  0.00    +0.295 HD
ENDBRANCH  18  19
ENDBRANCH  16  18
ENDBRANCH  13  16
ENDBRANCH   6  14
BRANCH   5  21
ATOM     21  O   UNL     1      33.468 -14.122 -20.782  0.00  0.00    -0.373 OA
ATOM     22  H   UNL     1      32.662 -13.909 -20.353  0.00  0.00    +0.211 HD
ENDBRANCH   5  21
TORSDOF 5
ENDMDL
