MODEL 1
REMARK VINA RESULT:     -11.9      0.000      0.000
REMARK  Name = 20055414
REMARK  5 active torsions:
REMARK  status: ('A' for Active; 'I' for Inactive)
REMARK    1  A    between atoms: N_1  and  C_18
REMARK    2  A    between atoms: N_2  and  C_8
REMARK    3  A    between atoms: C_11  and  C_17
REMARK    4  A    between atoms: C_18  and  C_19
REMARK    5  A    between atoms: C_19  and  C_30
REMARK                            x       y       z     vdW  Elec       q    Type
REMARK                         _______ _______ _______ _____ _____    ______ ____
ROOT
ATOM      1  N   UNL     1      35.978 -20.632 -19.285  0.00  0.00    +0.390 N 
ATOM      2  N   UNL     1      35.271 -19.213 -21.661  0.00  0.00    -0.312 N 
ATOM      3  C   UNL     1      34.757 -20.979 -20.024  0.00  0.00    -0.055 C 
ATOM      4  C   UNL     1      37.017 -20.186 -20.220  0.00  0.00    -0.055 C 
ATOM      5  C   UNL     1      34.224 -19.776 -20.804  0.00  0.00    +0.068 C 
ATOM      6  C   UNL     1      36.560 -18.955 -21.005  0.00  0.00    +0.068 C 
ATOM      7  H   UNL     1      35.765 -19.870 -18.641  0.00  0.00    -0.080 HD
ENDROOT
BRANCH   2   8
ATOM      8  C   UNL     1      34.918 -18.413 -22.754  0.00  0.00    +0.048 C 
ATOM      9  C   UNL     1      34.588 -17.071 -22.559  0.00  0.00    +0.018 C 
ATOM     10  C   UNL     1      34.896 -18.956 -24.038  0.00  0.00    +0.015 C 
ATOM     11  C   UNL     1      34.236 -16.275 -23.648  0.00  0.00    +0.073 C 
ATOM     12  C   UNL     1      34.545 -18.159 -25.128  0.00  0.00    +0.001 C 
ATOM     13  C   UNL     1      34.214 -16.819 -24.933  0.00  0.00    +0.004 C 
BRANCH  11  17
ATOM     14  F   UNL     1      33.816 -14.120 -24.599  0.00  0.00    -0.166 F 
ATOM     15  F   UNL     1      32.669 -14.659 -22.838  0.00  0.00    -0.166 F 
ATOM     16  F   UNL     1      34.784 -14.187 -22.652  0.00  0.00    -0.166 F 
ATOM     17  C   UNL     1      33.882 -14.841 -23.440  0.00  0.00    +0.419 C 
ENDBRANCH  11  17
ENDBRANCH   2   8
BRANCH   1  18
ATOM     18  C   UNL     1      36.446 -21.774 -18.502  0.00  0.00    -0.069 C 
BRANCH  18  19
ATOM     19  C   UNL     1      36.958 -21.359 -17.105  0.00  0.00    +0.043 C 
BRANCH  19  30
ATOM     20  N   UNL     1      36.377 -23.308 -15.688  0.00  0.00    -0.302 N 
ATOM     21  N   UNL     1      38.324 -24.082 -15.103  0.00  0.00    -0.134 NA
ATOM     22  N   UNL     1      38.489 -22.960 -15.920  0.00  0.00    -0.134 NA
ATOM     23  C   UNL     1      34.706 -24.561 -14.625  0.00  0.00    +0.030 C 
ATOM     24  C   UNL     1      36.112 -25.186 -14.301  0.00  0.00    +0.061 C 
ATOM     25  C   UNL     1      34.150 -24.088 -13.275  0.00  0.00    +0.002 C 
ATOM     26  C   UNL     1      36.237 -25.145 -12.782  0.00  0.00    +0.008 C 
ATOM     27  C   UNL     1      34.940 -23.410 -15.639  0.00  0.00    +0.109 C 
ATOM     28  C   UNL     1      35.358 -23.976 -12.356  0.00  0.00    +0.001 C 
ATOM     29  C   UNL     1      37.034 -24.259 -14.984  0.00  0.00    +0.143 A 
ATOM     30  C   UNL     1      37.291 -22.513 -16.257  0.00  0.00    +0.141 A 
ENDBRANCH  19  30
ENDBRANCH  18  19
ENDBRANCH   1  18
TORSDOF 5
ENDMDL
MODEL 2
REMARK VINA RESULT:     -11.9      5.665     12.398
REMARK  Name = 20055414
REMARK  5 active torsions:
REMARK  status: ('A' for Active; 'I' for Inactive)
REMARK    1  A    between atoms: N_1  and  C_18
REMARK    2  A    between atoms: N_2  and  C_8
REMARK    3  A    between atoms: C_11  and  C_17
REMARK    4  A    between atoms: C_18  and  C_19
REMARK    5  A    between atoms: C_19  and  C_30
REMARK                            x       y       z     vdW  Elec       q    Type
REMARK                         _______ _______ _______ _____ _____    ______ ____
ROOT
ATOM      1  N   UNL     1      33.955 -14.450 -23.830  0.00  0.00    +0.390 N 
ATOM      2  N   UNL     1      34.554 -16.883 -22.458  0.00  0.00    -0.312 N 
ATOM      3  C   UNL     1      33.894 -15.736 -24.536  0.00  0.00    -0.055 C 
ATOM      4  C   UNL     1      33.557 -14.629 -22.429  0.00  0.00    -0.055 C 
ATOM      5  C   UNL     1      34.830 -16.762 -23.893  0.00  0.00    +0.068 C 
ATOM      6  C   UNL     1      34.482 -15.617 -21.716  0.00  0.00    +0.068 C 
ATOM      7  H   UNL     1      34.915 -14.106 -23.858  0.00  0.00    -0.080 HD
ENDROOT
BRANCH   2   8
ATOM      8  C   UNL     1      34.964 -18.028 -21.767  0.00  0.00    +0.048 C 
ATOM      9  C   UNL     1      34.017 -18.858 -21.167  0.00  0.00    +0.018 C 
ATOM     10  C   UNL     1      36.321 -18.340 -21.676  0.00  0.00    +0.015 C 
ATOM     11  C   UNL     1      34.427 -19.999 -20.478  0.00  0.00    +0.073 C 
ATOM     12  C   UNL     1      36.730 -19.481 -20.987  0.00  0.00    +0.001 C 
ATOM     13  C   UNL     1      35.784 -20.310 -20.388  0.00  0.00    +0.004 C 
BRANCH  11  17
ATOM     14  F   UNL     1      32.994 -21.908 -20.639  0.00  0.00    -0.166 F 
ATOM     15  F   UNL     1      33.862 -21.491 -18.696  0.00  0.00    -0.166 F 
ATOM     16  F   UNL     1      32.283 -20.215 -19.474  0.00  0.00    -0.166 F 
ATOM     17  C   UNL     1      33.414 -20.886 -19.836  0.00  0.00    +0.419 C 
ENDBRANCH  11  17
ENDBRANCH   2   8
BRANCH   1  18
ATOM     18  C   UNL     1      33.098 -13.463 -24.486  0.00  0.00    -0.069 C 
BRANCH  18  19
ATOM     19  C   UNL     1      32.907 -12.191 -23.632  0.00  0.00    +0.043 C 
BRANCH  19  30
ATOM     20  N   UNL     1      33.764  -9.869 -23.501  0.00  0.00    -0.302 N 
ATOM     21  N   UNL     1      35.280  -9.820 -25.060  0.00  0.00    -0.134 NA
ATOM     22  N   UNL     1      34.695 -11.089 -25.011  0.00  0.00    -0.134 NA
ATOM     23  C   UNL     1      33.571  -7.733 -22.557  0.00  0.00    +0.030 C 
ATOM     24  C   UNL     1      34.745  -7.736 -23.603  0.00  0.00    +0.061 C 
ATOM     25  C   UNL     1      32.531  -6.751 -23.115  0.00  0.00    +0.002 C 
ATOM     26  C   UNL     1      34.372  -6.679 -24.637  0.00  0.00    +0.008 C 
ATOM     27  C   UNL     1      33.053  -9.190 -22.446  0.00  0.00    +0.109 C 
ATOM     28  C   UNL     1      32.851  -6.620 -24.597  0.00  0.00    +0.001 C 
ATOM     29  C   UNL     1      34.689  -9.111 -24.135  0.00  0.00    +0.143 A 
ATOM     30  C   UNL     1      33.780 -11.086 -24.056  0.00  0.00    +0.141 A 
ENDBRANCH  19  30
ENDBRANCH  18  19
ENDBRANCH   1  18
TORSDOF 5
ENDMDL
MODEL 3
REMARK VINA RESULT:     -11.8      1.519      2.173
REMARK  Name = 20055414
REMARK  5 active torsions:
REMARK  status: ('A' for Active; 'I' for Inactive)
REMARK    1  A    between atoms: N_1  and  C_18
REMARK    2  A    between atoms: N_2  and  C_8
REMARK    3  A    between atoms: C_11  and  C_17
REMARK    4  A    between atoms: C_18  and  C_19
REMARK    5  A    between atoms: C_19  and  C_30
REMARK                            x       y       z     vdW  Elec       q    Type
REMARK                         _______ _______ _______ _____ _____    ______ ____
ROOT
ATOM      1  N   UNL     1      34.299 -21.941 -18.605  0.00  0.00    +0.390 N 
ATOM      2  N   UNL     1      34.468 -20.093 -20.778  0.00  0.00    -0.312 N 
ATOM      3  C   UNL     1      33.113 -21.632 -19.413  0.00  0.00    -0.055 C 
ATOM      4  C   UNL     1      35.501 -21.891 -19.446  0.00  0.00    -0.055 C 
ATOM      5  C   UNL     1      33.215 -20.236 -20.030  0.00  0.00    +0.068 C 
ATOM      6  C   UNL     1      35.684 -20.503 -20.063  0.00  0.00    +0.068 C 
ATOM      7  H   UNL     1      34.385 -21.243 -17.867  0.00  0.00    -0.080 HD
ENDROOT
BRANCH   2   8
ATOM      8  C   UNL     1      34.584 -19.100 -21.756  0.00  0.00    +0.048 C 
ATOM      9  C   UNL     1      34.394 -17.760 -21.418  0.00  0.00    +0.018 C 
ATOM     10  C   UNL     1      34.889 -19.450 -23.072  0.00  0.00    +0.015 C 
ATOM     11  C   UNL     1      34.509 -16.772 -22.394  0.00  0.00    +0.073 C 
ATOM     12  C   UNL     1      35.005 -18.460 -24.048  0.00  0.00    +0.001 C 
ATOM     13  C   UNL     1      34.815 -17.121 -23.709  0.00  0.00    +0.004 C 
BRANCH  11  17
ATOM     14  F   UNL     1      34.848 -14.996 -20.826  0.00  0.00    -0.166 F 
ATOM     15  F   UNL     1      34.853 -14.465 -22.929  0.00  0.00    -0.166 F 
ATOM     16  F   UNL     1      32.986 -15.001 -21.950  0.00  0.00    -0.166 F 
ATOM     17  C   UNL     1      34.305 -15.339 -22.032  0.00  0.00    +0.419 C 
ENDBRANCH  11  17
ENDBRANCH   2   8
BRANCH   1  18
ATOM     18  C   UNL     1      34.165 -23.255 -17.978  0.00  0.00    -0.069 C 
BRANCH  18  19
ATOM     19  C   UNL     1      34.298 -23.188 -16.441  0.00  0.00    +0.043 C 
BRANCH  19  30
ATOM     20  N   UNL     1      36.315 -24.237 -15.455  0.00  0.00    -0.302 N 
ATOM     21  N   UNL     1      37.777 -22.627 -15.506  0.00  0.00    -0.134 NA
ATOM     22  N   UNL     1      36.564 -22.179 -16.039  0.00  0.00    -0.134 NA
ATOM     23  C   UNL     1      37.270 -26.100 -14.402  0.00  0.00    +0.030 C 
ATOM     24  C   UNL     1      38.355 -24.972 -14.548  0.00  0.00    +0.061 C 
ATOM     25  C   UNL     1      37.083 -26.292 -12.890  0.00  0.00    +0.002 C 
ATOM     26  C   UNL     1      38.814 -24.661 -13.127  0.00  0.00    +0.008 C 
ATOM     27  C   UNL     1      35.992 -25.603 -15.127  0.00  0.00    +0.109 C 
ATOM     28  C   UNL     1      37.622 -25.021 -12.250  0.00  0.00    +0.001 C 
ATOM     29  C   UNL     1      37.586 -23.873 -15.162  0.00  0.00    +0.143 A 
ATOM     30  C   UNL     1      35.699 -23.178 -15.993  0.00  0.00    +0.141 A 
ENDBRANCH  19  30
ENDBRANCH  18  19
ENDBRANCH   1  18
TORSDOF 5
ENDMDL
MODEL 4
REMARK VINA RESULT:     -11.7      6.295     10.280
REMARK  Name = 20055414
REMARK  5 active torsions:
REMARK  status: ('A' for Active; 'I' for Inactive)
REMARK    1  A    between atoms: N_1  and  C_18
REMARK    2  A    between atoms: N_2  and  C_8
REMARK    3  A    between atoms: C_11  and  C_17
REMARK    4  A    between atoms: C_18  and  C_19
REMARK    5  A    between atoms: C_19  and  C_30
REMARK                            x       y       z     vdW  Elec       q    Type
REMARK                         _______ _______ _______ _____ _____    ______ ____
ROOT
ATOM      1  N   UNL     1      32.260 -12.509 -23.178  0.00  0.00    +0.390 N 
ATOM      2  N   UNL     1      32.255  -9.720 -22.559  0.00  0.00    -0.312 N 
ATOM      3  C   UNL     1      33.385 -11.655 -23.580  0.00  0.00    -0.055 C 
ATOM      4  C   UNL     1      31.699 -12.031 -21.908  0.00  0.00    -0.055 C 
ATOM      5  C   UNL     1      32.939 -10.203 -23.762  0.00  0.00    +0.068 C 
ATOM      6  C   UNL     1      31.195 -10.592 -22.036  0.00  0.00    +0.068 C 
ATOM      7  H   UNL     1      31.537 -12.457 -23.897  0.00  0.00    -0.080 HD
ENDROOT
BRANCH   2   8
ATOM      8  C   UNL     1      32.148  -8.344 -22.327  0.00  0.00    +0.048 C 
ATOM      9  C   UNL     1      32.005  -7.464 -23.400  0.00  0.00    +0.018 C 
ATOM     10  C   UNL     1      32.183  -7.852 -21.022  0.00  0.00    +0.015 C 
ATOM     11  C   UNL     1      31.899  -6.093 -23.167  0.00  0.00    +0.073 C 
ATOM     12  C   UNL     1      32.076  -6.481 -20.790  0.00  0.00    +0.001 C 
ATOM     13  C   UNL     1      31.934  -5.601 -21.862  0.00  0.00    +0.004 C 
BRANCH  11  17
ATOM     14  F   UNL     1      30.518  -5.204 -24.907  0.00  0.00    -0.166 F 
ATOM     15  F   UNL     1      31.921  -3.840 -23.972  0.00  0.00    -0.166 F 
ATOM     16  F   UNL     1      32.646  -5.392 -25.312  0.00  0.00    -0.166 F 
ATOM     17  C   UNL     1      31.747  -5.152 -24.314  0.00  0.00    +0.419 C 
ENDBRANCH  11  17
ENDBRANCH   2   8
BRANCH   1  18
ATOM     18  C   UNL     1      32.688 -13.901 -23.060  0.00  0.00    -0.069 C 
BRANCH  18  19
ATOM     19  C   UNL     1      34.219 -14.033 -22.898  0.00  0.00    +0.043 C 
BRANCH  19  30
ATOM     20  N   UNL     1      35.045 -16.276 -22.243  0.00  0.00    -0.302 N 
ATOM     21  N   UNL     1      35.025 -16.188 -20.070  0.00  0.00    -0.134 NA
ATOM     22  N   UNL     1      34.576 -14.972 -20.595  0.00  0.00    -0.134 NA
ATOM     23  C   UNL     1      35.689 -18.427 -22.914  0.00  0.00    +0.030 C 
ATOM     24  C   UNL     1      35.785 -18.319 -21.349  0.00  0.00    +0.061 C 
ATOM     25  C   UNL     1      34.613 -19.488 -23.184  0.00  0.00    +0.002 C 
ATOM     26  C   UNL     1      34.851 -19.397 -20.807  0.00  0.00    +0.008 C 
ATOM     27  C   UNL     1      35.320 -17.018 -23.448  0.00  0.00    +0.109 C 
ATOM     28  C   UNL     1      33.804 -19.582 -21.898  0.00  0.00    +0.001 C 
ATOM     29  C   UNL     1      35.296 -16.950 -21.097  0.00  0.00    +0.143 A 
ATOM     30  C   UNL     1      34.599 -15.058 -21.914  0.00  0.00    +0.141 A 
ENDBRANCH  19  30
ENDBRANCH  18  19
ENDBRANCH   1  18
TORSDOF 5
ENDMDL
MODEL 5
REMARK VINA RESULT:     -11.6      5.660     12.418
REMARK  Name = 20055414
REMARK  5 active torsions:
REMARK  status: ('A' for Active; 'I' for Inactive)
REMARK    1  A    between atoms: N_1  and  C_18
REMARK    2  A    between atoms: N_2  and  C_8
REMARK    3  A    between atoms: C_11  and  C_17
REMARK    4  A    between atoms: C_18  and  C_19
REMARK    5  A    between atoms: C_19  and  C_30
REMARK                            x       y       z     vdW  Elec       q    Type
REMARK                         _______ _______ _______ _____ _____    ______ ____
ROOT
ATOM      1  N   UNL     1      34.154 -14.479 -23.187  0.00  0.00    +0.390 N 
ATOM      2  N   UNL     1      34.033 -17.080 -22.011  0.00  0.00    -0.312 N 
ATOM      3  C   UNL     1      34.610 -15.656 -23.937  0.00  0.00    -0.055 C 
ATOM      4  C   UNL     1      33.034 -14.847 -22.313  0.00  0.00    -0.055 C 
ATOM      5  C   UNL     1      35.077 -16.765 -22.991  0.00  0.00    +0.068 C 
ATOM      6  C   UNL     1      33.450 -15.927 -21.312  0.00  0.00    +0.068 C 
ATOM      7  H   UNL     1      34.924 -14.139 -22.611  0.00  0.00    -0.080 HD
ENDROOT
BRANCH   2   8
ATOM      8  C   UNL     1      34.054 -18.311 -21.346  0.00  0.00    +0.048 C 
ATOM      9  C   UNL     1      35.272 -18.903 -21.010  0.00  0.00    +0.018 C 
ATOM     10  C   UNL     1      32.856 -18.947 -21.018  0.00  0.00    +0.015 C 
ATOM     11  C   UNL     1      35.291 -20.129 -20.348  0.00  0.00    +0.073 C 
ATOM     12  C   UNL     1      32.876 -20.174 -20.355  0.00  0.00    +0.001 C 
ATOM     13  C   UNL     1      34.093 -20.765 -20.020  0.00  0.00    +0.004 C 
BRANCH  11  17
ATOM     14  F   UNL     1      36.764 -20.940 -18.645  0.00  0.00    -0.166 F 
ATOM     15  F   UNL     1      36.766 -22.003 -20.536  0.00  0.00    -0.166 F 
ATOM     16  F   UNL     1      37.666 -20.027 -20.402  0.00  0.00    -0.166 F 
ATOM     17  C   UNL     1      36.593 -20.763 -19.989  0.00  0.00    +0.419 C 
ENDBRANCH  11  17
ENDBRANCH   2   8
BRANCH   1  18
ATOM     18  C   UNL     1      33.761 -13.409 -24.102  0.00  0.00    -0.069 C 
BRANCH  18  19
ATOM     19  C   UNL     1      33.066 -12.238 -23.373  0.00  0.00    +0.043 C 
BRANCH  19  30
ATOM     20  N   UNL     1      33.276  -9.779 -23.143  0.00  0.00    -0.302 N 
ATOM     21  N   UNL     1      34.856  -9.290 -24.556  0.00  0.00    -0.134 NA
ATOM     22  N   UNL     1      34.618 -10.668 -24.572  0.00  0.00    -0.134 NA
ATOM     23  C   UNL     1      32.454  -7.797 -22.202  0.00  0.00    +0.030 C 
ATOM     24  C   UNL     1      33.673  -7.463 -23.136  0.00  0.00    +0.061 C 
ATOM     25  C   UNL     1      31.247  -7.099 -22.844  0.00  0.00    +0.002 C 
ATOM     26  C   UNL     1      33.130  -6.505 -24.190  0.00  0.00    +0.008 C 
ATOM     27  C   UNL     1      32.324  -9.342 -22.152  0.00  0.00    +0.109 C 
ATOM     28  C   UNL     1      31.648  -6.842 -24.289  0.00  0.00    +0.001 C 
ATOM     29  C   UNL     1      34.023  -8.788 -23.682  0.00  0.00    +0.143 A 
ATOM     30  C   UNL     1      33.655 -10.932 -23.706  0.00  0.00    +0.141 A 
ENDBRANCH  19  30
ENDBRANCH  18  19
ENDBRANCH   1  18
TORSDOF 5
ENDMDL
MODEL 6
REMARK VINA RESULT:     -11.5      2.668      3.655
REMARK  Name = 20055414
REMARK  5 active torsions:
REMARK  status: ('A' for Active; 'I' for Inactive)
REMARK    1  A    between atoms: N_1  and  C_18
REMARK    2  A    between atoms: N_2  and  C_8
REMARK    3  A    between atoms: C_11  and  C_17
REMARK    4  A    between atoms: C_18  and  C_19
REMARK    5  A    between atoms: C_19  and  C_30
REMARK                            x       y       z     vdW  Elec       q    Type
REMARK                         _______ _______ _______ _____ _____    ______ ____
ROOT
ATOM      1  N   UNL     1      34.586 -21.470 -19.421  0.00  0.00    +0.390 N 
ATOM      2  N   UNL     1      34.609 -19.393 -21.382  0.00  0.00    -0.312 N 
ATOM      3  C   UNL     1      33.388 -21.190 -20.223  0.00  0.00    -0.055 C 
ATOM      4  C   UNL     1      35.791 -21.217 -20.220  0.00  0.00    -0.055 C 
ATOM      5  C   UNL     1      33.364 -19.733 -20.687  0.00  0.00    +0.068 C 
ATOM      6  C   UNL     1      35.848 -19.760 -20.683  0.00  0.00    +0.068 C 
ATOM      7  H   UNL     1      34.592 -20.850 -18.612  0.00  0.00    -0.080 HD
ENDROOT
BRANCH   2   8
ATOM      8  C   UNL     1      34.644 -18.294 -22.248  0.00  0.00    +0.048 C 
ATOM      9  C   UNL     1      34.373 -17.014 -21.763  0.00  0.00    +0.018 C 
ATOM     10  C   UNL     1      34.950 -18.478 -23.597  0.00  0.00    +0.015 C 
ATOM     11  C   UNL     1      34.408 -15.920 -22.627  0.00  0.00    +0.073 C 
ATOM     12  C   UNL     1      34.984 -17.383 -24.460  0.00  0.00    +0.001 C 
ATOM     13  C   UNL     1      34.714 -16.105 -23.976  0.00  0.00    +0.004 C 
BRANCH  11  17
ATOM     14  F   UNL     1      32.785 -14.301 -21.942  0.00  0.00    -0.166 F 
ATOM     15  F   UNL     1      34.683 -14.297 -20.891  0.00  0.00    -0.166 F 
ATOM     16  F   UNL     1      34.575 -13.569 -22.938  0.00  0.00    -0.166 F 
ATOM     17  C   UNL     1      34.118 -14.552 -22.109  0.00  0.00    +0.419 C 
ENDBRANCH  11  17
ENDBRANCH   2   8
BRANCH   1  18
ATOM     18  C   UNL     1      34.570 -22.850 -18.939  0.00  0.00    -0.069 C 
BRANCH  18  19
ATOM     19  C   UNL     1      34.301 -22.938 -17.421  0.00  0.00    +0.043 C 
BRANCH  19  30
ATOM     20  N   UNL     1      32.362 -23.088 -15.884  0.00  0.00    -0.302 N 
ATOM     21  N   UNL     1      30.698 -22.456 -17.135  0.00  0.00    -0.134 NA
ATOM     22  N   UNL     1      31.884 -22.425 -17.876  0.00  0.00    -0.134 NA
ATOM     23  C   UNL     1      31.540 -23.719 -13.782  0.00  0.00    +0.030 C 
ATOM     24  C   UNL     1      30.361 -23.152 -14.653  0.00  0.00    +0.061 C 
ATOM     25  C   UNL     1      31.182 -25.189 -13.521  0.00  0.00    +0.002 C 
ATOM     26  C   UNL     1      29.342 -24.282 -14.747  0.00  0.00    +0.008 C 
ATOM     27  C   UNL     1      32.845 -23.534 -14.600  0.00  0.00    +0.109 C 
ATOM     28  C   UNL     1      30.164 -25.555 -14.591  0.00  0.00    +0.001 C 
ATOM     29  C   UNL     1      31.028 -22.865 -15.937  0.00  0.00    +0.143 A 
ATOM     30  C   UNL     1      32.873 -22.813 -17.089  0.00  0.00    +0.141 A 
ENDBRANCH  19  30
ENDBRANCH  18  19
ENDBRANCH   1  18
TORSDOF 5
ENDMDL
MODEL 7
REMARK VINA RESULT:     -11.4      5.212     11.784
REMARK  Name = 20055414
REMARK  5 active torsions:
REMARK  status: ('A' for Active; 'I' for Inactive)
REMARK    1  A    between atoms: N_1  and  C_18
REMARK    2  A    between atoms: N_2  and  C_8
REMARK    3  A    between atoms: C_11  and  C_17
REMARK    4  A    between atoms: C_18  and  C_19
REMARK    5  A    between atoms: C_19  and  C_30
REMARK                            x       y       z     vdW  Elec       q    Type
REMARK                         _______ _______ _______ _____ _____    ______ ____
ROOT
ATOM      1  N   UNL     1      34.257 -15.343 -23.169  0.00  0.00    +0.390 N 
ATOM      2  N   UNL     1      34.912 -17.756 -21.787  0.00  0.00    -0.312 N 
ATOM      3  C   UNL     1      34.243 -16.632 -23.873  0.00  0.00    -0.055 C 
ATOM      4  C   UNL     1      33.847 -15.534 -21.773  0.00  0.00    -0.055 C 
ATOM      5  C   UNL     1      35.201 -17.628 -23.219  0.00  0.00    +0.068 C 
ATOM      6  C   UNL     1      34.793 -16.492 -21.047  0.00  0.00    +0.068 C 
ATOM      7  H   UNL     1      35.206 -14.971 -23.186  0.00  0.00    -0.080 HD
ENDROOT
BRANCH   2   8
ATOM      8  C   UNL     1      35.348 -18.887 -21.089  0.00  0.00    +0.048 C 
ATOM      9  C   UNL     1      34.418 -19.770 -20.538  0.00  0.00    +0.018 C 
ATOM     10  C   UNL     1      36.714 -19.134 -20.943  0.00  0.00    +0.015 C 
ATOM     11  C   UNL     1      34.854 -20.896 -19.842  0.00  0.00    +0.073 C 
ATOM     12  C   UNL     1      37.149 -20.261 -20.246  0.00  0.00    +0.001 C 
ATOM     13  C   UNL     1      36.219 -21.143 -19.696  0.00  0.00    +0.004 C 
BRANCH  11  17
ATOM     14  F   UNL     1      34.143 -22.199 -17.966  0.00  0.00    -0.166 F 
ATOM     15  F   UNL     1      32.589 -21.339 -19.211  0.00  0.00    -0.166 F 
ATOM     16  F   UNL     1      33.769 -23.009 -19.949  0.00  0.00    -0.166 F 
ATOM     17  C   UNL     1      33.860 -21.839 -19.253  0.00  0.00    +0.419 C 
ENDBRANCH  11  17
ENDBRANCH   2   8
BRANCH   1  18
ATOM     18  C   UNL     1      33.378 -14.384 -23.837  0.00  0.00    -0.069 C 
BRANCH  18  19
ATOM     19  C   UNL     1      33.879 -12.930 -23.692  0.00  0.00    +0.043 C 
BRANCH  19  30
ATOM     20  N   UNL     1      32.837 -10.717 -23.290  0.00  0.00    -0.302 N 
ATOM     21  N   UNL     1      31.166 -11.195 -21.981  0.00  0.00    -0.134 NA
ATOM     22  N   UNL     1      31.864 -12.364 -22.301  0.00  0.00    -0.134 NA
ATOM     23  C   UNL     1      32.939  -8.394 -23.580  0.00  0.00    +0.030 C 
ATOM     24  C   UNL     1      31.667  -8.757 -22.732  0.00  0.00    +0.061 C 
ATOM     25  C   UNL     1      33.823  -7.554 -22.648  0.00  0.00    +0.002 C 
ATOM     26  C   UNL     1      31.832  -8.016 -21.410  0.00  0.00    +0.008 C 
ATOM     27  C   UNL     1      33.594  -9.730 -24.020  0.00  0.00    +0.109 C 
ATOM     28  C   UNL     1      33.338  -7.864 -21.240  0.00  0.00    +0.001 C 
ATOM     29  C   UNL     1      31.787 -10.221 -22.595  0.00  0.00    +0.143 A 
ATOM     30  C   UNL     1      32.871 -12.040 -23.095  0.00  0.00    +0.141 A 
ENDBRANCH  19  30
ENDBRANCH  18  19
ENDBRANCH   1  18
TORSDOF 5
ENDMDL
MODEL 8
REMARK VINA RESULT:     -11.4      1.568      2.555
REMARK  Name = 20055414
REMARK  5 active torsions:
REMARK  status: ('A' for Active; 'I' for Inactive)
REMARK    1  A    between atoms: N_1  and  C_18
REMARK    2  A    between atoms: N_2  and  C_8
REMARK    3  A    between atoms: C_11  and  C_17
REMARK    4  A    between atoms: C_18  and  C_19
REMARK    5  A    between atoms: C_19  and  C_30
REMARK                            x       y       z     vdW  Elec       q    Type
REMARK                         _______ _______ _______ _____ _____    ______ ____
ROOT
ATOM      1  N   UNL     1      34.085 -21.972 -19.432  0.00  0.00    +0.390 N 
ATOM      2  N   UNL     1      34.421 -19.599 -20.986  0.00  0.00    -0.312 N 
ATOM      3  C   UNL     1      35.393 -21.308 -19.503  0.00  0.00    -0.055 C 
ATOM      4  C   UNL     1      33.013 -20.972 -19.500  0.00  0.00    -0.055 C 
ATOM      5  C   UNL     1      35.543 -20.526 -20.809  0.00  0.00    +0.068 C 
ATOM      6  C   UNL     1      33.083 -20.180 -20.807  0.00  0.00    +0.068 C 
ATOM      7  H   UNL     1      33.996 -22.606 -20.226  0.00  0.00    -0.080 HD
ENDROOT
BRANCH   2   8
ATOM      8  C   UNL     1      34.553 -18.506 -21.850  0.00  0.00    +0.048 C 
ATOM      9  C   UNL     1      34.333 -17.212 -21.376  0.00  0.00    +0.018 C 
ATOM     10  C   UNL     1      34.903 -18.710 -23.185  0.00  0.00    +0.015 C 
ATOM     11  C   UNL     1      34.465 -16.124 -22.237  0.00  0.00    +0.073 C 
ATOM     12  C   UNL     1      35.035 -17.620 -24.046  0.00  0.00    +0.001 C 
ATOM     13  C   UNL     1      34.815 -16.327 -23.572  0.00  0.00    +0.004 C 
BRANCH  11  17
ATOM     14  F   UNL     1      34.568 -13.765 -22.627  0.00  0.00    -0.166 F 
ATOM     15  F   UNL     1      32.925 -14.490 -21.410  0.00  0.00    -0.166 F 
ATOM     16  F   UNL     1      34.944 -14.465 -20.603  0.00  0.00    -0.166 F 
ATOM     17  C   UNL     1      34.230 -14.740 -21.732  0.00  0.00    +0.419 C 
ENDBRANCH  11  17
ENDBRANCH   2   8
BRANCH   1  18
ATOM     18  C   UNL     1      33.976 -22.760 -18.204  0.00  0.00    -0.069 C 
BRANCH  18  19
ATOM     19  C   UNL     1      35.133 -22.478 -17.221  0.00  0.00    +0.043 C 
BRANCH  19  30
ATOM     20  N   UNL     1      36.154 -23.650 -15.290  0.00  0.00    -0.302 N 
ATOM     21  N   UNL     1      34.449 -24.625 -14.354  0.00  0.00    -0.134 NA
ATOM     22  N   UNL     1      34.025 -23.911 -15.480  0.00  0.00    -0.134 NA
ATOM     23  C   UNL     1      38.105 -24.261 -14.145  0.00  0.00    +0.030 C 
ATOM     24  C   UNL     1      36.857 -24.866 -13.406  0.00  0.00    +0.061 C 
ATOM     25  C   UNL     1      38.917 -25.471 -14.628  0.00  0.00    +0.002 C 
ATOM     26  C   UNL     1      37.076 -26.375 -13.403  0.00  0.00    +0.008 C 
ATOM     27  C   UNL     1      37.569 -23.373 -15.298  0.00  0.00    +0.109 C 
ATOM     28  C   UNL     1      37.944 -26.641 -14.625  0.00  0.00    +0.001 C 
ATOM     29  C   UNL     1      35.741 -24.445 -14.276  0.00  0.00    +0.143 A 
ATOM     30  C   UNL     1      35.082 -23.332 -16.025  0.00  0.00    +0.141 A 
ENDBRANCH  19  30
ENDBRANCH  18  19
ENDBRANCH   1  18
TORSDOF 5
ENDMDL
MODEL 9
REMARK VINA RESULT:     -11.1      1.934      2.598
REMARK  Name = 20055414
REMARK  5 active torsions:
REMARK  status: ('A' for Active; 'I' for Inactive)
REMARK    1  A    between atoms: N_1  and  C_18
REMARK    2  A    between atoms: N_2  and  C_8
REMARK    3  A    between atoms: C_11  and  C_17
REMARK    4  A    between atoms: C_18  and  C_19
REMARK    5  A    between atoms: C_19  and  C_30
REMARK                            x       y       z     vdW  Elec       q    Type
REMARK                         _______ _______ _______ _____ _____    ______ ____
ROOT
ATOM      1  N   UNL     1      35.339 -20.534 -19.545  0.00  0.00    +0.390 N 
ATOM      2  N   UNL     1      34.901 -18.903 -21.848  0.00  0.00    -0.312 N 
ATOM      3  C   UNL     1      34.088 -20.642 -20.306  0.00  0.00    -0.055 C 
ATOM      4  C   UNL     1      36.449 -20.216 -20.451  0.00  0.00    -0.055 C 
ATOM      5  C   UNL     1      33.766 -19.331 -21.025  0.00  0.00    +0.068 C 
ATOM      6  C   UNL     1      36.206 -18.890 -21.174  0.00  0.00    +0.068 C 
ATOM      7  H   UNL     1      35.244 -19.781 -18.863  0.00  0.00    -0.080 HD
ENDROOT
BRANCH   2   8
ATOM      8  C   UNL     1      34.696 -18.003 -22.900  0.00  0.00    +0.048 C 
ATOM      9  C   UNL     1      34.407 -16.665 -22.628  0.00  0.00    +0.018 C 
ATOM     10  C   UNL     1      34.779 -18.443 -24.221  0.00  0.00    +0.015 C 
ATOM     11  C   UNL     1      34.203 -15.769 -23.676  0.00  0.00    +0.073 C 
ATOM     12  C   UNL     1      34.575 -17.546 -25.270  0.00  0.00    +0.001 C 
ATOM     13  C   UNL     1      34.287 -16.210 -24.998  0.00  0.00    +0.004 C 
BRANCH  11  17
ATOM     14  F   UNL     1      32.580 -14.112 -23.092  0.00  0.00    -0.166 F 
ATOM     15  F   UNL     1      34.589 -13.835 -22.323  0.00  0.00    -0.166 F 
ATOM     16  F   UNL     1      34.183 -13.516 -24.436  0.00  0.00    -0.166 F 
ATOM     17  C   UNL     1      33.894 -14.339 -23.386  0.00  0.00    +0.419 C 
ENDBRANCH  11  17
ENDBRANCH   2   8
BRANCH   1  18
ATOM     18  C   UNL     1      35.607 -21.775 -18.819  0.00  0.00    -0.069 C 
BRANCH  18  19
ATOM     19  C   UNL     1      34.322 -22.591 -18.558  0.00  0.00    +0.043 C 
BRANCH  19  30
ATOM     20  N   UNL     1      33.098 -23.451 -16.582  0.00  0.00    -0.302 N 
ATOM     21  N   UNL     1      34.683 -23.776 -15.128  0.00  0.00    -0.134 NA
ATOM     22  N   UNL     1      35.228 -23.282 -16.318  0.00  0.00    -0.134 NA
ATOM     23  C   UNL     1      31.034 -23.924 -15.577  0.00  0.00    +0.030 C 
ATOM     24  C   UNL     1      32.193 -24.268 -14.572  0.00  0.00    +0.061 C 
ATOM     25  C   UNL     1      30.240 -22.792 -14.911  0.00  0.00    +0.002 C 
ATOM     26  C   UNL     1      31.937 -23.403 -13.343  0.00  0.00    +0.008 C 
ATOM     27  C   UNL     1      31.697 -23.513 -16.918  0.00  0.00    +0.109 C 
ATOM     28  C   UNL     1      31.180 -22.193 -13.874  0.00  0.00    +0.001 C 
ATOM     29  C   UNL     1      33.394 -23.862 -15.327  0.00  0.00    +0.143 A 
ATOM     30  C   UNL     1      34.241 -23.095 -17.178  0.00  0.00    +0.141 A 
ENDBRANCH  19  30
ENDBRANCH  18  19
ENDBRANCH   1  18
TORSDOF 5
ENDMDL
