MODEL 1
REMARK VINA RESULT:      -7.5      0.000      0.000
REMARK  Name = 6419228
REMARK  9 active torsions:
REMARK  status: ('A' for Active; 'I' for Inactive)
REMARK    1  A    between atoms: C_1  and  S_3
REMARK    2  A    between atoms: C_1  and  CA_6
REMARK    3  A    between atoms: C_1  and  C_17
REMARK    4  A    between atoms: CA_6  and  C_8
REMARK    5  A    between atoms: CA_6  and  N_11
REMARK    6  A    between atoms: C_8  and  O_9
REMARK    7  A    between atoms: N_11  and  C_13
REMARK    8  A    between atoms: C_14  and  C_16
REMARK    9  A    between atoms: C_17  and  N_18
REMARK                            x       y       z     vdW  Elec       q    Type
REMARK                         _______ _______ _______ _____ _____    ______ ____
ROOT
ATOM      1  C   UNL     1      38.128 -25.531 -14.285  0.00  0.00    +0.155 C 
ATOM      2  C   UNL     1      37.736 -26.811 -15.044  0.00  0.00    +0.027 C 
ENDROOT
BRANCH   1   3
ATOM      3  S   UNL     1      39.767 -25.018 -14.893  0.00  0.00    -0.018 S 
ATOM      4  O   UNL     1      40.503 -24.624 -13.724  0.00  0.00    -0.078 OA
ATOM      5  O   UNL     1      40.199 -26.075 -15.765  0.00  0.00    -0.078 OA
ENDBRANCH   1   3
BRANCH   1   6
ATOM      6  CA  UNL     1      37.147 -24.352 -14.583  0.00  0.00    +0.191 C 
BRANCH   6   8
ATOM      7  OXT UNL     1      35.288 -24.926 -16.050  0.00  0.00    -0.248 OA
ATOM      8  C   UNL     1      35.733 -24.804 -14.916  0.00  0.00    +0.334 C 
BRANCH   8   9
ATOM      9  O   UNL     1      34.993 -25.059 -13.806  0.00  0.00    -0.479 OA
ATOM     10  H   UNL     1      35.406 -25.388 -13.032  0.00  0.00    +0.295 HD
ENDBRANCH   8   9
ENDBRANCH   6   8
BRANCH   6  11
ATOM     11  N   UNL     1      37.609 -23.553 -15.706  0.00  0.00    -0.323 N 
ATOM     12  H   UNL     1      37.959 -24.019 -16.500  0.00  0.00    +0.147 HD
BRANCH  11  13
ATOM     13  C   UNL     1      37.585 -22.202 -15.714  0.00  0.00    +0.062 C 
ATOM     14  C   UNL     1      37.141 -21.407 -16.692  0.00  0.00    +0.061 C 
BRANCH  14  16
ATOM     15  O   UNL     1      35.454 -22.416 -18.005  0.00  0.00    -0.283 OA
ATOM     16  C   UNL     1      36.609 -22.016 -17.926  0.00  0.00    +0.236 C 
ENDBRANCH  14  16
ENDBRANCH  11  13
ENDBRANCH   6  11
ENDBRANCH   1   6
BRANCH   1  17
ATOM     17  C   UNL     1      38.201 -25.771 -12.746  0.00  0.00    +0.142 C 
BRANCH  17  18
ATOM     18  N   UNL     1      37.280 -25.010 -11.904  0.00  0.00    -0.189 N 
ATOM     19  N   UNL     1      36.232 -25.617 -11.350  0.00  0.00    -0.073 NA
ATOM     20  N   UNL     1      35.583 -24.690 -10.654  0.00  0.00    -0.129 NA
ATOM     21  C   UNL     1      37.355 -23.699 -11.599  0.00  0.00    +0.108 C 
ATOM     22  C   UNL     1      36.258 -23.509 -10.796  0.00  0.00    +0.141 C 
ENDBRANCH  17  18
ENDBRANCH   1  17
TORSDOF 9
ENDMDL
MODEL 2
REMARK VINA RESULT:      -7.3      3.010      4.405
REMARK  Name = 6419228
REMARK  9 active torsions:
REMARK  status: ('A' for Active; 'I' for Inactive)
REMARK    1  A    between atoms: C_1  and  S_3
REMARK    2  A    between atoms: C_1  and  CA_6
REMARK    3  A    between atoms: C_1  and  C_17
REMARK    4  A    between atoms: CA_6  and  C_8
REMARK    5  A    between atoms: CA_6  and  N_11
REMARK    6  A    between atoms: C_8  and  O_9
REMARK    7  A    between atoms: N_11  and  C_13
REMARK    8  A    between atoms: C_14  and  C_16
REMARK    9  A    between atoms: C_17  and  N_18
REMARK                            x       y       z     vdW  Elec       q    Type
REMARK                         _______ _______ _______ _____ _____    ______ ____
ROOT
ATOM      1  C   UNL     1      36.482 -24.531 -12.902  0.00  0.00    +0.155 C 
ATOM      2  C   UNL     1      37.201 -23.357 -13.591  0.00  0.00    +0.027 C 
ENDROOT
BRANCH   1   3
ATOM      3  S   UNL     1      35.863 -23.925 -11.300  0.00  0.00    -0.018 S 
ATOM      4  O   UNL     1      35.253 -25.063 -10.670  0.00  0.00    -0.078 OA
ATOM      5  O   UNL     1      36.959 -23.206 -10.713  0.00  0.00    -0.078 OA
ENDBRANCH   1   3
BRANCH   1   6
ATOM      6  CA  UNL     1      35.238 -25.011 -13.715  0.00  0.00    +0.191 C 
BRANCH   6   8
ATOM      7  OXT UNL     1      35.311 -24.187 -16.006  0.00  0.00    -0.248 OA
ATOM      8  C   UNL     1      35.485 -25.103 -15.213  0.00  0.00    +0.334 C 
BRANCH   8   9
ATOM      9  O   UNL     1      35.921 -26.332 -15.595  0.00  0.00    -0.479 OA
ATOM     10  H   UNL     1      35.303 -27.004 -15.804  0.00  0.00    +0.295 HD
ENDBRANCH   8   9
ENDBRANCH   6   8
BRANCH   6  11
ATOM     11  N   UNL     1      34.109 -24.115 -13.528  0.00  0.00    -0.323 N 
ATOM     12  H   UNL     1      34.288 -23.152 -13.426  0.00  0.00    +0.147 HD
BRANCH  11  13
ATOM     13  C   UNL     1      32.826 -24.537 -13.487  0.00  0.00    +0.062 C 
ATOM     14  C   UNL     1      31.817 -24.134 -14.266  0.00  0.00    +0.061 C 
BRANCH  14  16
ATOM     15  O   UNL     1      32.088 -23.394 -16.494  0.00  0.00    -0.283 OA
ATOM     16  C   UNL     1      32.071 -23.115 -15.302  0.00  0.00    +0.236 C 
ENDBRANCH  14  16
ENDBRANCH  11  13
ENDBRANCH   6  11
ENDBRANCH   1   6
BRANCH   1  17
ATOM     17  C   UNL     1      37.443 -25.735 -12.662  0.00  0.00    +0.142 C 
BRANCH  17  18
ATOM     18  N   UNL     1      38.633 -25.824 -13.507  0.00  0.00    -0.189 N 
ATOM     19  N   UNL     1      38.674 -26.707 -14.503  0.00  0.00    -0.073 NA
ATOM     20  N   UNL     1      39.860 -26.564 -15.085  0.00  0.00    -0.129 NA
ATOM     21  C   UNL     1      39.759 -25.089 -13.402  0.00  0.00    +0.108 C 
ATOM     22  C   UNL     1      40.536 -25.577 -14.423  0.00  0.00    +0.141 C 
ENDBRANCH  17  18
ENDBRANCH   1  17
TORSDOF 9
ENDMDL
MODEL 3
REMARK VINA RESULT:      -7.3      2.740      5.133
REMARK  Name = 6419228
REMARK  9 active torsions:
REMARK  status: ('A' for Active; 'I' for Inactive)
REMARK    1  A    between atoms: C_1  and  S_3
REMARK    2  A    between atoms: C_1  and  CA_6
REMARK    3  A    between atoms: C_1  and  C_17
REMARK    4  A    between atoms: CA_6  and  C_8
REMARK    5  A    between atoms: CA_6  and  N_11
REMARK    6  A    between atoms: C_8  and  O_9
REMARK    7  A    between atoms: N_11  and  C_13
REMARK    8  A    between atoms: C_14  and  C_16
REMARK    9  A    between atoms: C_17  and  N_18
REMARK                            x       y       z     vdW  Elec       q    Type
REMARK                         _______ _______ _______ _____ _____    ______ ____
ROOT
ATOM      1  C   UNL     1      35.786 -24.287 -14.261  0.00  0.00    +0.155 C 
ATOM      2  C   UNL     1      34.450 -25.012 -14.503  0.00  0.00    +0.027 C 
ENDROOT
BRANCH   1   3
ATOM      3  S   UNL     1      36.144 -24.387 -12.477  0.00  0.00    -0.018 S 
ATOM      4  O   UNL     1      36.735 -23.123 -12.134  0.00  0.00    -0.078 OA
ATOM      5  O   UNL     1      34.934 -24.868 -11.871  0.00  0.00    -0.078 OA
ENDBRANCH   1   3
BRANCH   1   6
ATOM      6  CA  UNL     1      36.971 -24.987 -14.998  0.00  0.00    +0.191 C 
BRANCH   6   8
ATOM      7  OXT UNL     1      37.131 -27.183 -13.954  0.00  0.00    -0.248 OA
ATOM      8  C   UNL     1      36.908 -26.506 -14.950  0.00  0.00    +0.334 C 
BRANCH   8   9
ATOM      9  O   UNL     1      36.579 -27.053 -16.149  0.00  0.00    -0.479 OA
ATOM     10  H   UNL     1      37.183 -27.012 -16.864  0.00  0.00    +0.295 HD
ENDBRANCH   8   9
ENDBRANCH   6   8
BRANCH   6  11
ATOM     11  N   UNL     1      38.251 -24.600 -14.426  0.00  0.00    -0.323 N 
ATOM     12  H   UNL     1      38.298 -24.432 -13.457  0.00  0.00    +0.147 HD
BRANCH  11  13
ATOM     13  C   UNL     1      39.378 -24.458 -15.158  0.00  0.00    +0.062 C 
ATOM     14  C   UNL     1      40.459 -25.244 -15.138  0.00  0.00    +0.061 C 
BRANCH  14  16
ATOM     15  O   UNL     1      41.531 -26.949 -13.901  0.00  0.00    -0.283 OA
ATOM     16  C   UNL     1      40.483 -26.410 -14.235  0.00  0.00    +0.236 C 
ENDBRANCH  14  16
ENDBRANCH  11  13
ENDBRANCH   6  11
ENDBRANCH   1   6
BRANCH   1  17
ATOM     17  C   UNL     1      35.716 -22.790 -14.690  0.00  0.00    +0.142 C 
BRANCH  17  18
ATOM     18  N   UNL     1      35.941 -22.486 -16.102  0.00  0.00    -0.189 N 
ATOM     19  N   UNL     1      35.038 -22.851 -17.011  0.00  0.00    -0.073 NA
ATOM     20  N   UNL     1      35.507 -22.452 -18.189  0.00  0.00    -0.129 NA
ATOM     21  C   UNL     1      37.005 -21.852 -16.636  0.00  0.00    +0.108 C 
ATOM     22  C   UNL     1      36.710 -21.838 -17.977  0.00  0.00    +0.141 C 
ENDBRANCH  17  18
ENDBRANCH   1  17
TORSDOF 9
ENDMDL
MODEL 4
REMARK VINA RESULT:      -7.0      2.858      4.185
REMARK  Name = 6419228
REMARK  9 active torsions:
REMARK  status: ('A' for Active; 'I' for Inactive)
REMARK    1  A    between atoms: C_1  and  S_3
REMARK    2  A    between atoms: C_1  and  CA_6
REMARK    3  A    between atoms: C_1  and  C_17
REMARK    4  A    between atoms: CA_6  and  C_8
REMARK    5  A    between atoms: CA_6  and  N_11
REMARK    6  A    between atoms: C_8  and  O_9
REMARK    7  A    between atoms: N_11  and  C_13
REMARK    8  A    between atoms: C_14  and  C_16
REMARK    9  A    between atoms: C_17  and  N_18
REMARK                            x       y       z     vdW  Elec       q    Type
REMARK                         _______ _______ _______ _____ _____    ______ ____
ROOT
ATOM      1  C   UNL     1      36.158 -24.822 -14.348  0.00  0.00    +0.155 C 
ATOM      2  C   UNL     1      35.454 -25.652 -15.436  0.00  0.00    +0.027 C 
ENDROOT
BRANCH   1   3
ATOM      3  S   UNL     1      37.188 -23.580 -15.193  0.00  0.00    -0.018 S 
ATOM      4  O   UNL     1      36.463 -23.226 -16.382  0.00  0.00    -0.078 OA
ATOM      5  O   UNL     1      37.537 -22.621 -14.183  0.00  0.00    -0.078 OA
ENDBRANCH   1   3
BRANCH   1   6
ATOM      6  CA  UNL     1      35.139 -24.036 -13.463  0.00  0.00    +0.191 C 
BRANCH   6   8
ATOM      7  OXT UNL     1      34.931 -24.949 -11.213  0.00  0.00    -0.248 OA
ATOM      8  C   UNL     1      35.429 -24.127 -11.972  0.00  0.00    +0.334 C 
BRANCH   8   9
ATOM      9  O   UNL     1      36.309 -23.181 -11.554  0.00  0.00    -0.479 OA
ATOM     10  H   UNL     1      36.182 -22.284 -11.793  0.00  0.00    +0.295 HD
ENDBRANCH   8   9
ENDBRANCH   6   8
BRANCH   6  11
ATOM     11  N   UNL     1      33.784 -24.524 -13.659  0.00  0.00    -0.323 N 
ATOM     12  H   UNL     1      33.659 -25.462 -13.933  0.00  0.00    +0.147 HD
BRANCH  11  13
ATOM     13  C   UNL     1      32.687 -23.755 -13.485  0.00  0.00    +0.062 C 
ATOM     14  C   UNL     1      31.883 -23.267 -14.435  0.00  0.00    +0.061 C 
BRANCH  14  16
ATOM     15  O   UNL     1      33.210 -23.194 -16.389  0.00  0.00    -0.283 OA
ATOM     16  C   UNL     1      32.177 -23.568 -15.849  0.00  0.00    +0.236 C 
ENDBRANCH  14  16
ENDBRANCH  11  13
ENDBRANCH   6  11
ENDBRANCH   1   6
BRANCH   1  17
ATOM     17  C   UNL     1      37.061 -25.710 -13.440  0.00  0.00    +0.142 C 
BRANCH  17  18
ATOM     18  N   UNL     1      38.464 -25.856 -13.825  0.00  0.00    -0.189 N 
ATOM     19  N   UNL     1      38.811 -26.768 -14.732  0.00  0.00    -0.073 NA
ATOM     20  N   UNL     1      40.129 -26.675 -14.875  0.00  0.00    -0.129 NA
ATOM     21  C   UNL     1      39.512 -25.150 -13.355  0.00  0.00    +0.108 C 
ATOM     22  C   UNL     1      40.573 -25.688 -14.038  0.00  0.00    +0.141 C 
ENDBRANCH  17  18
ENDBRANCH   1  17
TORSDOF 9
ENDMDL
MODEL 5
REMARK VINA RESULT:      -7.0      3.344      4.485
REMARK  Name = 6419228
REMARK  9 active torsions:
REMARK  status: ('A' for Active; 'I' for Inactive)
REMARK    1  A    between atoms: C_1  and  S_3
REMARK    2  A    between atoms: C_1  and  CA_6
REMARK    3  A    between atoms: C_1  and  C_17
REMARK    4  A    between atoms: CA_6  and  C_8
REMARK    5  A    between atoms: CA_6  and  N_11
REMARK    6  A    between atoms: C_8  and  O_9
REMARK    7  A    between atoms: N_11  and  C_13
REMARK    8  A    between atoms: C_14  and  C_16
REMARK    9  A    between atoms: C_17  and  N_18
REMARK                            x       y       z     vdW  Elec       q    Type
REMARK                         _______ _______ _______ _____ _____    ______ ____
ROOT
ATOM      1  C   UNL     1      34.970 -23.669 -14.869  0.00  0.00    +0.155 C 
ATOM      2  C   UNL     1      35.132 -25.128 -15.331  0.00  0.00    +0.027 C 
ENDROOT
BRANCH   1   3
ATOM      3  S   UNL     1      35.703 -22.606 -16.155  0.00  0.00    -0.018 S 
ATOM      4  O   UNL     1      37.123 -22.673 -15.942  0.00  0.00    -0.078 OA
ATOM      5  O   UNL     1      35.083 -23.010 -17.385  0.00  0.00    -0.078 OA
ENDBRANCH   1   3
BRANCH   1   6
ATOM      6  CA  UNL     1      33.468 -23.259 -14.749  0.00  0.00    +0.191 C 
BRANCH   6   8
ATOM      7  OXT UNL     1      32.589 -24.998 -13.286  0.00  0.00    -0.248 OA
ATOM      8  C   UNL     1      32.782 -23.809 -13.508  0.00  0.00    +0.334 C 
BRANCH   8   9
ATOM      9  O   UNL     1      32.390 -22.830 -12.651  0.00  0.00    -0.479 OA
ATOM     10  H   UNL     1      31.517 -22.827 -12.311  0.00  0.00    +0.295 HD
ENDBRANCH   8   9
ENDBRANCH   6   8
BRANCH   6  11
ATOM     11  N   UNL     1      32.701 -23.722 -15.894  0.00  0.00    -0.323 N 
ATOM     12  H   UNL     1      32.872 -24.630 -16.235  0.00  0.00    +0.147 HD
BRANCH  11  13
ATOM     13  C   UNL     1      31.766 -22.969 -16.514  0.00  0.00    +0.062 C 
ATOM     14  C   UNL     1      30.439 -23.052 -16.375  0.00  0.00    +0.061 C 
BRANCH  14  16
ATOM     15  O   UNL     1      30.088 -25.257 -15.601  0.00  0.00    -0.283 OA
ATOM     16  C   UNL     1      29.874 -24.060 -15.459  0.00  0.00    +0.236 C 
ENDBRANCH  14  16
ENDBRANCH  11  13
ENDBRANCH   6  11
ENDBRANCH   1   6
BRANCH   1  17
ATOM     17  C   UNL     1      35.691 -23.409 -13.512  0.00  0.00    +0.142 C 
BRANCH  17  18
ATOM     18  N   UNL     1      36.537 -24.479 -12.986  0.00  0.00    -0.189 N 
ATOM     19  N   UNL     1      36.049 -25.327 -12.082  0.00  0.00    -0.073 NA
ATOM     20  N   UNL     1      37.031 -26.174 -11.791  0.00  0.00    -0.129 NA
ATOM     21  C   UNL     1      37.821 -24.733 -13.313  0.00  0.00    +0.108 C 
ATOM     22  C   UNL     1      38.123 -25.824 -12.537  0.00  0.00    +0.141 C 
ENDBRANCH  17  18
ENDBRANCH   1  17
TORSDOF 9
ENDMDL
MODEL 6
REMARK VINA RESULT:      -6.8      2.897      4.708
REMARK  Name = 6419228
REMARK  9 active torsions:
REMARK  status: ('A' for Active; 'I' for Inactive)
REMARK    1  A    between atoms: C_1  and  S_3
REMARK    2  A    between atoms: C_1  and  CA_6
REMARK    3  A    between atoms: C_1  and  C_17
REMARK    4  A    between atoms: CA_6  and  C_8
REMARK    5  A    between atoms: CA_6  and  N_11
REMARK    6  A    between atoms: C_8  and  O_9
REMARK    7  A    between atoms: N_11  and  C_13
REMARK    8  A    between atoms: C_14  and  C_16
REMARK    9  A    between atoms: C_17  and  N_18
REMARK                            x       y       z     vdW  Elec       q    Type
REMARK                         _______ _______ _______ _____ _____    ______ ____
ROOT
ATOM      1  C   UNL     1      35.907 -24.055 -14.758  0.00  0.00    +0.155 C 
ATOM      2  C   UNL     1      36.086 -23.550 -13.315  0.00  0.00    +0.027 C 
ENDROOT
BRANCH   1   3
ATOM      3  S   UNL     1      35.892 -22.595 -15.847  0.00  0.00    -0.018 S 
ATOM      4  O   UNL     1      37.201 -22.014 -15.725  0.00  0.00    -0.078 OA
ATOM      5  O   UNL     1      35.361 -23.056 -17.099  0.00  0.00    -0.078 OA
ENDBRANCH   1   3
BRANCH   1   6
ATOM      6  CA  UNL     1      37.103 -24.948 -15.217  0.00  0.00    +0.191 C 
BRANCH   6   8
ATOM      7  OXT UNL     1      36.866 -26.959 -13.862  0.00  0.00    -0.248 OA
ATOM      8  C   UNL     1      36.887 -26.433 -14.967  0.00  0.00    +0.334 C 
BRANCH   8   9
ATOM      9  O   UNL     1      36.723 -27.136 -16.118  0.00  0.00    -0.479 OA
ATOM     10  H   UNL     1      37.375 -27.754 -16.387  0.00  0.00    +0.295 HD
ENDBRANCH   8   9
ENDBRANCH   6   8
BRANCH   6  11
ATOM     11  N   UNL     1      38.330 -24.579 -14.530  0.00  0.00    -0.323 N 
ATOM     12  H   UNL     1      38.293 -24.418 -13.559  0.00  0.00    +0.147 HD
BRANCH  11  13
ATOM     13  C   UNL     1      39.519 -24.445 -15.158  0.00  0.00    +0.062 C 
ATOM     14  C   UNL     1      40.593 -25.229 -15.031  0.00  0.00    +0.061 C 
BRANCH  14  16
ATOM     15  O   UNL     1      41.510 -27.096 -13.906  0.00  0.00    -0.283 OA
ATOM     16  C   UNL     1      40.535 -26.386 -14.116  0.00  0.00    +0.236 C 
ENDBRANCH  14  16
ENDBRANCH  11  13
ENDBRANCH   6  11
ENDBRANCH   1   6
BRANCH   1  17
ATOM     17  C   UNL     1      34.573 -24.842 -14.933  0.00  0.00    +0.142 C 
BRANCH  17  18
ATOM     18  N   UNL     1      33.349 -24.204 -14.450  0.00  0.00    -0.189 N 
ATOM     19  N   UNL     1      32.794 -24.612 -13.310  0.00  0.00    -0.073 NA
ATOM     20  N   UNL     1      31.709 -23.865 -13.130  0.00  0.00    -0.129 NA
ATOM     21  C   UNL     1      32.668 -23.202 -15.042  0.00  0.00    +0.108 C 
ATOM     22  C   UNL     1      31.619 -22.997 -14.182  0.00  0.00    +0.141 C 
ENDBRANCH  17  18
ENDBRANCH   1  17
TORSDOF 9
ENDMDL
MODEL 7
REMARK VINA RESULT:      -6.8      5.349      7.045
REMARK  Name = 6419228
REMARK  9 active torsions:
REMARK  status: ('A' for Active; 'I' for Inactive)
REMARK    1  A    between atoms: C_1  and  S_3
REMARK    2  A    between atoms: C_1  and  CA_6
REMARK    3  A    between atoms: C_1  and  C_17
REMARK    4  A    between atoms: CA_6  and  C_8
REMARK    5  A    between atoms: CA_6  and  N_11
REMARK    6  A    between atoms: C_8  and  O_9
REMARK    7  A    between atoms: N_11  and  C_13
REMARK    8  A    between atoms: C_14  and  C_16
REMARK    9  A    between atoms: C_17  and  N_18
REMARK                            x       y       z     vdW  Elec       q    Type
REMARK                         _______ _______ _______ _____ _____    ______ ____
ROOT
ATOM      1  C   UNL     1      31.761 -23.781 -15.265  0.00  0.00    +0.155 C 
ATOM      2  C   UNL     1      31.010 -24.834 -16.101  0.00  0.00    +0.027 C 
ENDROOT
BRANCH   1   3
ATOM      3  S   UNL     1      32.308 -24.595 -13.730  0.00  0.00    -0.018 S 
ATOM      4  O   UNL     1      33.060 -23.600 -13.016  0.00  0.00    -0.078 OA
ATOM      5  O   UNL     1      31.133 -25.217 -13.187  0.00  0.00    -0.078 OA
ENDBRANCH   1   3
BRANCH   1   6
ATOM      6  CA  UNL     1      33.048 -23.273 -15.989  0.00  0.00    +0.191 C 
BRANCH   6   8
ATOM      7  OXT UNL     1      33.542 -24.027 -18.253  0.00  0.00    -0.248 OA
ATOM      8  C   UNL     1      32.935 -23.270 -17.506  0.00  0.00    +0.334 C 
BRANCH   8   9
ATOM      9  O   UNL     1      32.080 -22.318 -17.963  0.00  0.00    -0.479 OA
ATOM     10  H   UNL     1      32.405 -21.474 -18.207  0.00  0.00    +0.295 HD
ENDBRANCH   8   9
ENDBRANCH   6   8
BRANCH   6  11
ATOM     11  N   UNL     1      34.201 -24.093 -15.654  0.00  0.00    -0.323 N 
ATOM     12  H   UNL     1      34.067 -25.062 -15.537  0.00  0.00    +0.147 HD
BRANCH  11  13
ATOM     13  C   UNL     1      35.446 -23.593 -15.495  0.00  0.00    +0.062 C 
ATOM     14  C   UNL     1      36.548 -24.264 -15.145  0.00  0.00    +0.061 C 
BRANCH  14  16
ATOM     15  O   UNL     1      36.116 -26.505 -15.762  0.00  0.00    -0.283 OA
ATOM     16  C   UNL     1      36.456 -25.714 -14.890  0.00  0.00    +0.236 C 
ENDBRANCH  14  16
ENDBRANCH  11  13
ENDBRANCH   6  11
ENDBRANCH   1   6
BRANCH   1  17
ATOM     17  C   UNL     1      30.850 -22.568 -14.910  0.00  0.00    +0.142 C 
BRANCH  17  18
ATOM     18  N   UNL     1      29.553 -22.484 -15.580  0.00  0.00    -0.189 N 
ATOM     19  N   UNL     1      29.480 -22.028 -16.829  0.00  0.00    -0.073 NA
ATOM     20  N   UNL     1      28.195 -22.061 -17.168  0.00  0.00    -0.129 NA
ATOM     21  C   UNL     1      28.352 -22.824 -15.068  0.00  0.00    +0.108 C 
ATOM     22  C   UNL     1      27.492 -22.546 -16.101  0.00  0.00    +0.141 C 
ENDBRANCH  17  18
ENDBRANCH   1  17
TORSDOF 9
ENDMDL
MODEL 8
REMARK VINA RESULT:      -6.7      2.547      4.603
REMARK  Name = 6419228
REMARK  9 active torsions:
REMARK  status: ('A' for Active; 'I' for Inactive)
REMARK    1  A    between atoms: C_1  and  S_3
REMARK    2  A    between atoms: C_1  and  CA_6
REMARK    3  A    between atoms: C_1  and  C_17
REMARK    4  A    between atoms: CA_6  and  C_8
REMARK    5  A    between atoms: CA_6  and  N_11
REMARK    6  A    between atoms: C_8  and  O_9
REMARK    7  A    between atoms: N_11  and  C_13
REMARK    8  A    between atoms: C_14  and  C_16
REMARK    9  A    between atoms: C_17  and  N_18
REMARK                            x       y       z     vdW  Elec       q    Type
REMARK                         _______ _______ _______ _____ _____    ______ ____
ROOT
ATOM      1  C   UNL     1      37.880 -24.749 -13.641  0.00  0.00    +0.155 C 
ATOM      2  C   UNL     1      39.172 -24.805 -12.807  0.00  0.00    +0.027 C 
ENDROOT
BRANCH   1   3
ATOM      3  S   UNL     1      37.098 -26.392 -13.543  0.00  0.00    -0.018 S 
ATOM      4  O   UNL     1      37.815 -27.213 -14.479  0.00  0.00    -0.078 OA
ATOM      5  O   UNL     1      37.022 -26.697 -12.142  0.00  0.00    -0.078 OA
ENDBRANCH   1   3
BRANCH   1   6
ATOM      6  CA  UNL     1      36.853 -23.726 -13.058  0.00  0.00    +0.191 C 
BRANCH   6   8
ATOM      7  OXT UNL     1      36.942 -23.809 -10.625  0.00  0.00    -0.248 OA
ATOM      8  C   UNL     1      37.212 -23.226 -11.667  0.00  0.00    +0.334 C 
BRANCH   8   9
ATOM      9  O   UNL     1      37.872 -22.038 -11.694  0.00  0.00    -0.479 OA
ATOM     10  H   UNL     1      38.778 -22.011 -11.932  0.00  0.00    +0.295 HD
ENDBRANCH   8   9
ENDBRANCH   6   8
BRANCH   6  11
ATOM     11  N   UNL     1      35.524 -24.307 -12.967  0.00  0.00    -0.323 N 
ATOM     12  H   UNL     1      35.425 -25.276 -13.113  0.00  0.00    +0.147 HD
BRANCH  11  13
ATOM     13  C   UNL     1      34.416 -23.583 -12.692  0.00  0.00    +0.062 C 
ATOM     14  C   UNL     1      33.197 -23.740 -13.218  0.00  0.00    +0.061 C 
BRANCH  14  16
ATOM     15  O   UNL     1      31.974 -25.508 -14.201  0.00  0.00    -0.283 OA
ATOM     16  C   UNL     1      32.976 -24.805 -14.215  0.00  0.00    +0.236 C 
ENDBRANCH  14  16
ENDBRANCH  11  13
ENDBRANCH   6  11
ENDBRANCH   1   6
BRANCH   1  17
ATOM     17  C   UNL     1      38.170 -24.404 -15.133  0.00  0.00    +0.142 C 
BRANCH  17  18
ATOM     18  N   UNL     1      37.228 -23.516 -15.811  0.00  0.00    -0.189 N 
ATOM     19  N   UNL     1      35.979 -23.921 -16.037  0.00  0.00    -0.073 NA
ATOM     20  N   UNL     1      35.366 -22.922 -16.663  0.00  0.00    -0.129 NA
ATOM     21  C   UNL     1      37.472 -22.271 -16.268  0.00  0.00    +0.108 C 
ATOM     22  C   UNL     1      36.266 -21.904 -16.812  0.00  0.00    +0.141 C 
ENDBRANCH  17  18
ENDBRANCH   1  17
TORSDOF 9
ENDMDL
MODEL 9
REMARK VINA RESULT:      -6.5      8.902     11.778
REMARK  Name = 6419228
REMARK  9 active torsions:
REMARK  status: ('A' for Active; 'I' for Inactive)
REMARK    1  A    between atoms: C_1  and  S_3
REMARK    2  A    between atoms: C_1  and  CA_6
REMARK    3  A    between atoms: C_1  and  C_17
REMARK    4  A    between atoms: CA_6  and  C_8
REMARK    5  A    between atoms: CA_6  and  N_11
REMARK    6  A    between atoms: C_8  and  O_9
REMARK    7  A    between atoms: N_11  and  C_13
REMARK    8  A    between atoms: C_14  and  C_16
REMARK    9  A    between atoms: C_17  and  N_18
REMARK                            x       y       z     vdW  Elec       q    Type
REMARK                         _______ _______ _______ _____ _____    ______ ____
ROOT
ATOM      1  C   UNL     1      34.712 -17.646 -22.471  0.00  0.00    +0.155 C 
ATOM      2  C   UNL     1      36.251 -17.621 -22.441  0.00  0.00    +0.027 C 
ENDROOT
BRANCH   1   3
ATOM      3  S   UNL     1      34.127 -16.935 -20.899  0.00  0.00    -0.018 S 
ATOM      4  O   UNL     1      35.167 -16.039 -20.473  0.00  0.00    -0.078 OA
ATOM      5  O   UNL     1      32.782 -16.499 -21.152  0.00  0.00    -0.078 OA
ENDBRANCH   1   3
BRANCH   1   6
ATOM      6  CA  UNL     1      34.136 -16.750 -23.613  0.00  0.00    +0.191 C 
BRANCH   6   8
ATOM      7  OXT UNL     1      33.795 -18.308 -25.455  0.00  0.00    -0.248 OA
ATOM      8  C   UNL     1      34.359 -17.318 -25.006  0.00  0.00    +0.334 C 
BRANCH   8   9
ATOM      9  O   UNL     1      35.272 -16.607 -25.719  0.00  0.00    -0.479 OA
ATOM     10  H   UNL     1      36.187 -16.737 -25.569  0.00  0.00    +0.295 HD
ENDBRANCH   8   9
ENDBRANCH   6   8
BRANCH   6  11
ATOM     11  N   UNL     1      34.735 -15.425 -23.597  0.00  0.00    -0.323 N 
ATOM     12  H   UNL     1      35.679 -15.335 -23.864  0.00  0.00    +0.147 HD
BRANCH  11  13
ATOM     13  C   UNL     1      34.062 -14.311 -23.234  0.00  0.00    +0.062 C 
ATOM     14  C   UNL     1      33.401 -13.469 -24.034  0.00  0.00    +0.061 C 
BRANCH  14  16
ATOM     15  O   UNL     1      32.713 -14.649 -25.963  0.00  0.00    -0.283 OA
ATOM     16  C   UNL     1      33.369 -13.732 -25.485  0.00  0.00    +0.236 C 
ENDBRANCH  14  16
ENDBRANCH  11  13
ENDBRANCH   6  11
ENDBRANCH   1   6
BRANCH   1  17
ATOM     17  C   UNL     1      34.161 -19.096 -22.618  0.00  0.00    +0.142 C 
BRANCH  17  18
ATOM     18  N   UNL     1      33.969 -19.869 -21.392  0.00  0.00    -0.189 N 
ATOM     19  N   UNL     1      32.742 -20.047 -20.906  0.00  0.00    -0.073 NA
ATOM     20  N   UNL     1      32.876 -20.772 -19.800  0.00  0.00    -0.129 NA
ATOM     21  C   UNL     1      34.926 -20.456 -20.645  0.00  0.00    +0.108 C 
ATOM     22  C   UNL     1      34.207 -21.031 -19.627  0.00  0.00    +0.141 C 
ENDBRANCH  17  18
ENDBRANCH   1  17
TORSDOF 9
ENDMDL
