MODEL 1
REMARK VINA RESULT:     -10.6      0.000      0.000
REMARK  Name = 4177750
REMARK  5 active torsions:
REMARK  status: ('A' for Active; 'I' for Inactive)
REMARK    1  A    between atoms: N_3  and  C_17
REMARK    2  A    between atoms: C_8  and  N_23
REMARK    3  A    between atoms: N_23  and  C_25
REMARK    4  A    between atoms: C_25  and  C_26
REMARK    5  A    between atoms: C_26  and  O_27
REMARK                            x       y       z     vdW  Elec       q    Type
REMARK                         _______ _______ _______ _____ _____    ______ ____
ROOT
ATOM      1  O   UNL     1      34.931 -16.380 -19.915  0.00  0.00    -0.269 OA
ATOM      2  O   UNL     1      34.747 -18.871 -23.900  0.00  0.00    -0.269 OA
ATOM      3  N   UNL     1      34.883 -17.721 -21.850  0.00  0.00    -0.201 N 
ATOM      4  C   UNL     1      33.907 -15.456 -23.221  0.00  0.00    +0.010 C 
ATOM      5  C   UNL     1      33.417 -14.317 -23.910  0.00  0.00    +0.013 C 
ATOM      6  C   UNL     1      34.084 -15.389 -21.836  0.00  0.00    +0.055 C 
ATOM      7  C   UNL     1      34.200 -16.616 -23.945  0.00  0.00    +0.054 C 
ATOM      8  C   UNL     1      33.105 -13.153 -23.193  0.00  0.00    +0.045 C 
ATOM      9  C   UNL     1      34.649 -16.544 -21.101  0.00  0.00    +0.259 C 
ATOM     10  C   UNL     1      34.657 -17.836 -23.242  0.00  0.00    +0.259 C 
ATOM     11  C   UNL     1      33.766 -14.218 -21.132  0.00  0.00    +0.006 C 
ATOM     12  C   UNL     1      33.249 -14.369 -25.302  0.00  0.00    +0.001 C 
ATOM     13  C   UNL     1      33.275 -13.106 -21.812  0.00  0.00    +0.014 C 
ATOM     14  C   UNL     1      34.028 -16.650 -25.336  0.00  0.00    +0.005 C 
ATOM     15  C   UNL     1      33.557 -15.526 -26.010  0.00  0.00    +0.000 C 
ENDROOT
BRANCH   3  17
ATOM     16 BR   UNL     1      33.766 -22.194 -19.231  0.00  0.00    -0.049 Br
ATOM     17  C   UNL     1      35.384 -18.884 -21.146  0.00  0.00    +0.062 C 
ATOM     18  C   UNL     1      34.489 -19.809 -20.624  0.00  0.00    +0.022 C 
ATOM     19  C   UNL     1      36.754 -19.058 -21.002  0.00  0.00    +0.015 C 
ATOM     20  C   UNL     1      34.973 -20.928 -19.946  0.00  0.00    +0.036 C 
ATOM     21  C   UNL     1      37.239 -20.176 -20.324  0.00  0.00    +0.002 C 
ATOM     22  C   UNL     1      36.348 -21.112 -19.796  0.00  0.00    +0.007 C 
ENDBRANCH   3  17
BRANCH   8  23
ATOM     23  N   UNL     1      32.609 -11.992 -23.834  0.00  0.00    -0.331 N 
ATOM     24  H   UNL     1      31.775 -12.058 -24.354  0.00  0.00    +0.147 HD
BRANCH  23  25
ATOM     25  C   UNL     1      33.268 -10.741 -23.756  0.00  0.00    +0.119 C 
BRANCH  25  26
ATOM     26  C   UNL     1      34.443 -10.711 -24.717  0.00  0.00    +0.158 C 
BRANCH  26  27
ATOM     27  O   UNL     1      35.503  -9.956 -24.144  0.00  0.00    -0.380 OA
ATOM     28  H   UNL     1      35.203  -9.047 -23.986  0.00  0.00    +0.211 HD
ENDBRANCH  26  27
ENDBRANCH  25  26
ENDBRANCH  23  25
ENDBRANCH   8  23
TORSDOF 5
ENDMDL
MODEL 2
REMARK VINA RESULT:     -10.2      0.931      2.802
REMARK  Name = 4177750
REMARK  5 active torsions:
REMARK  status: ('A' for Active; 'I' for Inactive)
REMARK    1  A    between atoms: N_3  and  C_17
REMARK    2  A    between atoms: C_8  and  N_23
REMARK    3  A    between atoms: N_23  and  C_25
REMARK    4  A    between atoms: C_25  and  C_26
REMARK    5  A    between atoms: C_26  and  O_27
REMARK                            x       y       z     vdW  Elec       q    Type
REMARK                         _______ _______ _______ _____ _____    ______ ____
ROOT
ATOM      1  O   UNL     1      34.911 -18.965 -23.892  0.00  0.00    -0.269 OA
ATOM      2  O   UNL     1      34.786 -16.471 -19.908  0.00  0.00    -0.269 OA
ATOM      3  N   UNL     1      34.890 -17.813 -21.840  0.00  0.00    -0.201 N 
ATOM      4  C   UNL     1      33.869 -15.597 -23.259  0.00  0.00    +0.010 C 
ATOM      5  C   UNL     1      33.355 -14.484 -23.972  0.00  0.00    +0.013 C 
ATOM      6  C   UNL     1      34.253 -16.741 -23.966  0.00  0.00    +0.055 C 
ATOM      7  C   UNL     1      33.978 -15.523 -21.866  0.00  0.00    +0.054 C 
ATOM      8  C   UNL     1      33.255 -14.542 -25.370  0.00  0.00    +0.045 C 
ATOM      9  C   UNL     1      34.737 -17.936 -23.241  0.00  0.00    +0.259 C 
ATOM     10  C   UNL     1      34.565 -16.648 -21.105  0.00  0.00    +0.259 C 
ATOM     11  C   UNL     1      34.148 -16.782 -25.364  0.00  0.00    +0.006 C 
ATOM     12  C   UNL     1      32.953 -13.337 -23.270  0.00  0.00    +0.001 C 
ATOM     13  C   UNL     1      33.653 -15.683 -26.061  0.00  0.00    +0.014 C 
ATOM     14  C   UNL     1      33.571 -14.369 -21.181  0.00  0.00    +0.005 C 
ATOM     15  C   UNL     1      33.057 -13.283 -21.884  0.00  0.00    +0.000 C 
ENDROOT
BRANCH   3  17
ATOM     16 BR   UNL     1      33.864 -22.280 -19.175  0.00  0.00    -0.049 Br
ATOM     17  C   UNL     1      35.414 -18.950 -21.111  0.00  0.00    +0.062 C 
ATOM     18  C   UNL     1      34.539 -19.893 -20.590  0.00  0.00    +0.022 C 
ATOM     19  C   UNL     1      36.786 -19.080 -20.942  0.00  0.00    +0.015 C 
ATOM     20  C   UNL     1      35.045 -20.988 -19.889  0.00  0.00    +0.036 C 
ATOM     21  C   UNL     1      37.293 -20.174 -20.241  0.00  0.00    +0.002 C 
ATOM     22  C   UNL     1      36.422 -21.128 -19.713  0.00  0.00    +0.007 C 
ENDBRANCH   3  17
BRANCH   8  23
ATOM     23  N   UNL     1      32.754 -13.455 -26.127  0.00  0.00    -0.331 N 
ATOM     24  H   UNL     1      31.780 -13.311 -26.162  0.00  0.00    +0.147 HD
BRANCH  23  25
ATOM     25  C   UNL     1      33.601 -12.569 -26.836  0.00  0.00    +0.119 C 
BRANCH  25  26
ATOM     26  C   UNL     1      34.152 -11.512 -25.895  0.00  0.00    +0.158 C 
BRANCH  26  27
ATOM     27  O   UNL     1      35.278 -10.884 -26.497  0.00  0.00    -0.380 OA
ATOM     28  H   UNL     1      35.294 -11.091 -27.445  0.00  0.00    +0.211 HD
ENDBRANCH  26  27
ENDBRANCH  25  26
ENDBRANCH  23  25
ENDBRANCH   8  23
TORSDOF 5
ENDMDL
MODEL 3
REMARK VINA RESULT:     -10.1      4.494      9.796
REMARK  Name = 4177750
REMARK  5 active torsions:
REMARK  status: ('A' for Active; 'I' for Inactive)
REMARK    1  A    between atoms: N_3  and  C_17
REMARK    2  A    between atoms: C_8  and  N_23
REMARK    3  A    between atoms: N_23  and  C_25
REMARK    4  A    between atoms: C_25  and  C_26
REMARK    5  A    between atoms: C_26  and  O_27
REMARK                            x       y       z     vdW  Elec       q    Type
REMARK                         _______ _______ _______ _____ _____    ______ ____
ROOT
ATOM      1  O   UNL     1      37.122 -19.834 -19.852  0.00  0.00    -0.269 OA
ATOM      2  O   UNL     1      32.598 -20.889 -20.587  0.00  0.00    -0.269 OA
ATOM      3  N   UNL     1      34.859 -20.287 -20.313  0.00  0.00    -0.201 N 
ATOM      4  C   UNL     1      34.892 -21.996 -18.067  0.00  0.00    +0.010 C 
ATOM      5  C   UNL     1      34.908 -22.854 -16.938  0.00  0.00    +0.013 C 
ATOM      6  C   UNL     1      36.084 -21.397 -18.485  0.00  0.00    +0.055 C 
ATOM      7  C   UNL     1      33.683 -21.770 -18.733  0.00  0.00    +0.054 C 
ATOM      8  C   UNL     1      36.117 -23.100 -16.271  0.00  0.00    +0.045 C 
ATOM      9  C   UNL     1      36.083 -20.453 -19.624  0.00  0.00    +0.259 C 
ATOM     10  C   UNL     1      33.650 -20.925 -19.949  0.00  0.00    +0.259 C 
ATOM     11  C   UNL     1      37.286 -21.654 -17.808  0.00  0.00    +0.006 C 
ATOM     12  C   UNL     1      33.714 -23.448 -16.502  0.00  0.00    +0.001 C 
ATOM     13  C   UNL     1      37.299 -22.506 -16.706  0.00  0.00    +0.014 C 
ATOM     14  C   UNL     1      32.498 -22.372 -18.284  0.00  0.00    +0.005 C 
ATOM     15  C   UNL     1      32.518 -23.204 -17.168  0.00  0.00    +0.000 C 
ENDROOT
BRANCH   3  17
ATOM     16 BR   UNL     1      34.363 -15.347 -22.171  0.00  0.00    -0.049 Br
ATOM     17  C   UNL     1      34.841 -19.410 -21.466  0.00  0.00    +0.062 C 
ATOM     18  C   UNL     1      34.645 -18.047 -21.289  0.00  0.00    +0.022 C 
ATOM     19  C   UNL     1      35.020 -19.945 -22.735  0.00  0.00    +0.015 C 
ATOM     20  C   UNL     1      34.629 -17.204 -22.399  0.00  0.00    +0.036 C 
ATOM     21  C   UNL     1      35.004 -19.103 -23.846  0.00  0.00    +0.002 C 
ATOM     22  C   UNL     1      34.807 -17.732 -23.678  0.00  0.00    +0.007 C 
ENDBRANCH   3  17
BRANCH   8  23
ATOM     23  N   UNL     1      36.186 -23.952 -15.143  0.00  0.00    -0.331 N 
ATOM     24  H   UNL     1      35.546 -23.818 -14.406  0.00  0.00    +0.147 HD
BRANCH  23  25
ATOM     25  C   UNL     1      37.143 -24.990 -15.033  0.00  0.00    +0.119 C 
BRANCH  25  26
ATOM     26  C   UNL     1      36.448 -26.341 -15.026  0.00  0.00    +0.158 C 
BRANCH  26  27
ATOM     27  O   UNL     1      36.844 -27.082 -16.173  0.00  0.00    -0.380 OA
ATOM     28  H   UNL     1      36.085 -27.189 -16.768  0.00  0.00    +0.211 HD
ENDBRANCH  26  27
ENDBRANCH  25  26
ENDBRANCH  23  25
ENDBRANCH   8  23
TORSDOF 5
ENDMDL
MODEL 4
REMARK VINA RESULT:     -10.0      3.952      6.658
REMARK  Name = 4177750
REMARK  5 active torsions:
REMARK  status: ('A' for Active; 'I' for Inactive)
REMARK    1  A    between atoms: N_3  and  C_17
REMARK    2  A    between atoms: C_8  and  N_23
REMARK    3  A    between atoms: N_23  and  C_25
REMARK    4  A    between atoms: C_25  and  C_26
REMARK    5  A    between atoms: C_26  and  O_27
REMARK                            x       y       z     vdW  Elec       q    Type
REMARK                         _______ _______ _______ _____ _____    ______ ____
ROOT
ATOM      1  O   UNL     1      31.999 -12.880 -22.200  0.00  0.00    -0.269 OA
ATOM      2  O   UNL     1      34.793 -11.410 -25.686  0.00  0.00    -0.269 OA
ATOM      3  N   UNL     1      33.406 -12.257 -23.982  0.00  0.00    -0.201 N 
ATOM      4  C   UNL     1      33.211  -9.611 -23.022  0.00  0.00    +0.010 C 
ATOM      5  C   UNL     1      33.114  -8.280 -22.540  0.00  0.00    +0.013 C 
ATOM      6  C   UNL     1      32.446 -10.612 -22.418  0.00  0.00    +0.055 C 
ATOM      7  C   UNL     1      34.071  -9.886 -24.090  0.00  0.00    +0.054 C 
ATOM      8  C   UNL     1      32.244  -7.989 -21.479  0.00  0.00    +0.045 C 
ATOM      9  C   UNL     1      32.572 -12.017 -22.865  0.00  0.00    +0.259 C 
ATOM     10  C   UNL     1      34.147 -11.255 -24.651  0.00  0.00    +0.259 C 
ATOM     11  C   UNL     1      31.579 -10.304 -21.359  0.00  0.00    +0.006 C 
ATOM     12  C   UNL     1      33.890  -7.271 -23.129  0.00  0.00    +0.001 C 
ATOM     13  C   UNL     1      31.479  -8.995 -20.895  0.00  0.00    +0.014 C 
ATOM     14  C   UNL     1      34.840  -8.865 -24.668  0.00  0.00    +0.005 C 
ATOM     15  C   UNL     1      34.749  -7.563 -24.183  0.00  0.00    +0.000 C 
ENDROOT
BRANCH   3  17
ATOM     16 BR   UNL     1      35.209 -17.181 -23.200  0.00  0.00    -0.049 Br
ATOM     17  C   UNL     1      33.506 -13.616 -24.475  0.00  0.00    +0.062 C 
ATOM     18  C   UNL     1      34.188 -14.568 -23.730  0.00  0.00    +0.022 C 
ATOM     19  C   UNL     1      32.919 -13.948 -25.689  0.00  0.00    +0.015 C 
ATOM     20  C   UNL     1      34.284 -15.875 -24.205  0.00  0.00    +0.036 C 
ATOM     21  C   UNL     1      33.014 -15.255 -26.165  0.00  0.00    +0.002 C 
ATOM     22  C   UNL     1      33.697 -16.219 -25.423  0.00  0.00    +0.007 C 
ENDBRANCH   3  17
BRANCH   8  23
ATOM     23  N   UNL     1      32.108  -6.677 -20.965  0.00  0.00    -0.331 N 
ATOM     24  H   UNL     1      32.859  -6.284 -20.463  0.00  0.00    +0.147 HD
BRANCH  23  25
ATOM     25  C   UNL     1      30.932  -5.910 -21.145  0.00  0.00    +0.119 C 
BRANCH  25  26
ATOM     26  C   UNL     1      31.033  -5.093 -22.421  0.00  0.00    +0.158 C 
BRANCH  26  27
ATOM     27  O   UNL     1      30.392  -3.838 -22.231  0.00  0.00    -0.380 OA
ATOM     28  H   UNL     1      29.497  -3.872 -22.606  0.00  0.00    +0.211 HD
ENDBRANCH  26  27
ENDBRANCH  25  26
ENDBRANCH  23  25
ENDBRANCH   8  23
TORSDOF 5
ENDMDL
MODEL 5
REMARK VINA RESULT:      -9.9      3.597      6.413
REMARK  Name = 4177750
REMARK  5 active torsions:
REMARK  status: ('A' for Active; 'I' for Inactive)
REMARK    1  A    between atoms: N_3  and  C_17
REMARK    2  A    between atoms: C_8  and  N_23
REMARK    3  A    between atoms: N_23  and  C_25
REMARK    4  A    between atoms: C_25  and  C_26
REMARK    5  A    between atoms: C_26  and  O_27
REMARK                            x       y       z     vdW  Elec       q    Type
REMARK                         _______ _______ _______ _____ _____    ______ ____
ROOT
ATOM      1  O   UNL     1      34.172 -11.689 -25.292  0.00  0.00    -0.269 OA
ATOM      2  O   UNL     1      32.110 -13.971 -21.734  0.00  0.00    -0.269 OA
ATOM      3  N   UNL     1      33.163 -12.934 -23.568  0.00  0.00    -0.201 N 
ATOM      4  C   UNL     1      32.603 -10.470 -22.312  0.00  0.00    +0.010 C 
ATOM      5  C   UNL     1      32.321  -9.231 -21.681  0.00  0.00    +0.013 C 
ATOM      6  C   UNL     1      33.370 -10.479 -23.481  0.00  0.00    +0.055 C 
ATOM      7  C   UNL     1      32.106 -11.649 -21.749  0.00  0.00    +0.054 C 
ATOM      8  C   UNL     1      32.827  -8.043 -22.229  0.00  0.00    +0.045 C 
ATOM      9  C   UNL     1      33.630 -11.752 -24.190  0.00  0.00    +0.259 C 
ATOM     10  C   UNL     1      32.435 -12.959 -22.355  0.00  0.00    +0.259 C 
ATOM     11  C   UNL     1      33.870  -9.282 -24.015  0.00  0.00    +0.006 C 
ATOM     12  C   UNL     1      31.540  -9.209 -20.516  0.00  0.00    +0.001 C 
ATOM     13  C   UNL     1      33.599  -8.070 -23.386  0.00  0.00    +0.014 C 
ATOM     14  C   UNL     1      31.326 -11.609 -20.584  0.00  0.00    +0.005 C 
ATOM     15  C   UNL     1      31.043 -10.390 -19.975  0.00  0.00    +0.000 C 
ENDROOT
BRANCH   3  17
ATOM     16 BR   UNL     1      35.507 -17.680 -23.267  0.00  0.00    -0.049 Br
ATOM     17  C   UNL     1      33.451 -14.199 -24.212  0.00  0.00    +0.062 C 
ATOM     18  C   UNL     1      34.206 -15.154 -23.544  0.00  0.00    +0.022 C 
ATOM     19  C   UNL     1      32.968 -14.440 -25.492  0.00  0.00    +0.015 C 
ATOM     20  C   UNL     1      34.481 -16.372 -24.166  0.00  0.00    +0.036 C 
ATOM     21  C   UNL     1      33.244 -15.657 -26.115  0.00  0.00    +0.002 C 
ATOM     22  C   UNL     1      34.001 -16.623 -25.452  0.00  0.00    +0.007 C 
ENDBRANCH   3  17
BRANCH   8  23
ATOM     23  N   UNL     1      32.577  -6.783 -21.634  0.00  0.00    -0.331 N 
ATOM     24  H   UNL     1      32.794  -6.656 -20.681  0.00  0.00    +0.147 HD
BRANCH  23  25
ATOM     25  C   UNL     1      32.026  -5.697 -22.358  0.00  0.00    +0.119 C 
BRANCH  25  26
ATOM     26  C   UNL     1      30.601  -5.438 -21.903  0.00  0.00    +0.158 C 
BRANCH  26  27
ATOM     27  O   UNL     1      30.312  -4.050 -22.020  0.00  0.00    -0.380 OA
ATOM     28  H   UNL     1      30.154  -3.677 -21.138  0.00  0.00    +0.211 HD
ENDBRANCH  26  27
ENDBRANCH  25  26
ENDBRANCH  23  25
ENDBRANCH   8  23
TORSDOF 5
ENDMDL
MODEL 6
REMARK VINA RESULT:      -9.7      3.400      7.605
REMARK  Name = 4177750
REMARK  5 active torsions:
REMARK  status: ('A' for Active; 'I' for Inactive)
REMARK    1  A    between atoms: N_3  and  C_17
REMARK    2  A    between atoms: C_8  and  N_23
REMARK    3  A    between atoms: N_23  and  C_25
REMARK    4  A    between atoms: C_25  and  C_26
REMARK    5  A    between atoms: C_26  and  O_27
REMARK                            x       y       z     vdW  Elec       q    Type
REMARK                         _______ _______ _______ _____ _____    ______ ____
ROOT
ATOM      1  O   UNL     1      33.428 -13.419 -20.708  0.00  0.00    -0.269 OA
ATOM      2  O   UNL     1      33.306 -13.367 -25.409  0.00  0.00    -0.269 OA
ATOM      3  N   UNL     1      33.328 -13.280 -23.056  0.00  0.00    -0.201 N 
ATOM      4  C   UNL     1      34.216 -15.958 -23.109  0.00  0.00    +0.010 C 
ATOM      5  C   UNL     1      34.662 -17.305 -23.135  0.00  0.00    +0.013 C 
ATOM      6  C   UNL     1      34.140 -15.290 -21.883  0.00  0.00    +0.055 C 
ATOM      7  C   UNL     1      33.863 -15.334 -24.310  0.00  0.00    +0.054 C 
ATOM      8  C   UNL     1      35.033 -17.936 -21.939  0.00  0.00    +0.045 C 
ATOM      9  C   UNL     1      33.623 -13.905 -21.822  0.00  0.00    +0.259 C 
ATOM     10  C   UNL     1      33.451 -13.913 -24.316  0.00  0.00    +0.259 C 
ATOM     11  C   UNL     1      34.516 -15.936 -20.695  0.00  0.00    +0.006 C 
ATOM     12  C   UNL     1      34.728 -17.989 -24.358  0.00  0.00    +0.001 C 
ATOM     13  C   UNL     1      34.963 -17.254 -20.728  0.00  0.00    +0.014 C 
ATOM     14  C   UNL     1      33.935 -16.033 -25.524  0.00  0.00    +0.005 C 
ATOM     15  C   UNL     1      34.362 -17.358 -25.543  0.00  0.00    +0.000 C 
ENDROOT
BRANCH   3  17
ATOM     16 BR   UNL     1      34.406  -8.186 -24.052  0.00  0.00    -0.049 Br
ATOM     17  C   UNL     1      32.871 -11.906 -23.029  0.00  0.00    +0.062 C 
ATOM     18  C   UNL     1      33.712 -10.894 -23.474  0.00  0.00    +0.022 C 
ATOM     19  C   UNL     1      31.598 -11.617 -22.556  0.00  0.00    +0.015 C 
ATOM     20  C   UNL     1      33.272  -9.572 -23.448  0.00  0.00    +0.036 C 
ATOM     21  C   UNL     1      31.157 -10.294 -22.529  0.00  0.00    +0.002 C 
ATOM     22  C   UNL     1      31.994  -9.271 -22.975  0.00  0.00    +0.007 C 
ENDBRANCH   3  17
BRANCH   8  23
ATOM     23  N   UNL     1      35.489 -19.276 -21.914  0.00  0.00    -0.331 N 
ATOM     24  H   UNL     1      36.201 -19.547 -22.538  0.00  0.00    +0.147 HD
BRANCH  23  25
ATOM     25  C   UNL     1      34.958 -20.242 -21.025  0.00  0.00    +0.119 C 
BRANCH  25  26
ATOM     26  C   UNL     1      36.082 -20.928 -20.268  0.00  0.00    +0.158 C 
BRANCH  26  27
ATOM     27  O   UNL     1      36.780 -19.967 -19.486  0.00  0.00    -0.380 OA
ATOM     28  H   UNL     1      37.719 -20.210 -19.437  0.00  0.00    +0.211 HD
ENDBRANCH  26  27
ENDBRANCH  25  26
ENDBRANCH  23  25
ENDBRANCH   8  23
TORSDOF 5
ENDMDL
MODEL 7
REMARK VINA RESULT:      -9.6      4.672      9.830
REMARK  Name = 4177750
REMARK  5 active torsions:
REMARK  status: ('A' for Active; 'I' for Inactive)
REMARK    1  A    between atoms: N_3  and  C_17
REMARK    2  A    between atoms: C_8  and  N_23
REMARK    3  A    between atoms: N_23  and  C_25
REMARK    4  A    between atoms: C_25  and  C_26
REMARK    5  A    between atoms: C_26  and  O_27
REMARK                            x       y       z     vdW  Elec       q    Type
REMARK                         _______ _______ _______ _____ _____    ______ ____
ROOT
ATOM      1  O   UNL     1      32.585 -20.981 -20.488  0.00  0.00    -0.269 OA
ATOM      2  O   UNL     1      37.117 -19.952 -19.764  0.00  0.00    -0.269 OA
ATOM      3  N   UNL     1      34.851 -20.398 -20.224  0.00  0.00    -0.201 N 
ATOM      4  C   UNL     1      34.859 -22.047 -17.934  0.00  0.00    +0.010 C 
ATOM      5  C   UNL     1      34.864 -22.877 -16.783  0.00  0.00    +0.013 C 
ATOM      6  C   UNL     1      33.656 -21.827 -18.610  0.00  0.00    +0.055 C 
ATOM      7  C   UNL     1      36.060 -21.471 -18.363  0.00  0.00    +0.054 C 
ATOM      8  C   UNL     1      33.664 -23.448 -16.335  0.00  0.00    +0.045 C 
ATOM      9  C   UNL     1      33.634 -21.014 -19.846  0.00  0.00    +0.259 C 
ATOM     10  C   UNL     1      36.071 -20.556 -19.526  0.00  0.00    +0.259 C 
ATOM     11  C   UNL     1      32.463 -22.405 -18.148  0.00  0.00    +0.006 C 
ATOM     12  C   UNL     1      36.069 -23.116 -16.106  0.00  0.00    +0.001 C 
ATOM     13  C   UNL     1      32.471 -23.210 -17.012  0.00  0.00    +0.014 C 
ATOM     14  C   UNL     1      37.256 -21.721 -17.675  0.00  0.00    +0.005 C 
ATOM     15  C   UNL     1      37.257 -22.545 -16.553  0.00  0.00    +0.000 C 
ENDROOT
BRANCH   3  17
ATOM     16 BR   UNL     1      34.413 -15.503 -22.214  0.00  0.00    -0.049 Br
ATOM     17  C   UNL     1      34.846 -19.552 -21.399  0.00  0.00    +0.062 C 
ATOM     18  C   UNL     1      34.663 -18.182 -21.259  0.00  0.00    +0.022 C 
ATOM     19  C   UNL     1      35.023 -20.122 -22.653  0.00  0.00    +0.015 C 
ATOM     20  C   UNL     1      34.659 -17.369 -22.391  0.00  0.00    +0.036 C 
ATOM     21  C   UNL     1      35.019 -19.309 -23.787  0.00  0.00    +0.002 C 
ATOM     22  C   UNL     1      34.837 -17.932 -23.656  0.00  0.00    +0.007 C 
ENDBRANCH   3  17
BRANCH   8  23
ATOM     23  N   UNL     1      33.616 -24.279 -15.190  0.00  0.00    -0.331 N 
ATOM     24  H   UNL     1      34.184 -25.083 -15.163  0.00  0.00    +0.147 HD
BRANCH  23  25
ATOM     25  C   UNL     1      32.780 -23.996 -14.082  0.00  0.00    +0.119 C 
BRANCH  25  26
ATOM     26  C   UNL     1      31.778 -25.121 -13.885  0.00  0.00    +0.158 C 
BRANCH  26  27
ATOM     27  O   UNL     1      30.835 -24.745 -12.889  0.00  0.00    -0.380 OA
ATOM     28  H   UNL     1      31.130 -23.927 -12.458  0.00  0.00    +0.211 HD
ENDBRANCH  26  27
ENDBRANCH  25  26
ENDBRANCH  23  25
ENDBRANCH   8  23
TORSDOF 5
ENDMDL
MODEL 8
REMARK VINA RESULT:      -9.4      8.870     11.110
REMARK  Name = 4177750
REMARK  5 active torsions:
REMARK  status: ('A' for Active; 'I' for Inactive)
REMARK    1  A    between atoms: N_3  and  C_17
REMARK    2  A    between atoms: C_8  and  N_23
REMARK    3  A    between atoms: N_23  and  C_25
REMARK    4  A    between atoms: C_25  and  C_26
REMARK    5  A    between atoms: C_26  and  O_27
REMARK                            x       y       z     vdW  Elec       q    Type
REMARK                         _______ _______ _______ _____ _____    ______ ____
ROOT
ATOM      1  O   UNL     1      34.038 -24.161 -12.655  0.00  0.00    -0.269 OA
ATOM      2  O   UNL     1      36.694 -23.187 -16.412  0.00  0.00    -0.269 OA
ATOM      3  N   UNL     1      35.465 -23.693 -14.468  0.00  0.00    -0.201 N 
ATOM      4  C   UNL     1      33.137 -23.197 -15.985  0.00  0.00    +0.010 C 
ATOM      5  C   UNL     1      31.968 -22.948 -16.748  0.00  0.00    +0.013 C 
ATOM      6  C   UNL     1      33.009 -23.677 -14.679  0.00  0.00    +0.055 C 
ATOM      7  C   UNL     1      34.389 -22.957 -16.560  0.00  0.00    +0.054 C 
ATOM      8  C   UNL     1      30.707 -23.200 -16.187  0.00  0.00    +0.045 C 
ATOM      9  C   UNL     1      34.211 -23.890 -13.842  0.00  0.00    +0.259 C 
ATOM     10  C   UNL     1      35.626 -23.264 -15.807  0.00  0.00    +0.259 C 
ATOM     11  C   UNL     1      31.741 -23.925 -14.132  0.00  0.00    +0.006 C 
ATOM     12  C   UNL     1      32.085 -22.452 -18.055  0.00  0.00    +0.001 C 
ATOM     13  C   UNL     1      30.596 -23.689 -14.888  0.00  0.00    +0.014 C 
ATOM     14  C   UNL     1      34.489 -22.460 -17.869  0.00  0.00    +0.005 C 
ATOM     15  C   UNL     1      33.338 -22.206 -18.609  0.00  0.00    +0.000 C 
ENDROOT
BRANCH   3  17
ATOM     16 BR   UNL     1      40.188 -26.082 -14.167  0.00  0.00    -0.049 Br
ATOM     17  C   UNL     1      36.659 -23.947 -13.689  0.00  0.00    +0.062 C 
ATOM     18  C   UNL     1      37.664 -24.749 -14.214  0.00  0.00    +0.022 C 
ATOM     19  C   UNL     1      36.784 -23.385 -12.426  0.00  0.00    +0.015 C 
ATOM     20  C   UNL     1      38.813 -24.993 -13.464  0.00  0.00    +0.036 C 
ATOM     21  C   UNL     1      37.933 -23.629 -11.674  0.00  0.00    +0.002 C 
ATOM     22  C   UNL     1      38.948 -24.433 -12.193  0.00  0.00    +0.007 C 
ENDBRANCH   3  17
BRANCH   8  23
ATOM     23  N   UNL     1      29.511 -22.971 -16.909  0.00  0.00    -0.331 N 
ATOM     24  H   UNL     1      29.547 -22.423 -17.726  0.00  0.00    +0.147 HD
BRANCH  23  25
ATOM     25  C   UNL     1      28.263 -23.502 -16.498  0.00  0.00    +0.119 C 
BRANCH  25  26
ATOM     26  C   UNL     1      27.326 -22.377 -16.095  0.00  0.00    +0.158 C 
BRANCH  26  27
ATOM     27  O   UNL     1      27.196 -21.461 -17.175  0.00  0.00    -0.380 OA
ATOM     28  H   UNL     1      27.880 -21.645 -17.839  0.00  0.00    +0.211 HD
ENDBRANCH  26  27
ENDBRANCH  25  26
ENDBRANCH  23  25
ENDBRANCH   8  23
TORSDOF 5
ENDMDL
MODEL 9
REMARK VINA RESULT:      -9.1      2.761      5.120
REMARK  Name = 4177750
REMARK  5 active torsions:
REMARK  status: ('A' for Active; 'I' for Inactive)
REMARK    1  A    between atoms: N_3  and  C_17
REMARK    2  A    between atoms: C_8  and  N_23
REMARK    3  A    between atoms: N_23  and  C_25
REMARK    4  A    between atoms: C_25  and  C_26
REMARK    5  A    between atoms: C_26  and  O_27
REMARK                            x       y       z     vdW  Elec       q    Type
REMARK                         _______ _______ _______ _____ _____    ______ ____
ROOT
ATOM      1  O   UNL     1      34.512 -13.273 -25.130  0.00  0.00    -0.269 OA
ATOM      2  O   UNL     1      32.561 -14.951 -21.194  0.00  0.00    -0.269 OA
ATOM      3  N   UNL     1      33.575 -14.222 -23.190  0.00  0.00    -0.201 N 
ATOM      4  C   UNL     1      32.627 -11.640 -22.559  0.00  0.00    +0.010 C 
ATOM      5  C   UNL     1      32.150 -10.342 -22.242  0.00  0.00    +0.013 C 
ATOM      6  C   UNL     1      33.456 -11.807 -23.672  0.00  0.00    +0.055 C 
ATOM      7  C   UNL     1      32.256 -12.718 -21.750  0.00  0.00    +0.054 C 
ATOM      8  C   UNL     1      32.528  -9.251 -23.038  0.00  0.00    +0.045 C 
ATOM      9  C   UNL     1      33.919 -13.159 -24.058  0.00  0.00    +0.259 C 
ATOM     10  C   UNL     1      32.787 -14.072 -22.025  0.00  0.00    +0.259 C 
ATOM     11  C   UNL     1      33.825 -10.705 -24.458  0.00  0.00    +0.006 C 
ATOM     12  C   UNL     1      31.306 -10.165 -21.136  0.00  0.00    +0.001 C 
ATOM     13  C   UNL     1      33.363  -9.432 -24.136  0.00  0.00    +0.014 C 
ATOM     14  C   UNL     1      31.410 -12.524 -20.647  0.00  0.00    +0.005 C 
ATOM     15  C   UNL     1      30.936 -11.250 -20.347  0.00  0.00    +0.000 C 
ENDROOT
BRANCH   3  17
ATOM     16 BR   UNL     1      36.084 -18.594 -21.548  0.00  0.00    -0.049 Br
ATOM     17  C   UNL     1      34.061 -15.547 -23.514  0.00  0.00    +0.062 C 
ATOM     18  C   UNL     1      34.720 -16.293 -22.545  0.00  0.00    +0.022 C 
ATOM     19  C   UNL     1      33.864 -16.055 -24.791  0.00  0.00    +0.015 C 
ATOM     20  C   UNL     1      35.188 -17.569 -22.858  0.00  0.00    +0.036 C 
ATOM     21  C   UNL     1      34.332 -17.330 -25.106  0.00  0.00    +0.002 C 
ATOM     22  C   UNL     1      34.994 -18.088 -24.139  0.00  0.00    +0.007 C 
ENDBRANCH   3  17
BRANCH   8  23
ATOM     23  N   UNL     1      32.082  -7.936 -22.760  0.00  0.00    -0.331 N 
ATOM     24  H   UNL     1      31.209  -7.646 -23.112  0.00  0.00    +0.147 HD
BRANCH  23  25
ATOM     25  C   UNL     1      32.846  -7.021 -21.995  0.00  0.00    +0.119 C 
BRANCH  25  26
ATOM     26  C   UNL     1      32.181  -6.783 -20.651  0.00  0.00    +0.158 C 
BRANCH  26  27
ATOM     27  O   UNL     1      32.945  -7.410 -19.628  0.00  0.00    -0.380 OA
ATOM     28  H   UNL     1      33.887  -7.378 -19.863  0.00  0.00    +0.211 HD
ENDBRANCH  26  27
ENDBRANCH  25  26
ENDBRANCH  23  25
ENDBRANCH   8  23
TORSDOF 5
ENDMDL
