MODEL 1
REMARK VINA RESULT:      -8.1      0.000      0.000
REMARK  Name = 5487
REMARK  1 active torsions:
REMARK  status: ('A' for Active; 'I' for Inactive)
REMARK    1  A    between atoms: C_5  and  N_12
REMARK                            x       y       z     vdW  Elec       q    Type
REMARK                         _______ _______ _______ _____ _____    ______ ____
ROOT
ATOM      1 CL   UNL     1      33.688 -24.172 -13.338  0.00  0.00    -0.081 Cl
ATOM      2  S   UNL     1      34.400 -22.156 -19.381  0.00  0.00    +0.117 S 
ATOM      3  N   UNL     1      35.244 -22.613 -18.027  0.00  0.00    -0.189 NA
ATOM      4  N   UNL     1      32.837 -22.327 -18.846  0.00  0.00    -0.190 NA
ATOM      5  C   UNL     1      34.600 -23.363 -15.775  0.00  0.00    +0.081 C 
ATOM      6  C   UNL     1      34.331 -22.921 -17.091  0.00  0.00    +0.123 A 
ATOM      7  C   UNL     1      32.912 -22.752 -17.575  0.00  0.00    +0.110 A 
ATOM      8  C   UNL     1      33.476 -23.624 -14.973  0.00  0.00    +0.073 C 
ATOM      9  C   UNL     1      31.817 -23.031 -16.721  0.00  0.00    +0.022 C 
ATOM     10  C   UNL     1      32.145 -23.466 -15.425  0.00  0.00    +0.014 C 
ENDROOT
BRANCH   5  12
ATOM     11  N   UNL     1      37.485 -24.624 -14.001  0.00  0.00    -0.284 N 
ATOM     12  N   UNL     1      35.912 -23.530 -15.296  0.00  0.00    -0.284 N 
ATOM     13  N   UNL     1      36.320 -25.864 -15.503  0.00  0.00    -0.214 NA
ATOM     14  C   UNL     1      38.053 -25.917 -13.774  0.00  0.00    +0.085 C 
ATOM     15  C   UNL     1      37.270 -26.767 -14.783  0.00  0.00    +0.117 C 
ATOM     16  C   UNL     1      36.533 -24.682 -14.974  0.00  0.00    +0.190 C 
ATOM     17  H   UNL     1      37.745 -23.805 -13.520  0.00  0.00    +0.155 HD
ATOM     18  H   UNL     1      36.439 -22.707 -15.183  0.00  0.00    +0.155 HD
ENDBRANCH   5  12
TORSDOF 1
ENDMDL
MODEL 2
REMARK VINA RESULT:      -7.8      7.313      9.052
REMARK  Name = 5487
REMARK  1 active torsions:
REMARK  status: ('A' for Active; 'I' for Inactive)
REMARK    1  A    between atoms: C_5  and  N_12
REMARK                            x       y       z     vdW  Elec       q    Type
REMARK                         _______ _______ _______ _____ _____    ______ ____
ROOT
ATOM      1 CL   UNL     1      34.975 -19.702 -24.916  0.00  0.00    -0.081 Cl
ATOM      2  S   UNL     1      34.596 -14.886 -20.703  0.00  0.00    +0.117 S 
ATOM      3  N   UNL     1      34.989 -16.492 -20.849  0.00  0.00    -0.189 NA
ATOM      4  N   UNL     1      34.171 -14.524 -22.267  0.00  0.00    -0.190 NA
ATOM      5  C   UNL     1      35.014 -18.088 -22.721  0.00  0.00    +0.081 C 
ATOM      6  C   UNL     1      34.802 -16.816 -22.140  0.00  0.00    +0.123 A 
ATOM      7  C   UNL     1      34.319 -15.656 -22.975  0.00  0.00    +0.110 A 
ATOM      8  C   UNL     1      34.749 -18.187 -24.098  0.00  0.00    +0.073 C 
ATOM      9  C   UNL     1      34.068 -15.814 -24.359  0.00  0.00    +0.022 C 
ATOM     10  C   UNL     1      34.296 -17.099 -24.881  0.00  0.00    +0.014 C 
ENDROOT
BRANCH   5  12
ATOM     11  N   UNL     1      35.458 -20.485 -20.054  0.00  0.00    -0.284 N 
ATOM     12  N   UNL     1      35.463 -19.188 -21.968  0.00  0.00    -0.284 N 
ATOM     13  N   UNL     1      33.472 -20.161 -21.103  0.00  0.00    -0.214 NA
ATOM     14  C   UNL     1      34.583 -21.234 -19.204  0.00  0.00    +0.085 C 
ATOM     15  C   UNL     1      33.235 -21.018 -19.903  0.00  0.00    +0.117 C 
ATOM     16  C   UNL     1      34.763 -19.923 -21.082  0.00  0.00    +0.190 C 
ATOM     17  H   UNL     1      36.428 -20.389 -19.914  0.00  0.00    +0.155 HD
ATOM     18  H   UNL     1      36.401 -19.451 -22.105  0.00  0.00    +0.155 HD
ENDBRANCH   5  12
TORSDOF 1
ENDMDL
MODEL 3
REMARK VINA RESULT:      -7.7      2.812      3.207
REMARK  Name = 5487
REMARK  1 active torsions:
REMARK  status: ('A' for Active; 'I' for Inactive)
REMARK    1  A    between atoms: C_5  and  N_12
REMARK                            x       y       z     vdW  Elec       q    Type
REMARK                         _______ _______ _______ _____ _____    ______ ____
ROOT
ATOM      1 CL   UNL     1      35.562 -22.724 -17.053  0.00  0.00    -0.081 Cl
ATOM      2  S   UNL     1      30.621 -24.705 -13.480  0.00  0.00    +0.117 S 
ATOM      3  N   UNL     1      32.276 -24.574 -13.499  0.00  0.00    -0.189 NA
ATOM      4  N   UNL     1      30.240 -24.062 -14.963  0.00  0.00    -0.190 NA
ATOM      5  C   UNL     1      33.911 -23.717 -15.126  0.00  0.00    +0.081 C 
ATOM      6  C   UNL     1      32.603 -24.017 -14.677  0.00  0.00    +0.123 A 
ATOM      7  C   UNL     1      31.402 -23.716 -15.540  0.00  0.00    +0.110 A 
ATOM      8  C   UNL     1      34.004 -23.134 -16.401  0.00  0.00    +0.073 C 
ATOM      9  C   UNL     1      31.557 -23.126 -16.818  0.00  0.00    +0.022 C 
ATOM     10  C   UNL     1      32.879 -22.851 -17.210  0.00  0.00    +0.014 C 
ENDROOT
BRANCH   5  12
ATOM     11  N   UNL     1      36.465 -25.446 -13.243  0.00  0.00    -0.284 N 
ATOM     12  N   UNL     1      35.048 -23.987 -14.344  0.00  0.00    -0.284 N 
ATOM     13  N   UNL     1      36.108 -25.804 -15.455  0.00  0.00    -0.214 NA
ATOM     14  C   UNL     1      37.281 -26.602 -13.460  0.00  0.00    +0.085 C 
ATOM     15  C   UNL     1      37.044 -26.856 -14.954  0.00  0.00    +0.117 C 
ATOM     16  C   UNL     1      35.850 -25.069 -14.399  0.00  0.00    +0.190 C 
ATOM     17  H   UNL     1      36.362 -24.987 -12.377  0.00  0.00    +0.155 HD
ATOM     18  H   UNL     1      35.287 -23.304 -13.678  0.00  0.00    +0.155 HD
ENDBRANCH   5  12
TORSDOF 1
ENDMDL
MODEL 4
REMARK VINA RESULT:      -7.5     11.200     13.693
REMARK  Name = 5487
REMARK  1 active torsions:
REMARK  status: ('A' for Active; 'I' for Inactive)
REMARK    1  A    between atoms: C_5  and  N_12
REMARK                            x       y       z     vdW  Elec       q    Type
REMARK                         _______ _______ _______ _____ _____    ______ ____
ROOT
ATOM      1 CL   UNL     1      32.830 -14.181 -26.597  0.00  0.00    -0.081 Cl
ATOM      2  S   UNL     1      34.635 -15.725 -20.643  0.00  0.00    +0.117 S 
ATOM      3  N   UNL     1      33.889 -14.543 -21.539  0.00  0.00    -0.189 NA
ATOM      4  N   UNL     1      34.984 -16.838 -21.825  0.00  0.00    -0.190 NA
ATOM      5  C   UNL     1      33.345 -14.284 -23.924  0.00  0.00    +0.081 C 
ATOM      6  C   UNL     1      33.882 -14.973 -22.811  0.00  0.00    +0.123 A 
ATOM      7  C   UNL     1      34.529 -16.326 -22.980  0.00  0.00    +0.110 A 
ATOM      8  C   UNL     1      33.456 -14.936 -25.163  0.00  0.00    +0.073 C 
ATOM      9  C   UNL     1      34.612 -16.936 -24.255  0.00  0.00    +0.022 C 
ATOM     10  C   UNL     1      34.061 -16.204 -25.322  0.00  0.00    +0.014 C 
ENDROOT
BRANCH   5  12
ATOM     11  N   UNL     1      32.781 -10.789 -23.194  0.00  0.00    -0.284 N 
ATOM     12  N   UNL     1      32.737 -13.022 -23.797  0.00  0.00    -0.284 N 
ATOM     13  N   UNL     1      34.343 -11.504 -24.677  0.00  0.00    -0.214 NA
ATOM     14  C   UNL     1      33.496  -9.573 -23.434  0.00  0.00    +0.085 C 
ATOM     15  C   UNL     1      34.559 -10.046 -24.434  0.00  0.00    +0.117 C 
ATOM     16  C   UNL     1      33.315 -11.810 -23.922  0.00  0.00    +0.190 C 
ATOM     17  H   UNL     1      32.011 -10.877 -22.587  0.00  0.00    +0.155 HD
ATOM     18  H   UNL     1      31.774 -13.024 -23.593  0.00  0.00    +0.155 HD
ENDBRANCH   5  12
TORSDOF 1
ENDMDL
MODEL 5
REMARK VINA RESULT:      -7.5      9.492     12.014
REMARK  Name = 5487
REMARK  1 active torsions:
REMARK  status: ('A' for Active; 'I' for Inactive)
REMARK    1  A    between atoms: C_5  and  N_12
REMARK                            x       y       z     vdW  Elec       q    Type
REMARK                         _______ _______ _______ _____ _____    ______ ____
ROOT
ATOM      1 CL   UNL     1      33.637 -15.322 -26.243  0.00  0.00    -0.081 Cl
ATOM      2  S   UNL     1      35.685 -18.499 -21.065  0.00  0.00    +0.117 S 
ATOM      3  N   UNL     1      35.427 -16.974 -21.671  0.00  0.00    -0.189 NA
ATOM      4  N   UNL     1      35.202 -19.431 -22.352  0.00  0.00    -0.190 NA
ATOM      5  C   UNL     1      34.587 -16.097 -23.810  0.00  0.00    +0.081 C 
ATOM      6  C   UNL     1      34.949 -17.132 -22.916  0.00  0.00    +0.123 A 
ATOM      7  C   UNL     1      34.817 -18.581 -23.317  0.00  0.00    +0.110 A 
ATOM      8  C   UNL     1      34.110 -16.509 -25.066  0.00  0.00    +0.073 C 
ATOM      9  C   UNL     1      34.328 -18.937 -24.598  0.00  0.00    +0.022 C 
ATOM     10  C   UNL     1      33.986 -17.866 -25.442  0.00  0.00    +0.014 C 
ENDROOT
BRANCH   5  12
ATOM     11  N   UNL     1      33.865 -12.584 -23.370  0.00  0.00    -0.284 N 
ATOM     12  N   UNL     1      34.700 -14.739 -23.464  0.00  0.00    -0.284 N 
ATOM     13  N   UNL     1      32.629 -14.227 -22.410  0.00  0.00    -0.214 NA
ATOM     14  C   UNL     1      32.752 -11.828 -22.883  0.00  0.00    +0.085 C 
ATOM     15  C   UNL     1      31.906 -12.931 -22.233  0.00  0.00    +0.117 C 
ATOM     16  C   UNL     1      33.719 -13.904 -23.066  0.00  0.00    +0.190 C 
ATOM     17  H   UNL     1      34.631 -12.202 -23.859  0.00  0.00    +0.155 HD
ATOM     18  H   UNL     1      35.602 -14.351 -23.519  0.00  0.00    +0.155 HD
ENDBRANCH   5  12
TORSDOF 1
ENDMDL
MODEL 6
REMARK VINA RESULT:      -7.5     11.437     13.349
REMARK  Name = 5487
REMARK  1 active torsions:
REMARK  status: ('A' for Active; 'I' for Inactive)
REMARK    1  A    between atoms: C_5  and  N_12
REMARK                            x       y       z     vdW  Elec       q    Type
REMARK                         _______ _______ _______ _____ _____    ______ ____
ROOT
ATOM      1 CL   UNL     1      33.420 -14.722 -20.231  0.00  0.00    -0.081 Cl
ATOM      2  S   UNL     1      33.149 -14.855 -26.635  0.00  0.00    +0.117 S 
ATOM      3  N   UNL     1      32.525 -14.098 -25.296  0.00  0.00    -0.189 NA
ATOM      4  N   UNL     1      34.197 -15.930 -25.925  0.00  0.00    -0.190 NA
ATOM      5  C   UNL     1      32.885 -14.323 -22.873  0.00  0.00    +0.081 C 
ATOM      6  C   UNL     1      33.115 -14.659 -24.228  0.00  0.00    +0.123 A 
ATOM      7  C   UNL     1      34.100 -15.740 -24.599  0.00  0.00    +0.110 A 
ATOM      8  C   UNL     1      33.623 -15.052 -21.925  0.00  0.00    +0.073 C 
ATOM      9  C   UNL     1      34.817 -16.442 -23.600  0.00  0.00    +0.022 C 
ATOM     10  C   UNL     1      34.547 -16.065 -22.272  0.00  0.00    +0.014 C 
ENDROOT
BRANCH   5  12
ATOM     11  N   UNL     1      31.478 -11.254 -21.584  0.00  0.00    -0.284 N 
ATOM     12  N   UNL     1      31.973 -13.320 -22.497  0.00  0.00    -0.284 N 
ATOM     13  N   UNL     1      32.938 -11.308 -23.321  0.00  0.00    -0.214 NA
ATOM     14  C   UNL     1      31.778  -9.862 -21.722  0.00  0.00    +0.085 C 
ATOM     15  C   UNL     1      32.769  -9.886 -22.893  0.00  0.00    +0.117 C 
ATOM     16  C   UNL     1      32.162 -11.986 -22.508  0.00  0.00    +0.190 C 
ATOM     17  H   UNL     1      30.863 -11.631 -20.913  0.00  0.00    +0.155 HD
ATOM     18  H   UNL     1      31.092 -13.631 -22.189  0.00  0.00    +0.155 HD
ENDBRANCH   5  12
TORSDOF 1
ENDMDL
MODEL 7
REMARK VINA RESULT:      -7.4      8.454     10.145
REMARK  Name = 5487
REMARK  1 active torsions:
REMARK  status: ('A' for Active; 'I' for Inactive)
REMARK    1  A    between atoms: C_5  and  N_12
REMARK                            x       y       z     vdW  Elec       q    Type
REMARK                         _______ _______ _______ _____ _____    ______ ____
ROOT
ATOM      1 CL   UNL     1      34.622 -15.612 -19.951  0.00  0.00    -0.081 Cl
ATOM      2  S   UNL     1      33.307 -15.209 -26.213  0.00  0.00    +0.117 S 
ATOM      3  N   UNL     1      34.171 -16.077 -25.092  0.00  0.00    -0.189 NA
ATOM      4  N   UNL     1      32.573 -14.083 -25.237  0.00  0.00    -0.190 NA
ATOM      5  C   UNL     1      34.446 -15.934 -22.651  0.00  0.00    +0.081 C 
ATOM      6  C   UNL     1      33.919 -15.518 -23.897  0.00  0.00    +0.123 A 
ATOM      7  C   UNL     1      32.978 -14.342 -23.983  0.00  0.00    +0.110 A 
ATOM      8  C   UNL     1      34.037 -15.189 -21.532  0.00  0.00    +0.073 C 
ATOM      9  C   UNL     1      32.600 -13.628 -22.820  0.00  0.00    +0.022 C 
ATOM     10  C   UNL     1      33.155 -14.087 -21.612  0.00  0.00    +0.014 C 
ENDROOT
BRANCH   5  12
ATOM     11  N   UNL     1      36.265 -18.772 -21.350  0.00  0.00    -0.284 N 
ATOM     12  N   UNL     1      35.325 -17.026 -22.540  0.00  0.00    -0.284 N 
ATOM     13  N   UNL     1      34.006 -18.746 -21.560  0.00  0.00    -0.214 NA
ATOM     14  C   UNL     1      35.918 -19.958 -20.629  0.00  0.00    +0.085 C 
ATOM     15  C   UNL     1      34.389 -19.949 -20.762  0.00  0.00    +0.117 C 
ATOM     16  C   UNL     1      35.148 -18.160 -21.834  0.00  0.00    +0.190 C 
ATOM     17  H   UNL     1      37.185 -18.443 -21.478  0.00  0.00    +0.155 HD
ATOM     18  H   UNL     1      36.171 -16.952 -23.037  0.00  0.00    +0.155 HD
ENDBRANCH   5  12
TORSDOF 1
ENDMDL
MODEL 8
REMARK VINA RESULT:      -7.3      2.960      5.905
REMARK  Name = 5487
REMARK  1 active torsions:
REMARK  status: ('A' for Active; 'I' for Inactive)
REMARK    1  A    between atoms: C_5  and  N_12
REMARK                            x       y       z     vdW  Elec       q    Type
REMARK                         _______ _______ _______ _____ _____    ______ ____
ROOT
ATOM      1 CL   UNL     1      36.621 -27.152 -15.934  0.00  0.00    -0.081 Cl
ATOM      2  S   UNL     1      37.246 -22.748 -11.318  0.00  0.00    +0.117 S 
ATOM      3  N   UNL     1      36.138 -23.467 -12.325  0.00  0.00    -0.189 NA
ATOM      4  N   UNL     1      38.635 -23.538 -11.768  0.00  0.00    -0.190 NA
ATOM      5  C   UNL     1      36.271 -25.210 -14.055  0.00  0.00    +0.081 C 
ATOM      6  C   UNL     1      36.816 -24.363 -13.061  0.00  0.00    +0.123 A 
ATOM      7  C   UNL     1      38.288 -24.404 -12.733  0.00  0.00    +0.110 A 
ATOM      8  C   UNL     1      37.181 -26.069 -14.696  0.00  0.00    +0.073 C 
ATOM      9  C   UNL     1      39.158 -25.291 -13.412  0.00  0.00    +0.022 C 
ATOM     10  C   UNL     1      38.560 -26.108 -14.389  0.00  0.00    +0.014 C 
ENDROOT
BRANCH   5  12
ATOM     11  N   UNL     1      32.977 -24.092 -15.032  0.00  0.00    -0.284 N 
ATOM     12  N   UNL     1      34.904 -25.194 -14.383  0.00  0.00    -0.284 N 
ATOM     13  N   UNL     1      34.793 -23.908 -16.381  0.00  0.00    -0.214 NA
ATOM     14  C   UNL     1      32.453 -23.259 -16.071  0.00  0.00    +0.085 C 
ATOM     15  C   UNL     1      33.675 -23.124 -16.988  0.00  0.00    +0.117 C 
ATOM     16  C   UNL     1      34.279 -24.407 -15.281  0.00  0.00    +0.190 C 
ATOM     17  H   UNL     1      32.467 -24.396 -14.247  0.00  0.00    +0.155 HD
ATOM     18  H   UNL     1      34.335 -25.834 -13.898  0.00  0.00    +0.155 HD
ENDBRANCH   5  12
TORSDOF 1
ENDMDL
MODEL 9
REMARK VINA RESULT:      -7.1      3.021      5.347
REMARK  Name = 5487
REMARK  1 active torsions:
REMARK  status: ('A' for Active; 'I' for Inactive)
REMARK    1  A    between atoms: C_5  and  N_12
REMARK                            x       y       z     vdW  Elec       q    Type
REMARK                         _______ _______ _______ _____ _____    ______ ____
ROOT
ATOM      1 CL   UNL     1      34.169 -22.896 -14.604  0.00  0.00    -0.081 Cl
ATOM      2  S   UNL     1      40.132 -25.228 -14.914  0.00  0.00    +0.117 S 
ATOM      3  N   UNL     1      39.159 -23.997 -15.456  0.00  0.00    -0.189 NA
ATOM      4  N   UNL     1      39.062 -26.080 -13.972  0.00  0.00    -0.190 NA
ATOM      5  C   UNL     1      36.799 -23.396 -15.109  0.00  0.00    +0.081 C 
ATOM      6  C   UNL     1      37.945 -24.203 -14.919  0.00  0.00    +0.123 A 
ATOM      7  C   UNL     1      37.888 -25.431 -14.044  0.00  0.00    +0.110 A 
ATOM      8  C   UNL     1      35.635 -23.813 -14.441  0.00  0.00    +0.073 C 
ATOM      9  C   UNL     1      36.686 -25.803 -13.394  0.00  0.00    +0.022 C 
ATOM     10  C   UNL     1      35.581 -24.964 -13.621  0.00  0.00    +0.014 C 
ENDROOT
BRANCH   5  12
ATOM     11  N   UNL     1      36.927 -21.209 -17.983  0.00  0.00    -0.284 N 
ATOM     12  N   UNL     1      36.822 -22.246 -15.919  0.00  0.00    -0.284 N 
ATOM     13  N   UNL     1      35.263 -22.716 -17.653  0.00  0.00    -0.214 NA
ATOM     14  C   UNL     1      36.267 -21.158 -19.252  0.00  0.00    +0.085 C 
ATOM     15  C   UNL     1      35.140 -22.178 -19.041  0.00  0.00    +0.117 C 
ATOM     16  C   UNL     1      36.307 -22.096 -17.156  0.00  0.00    +0.190 C 
ATOM     17  H   UNL     1      37.720 -20.676 -17.742  0.00  0.00    +0.155 HD
ATOM     18  H   UNL     1      37.267 -21.456 -15.536  0.00  0.00    +0.155 HD
ENDBRANCH   5  12
TORSDOF 1
ENDMDL
