MODEL 1
REMARK VINA RESULT:     -11.7      0.000      0.000
REMARK  Name = 11626560
REMARK  5 active torsions:
REMARK  status: ('A' for Active; 'I' for Inactive)
REMARK    1  A    between atoms: C_2  and  C_10
REMARK    2  A    between atoms: C_5  and  O_23
REMARK    3  A    between atoms: N_7  and  C_13
REMARK    4  A    between atoms: O_23  and  C_24
REMARK    5  A    between atoms: C_24  and  C_29
REMARK                            x       y       z     vdW  Elec       q    Type
REMARK                         _______ _______ _______ _____ _____    ______ ____
ROOT
ATOM      1  N   UNL     1      33.703 -16.538 -25.979  0.00  0.00    -0.226 NA
ATOM      2  C   UNL     1      33.708 -14.768 -24.329  0.00  0.00    +0.025 C 
ATOM      3  C   UNL     1      34.275 -15.634 -23.397  0.00  0.00    +0.041 C 
ATOM      4  C   UNL     1      33.445 -15.267 -25.595  0.00  0.00    +0.101 C 
ATOM      5  C   UNL     1      34.556 -16.947 -23.754  0.00  0.00    +0.170 C 
ATOM      6  C   UNL     1      34.254 -17.347 -25.046  0.00  0.00    +0.160 C 
ATOM      7  N   UNL     1      34.541 -18.685 -25.413  0.00  0.00    -0.340 N 
ATOM      8  H   UNL     1      34.338 -19.001 -26.323  0.00  0.00    +0.144 HD
ATOM      9  H   UNL     1      34.943 -19.300 -24.756  0.00  0.00    +0.144 HD
ENDROOT
BRANCH   2  13
ATOM     10  N   UNL     1      32.613 -11.672 -22.942  0.00  0.00    -0.212 N 
ATOM     11  N   UNL     1      33.275 -11.131 -23.975  0.00  0.00    -0.176 NA
ATOM     12  C   UNL     1      32.661 -13.032 -22.902  0.00  0.00    +0.086 C 
ATOM     13  C   UNL     1      33.408 -13.411 -23.991  0.00  0.00    +0.039 C 
ATOM     14  C   UNL     1      33.760 -12.198 -24.615  0.00  0.00    +0.119 C 
BRANCH  10  16
ATOM     15  N   UNL     1      31.779  -9.196 -19.545  0.00  0.00    +0.384 N 
ATOM     16  C   UNL     1      31.927 -10.800 -21.983  0.00  0.00    +0.092 C 
ATOM     17  C   UNL     1      32.573  -9.410 -21.878  0.00  0.00    -0.002 C 
ATOM     18  C   UNL     1      31.793 -11.438 -20.591  0.00  0.00    -0.002 C 
ATOM     19  C   UNL     1      31.841  -8.544 -20.854  0.00  0.00    -0.080 C 
ATOM     20  C   UNL     1      31.093 -10.486 -19.620  0.00  0.00    -0.080 C 
ATOM     21  H   UNL     1      31.276  -8.591 -18.896  0.00  0.00    -0.085 HD
ATOM     22  H   UNL     1      32.733  -9.359 -19.223  0.00  0.00    -0.085 HD
ENDBRANCH  10  16
ENDBRANCH   2  13
BRANCH   5  23
ATOM     23  O   UNL     1      35.110 -17.792 -22.846  0.00  0.00    -0.472 OA
BRANCH  23  24
ATOM     24  C   UNL     1      34.469 -17.895 -21.574  0.00  0.00    +0.190 C 
ATOM     25  C   UNL     1      34.900 -16.728 -20.693  0.00  0.00    +0.052 C 
BRANCH  24  29
ATOM     26 CL   UNL     1      32.141 -19.500 -20.438  0.00  0.00    -0.080 Cl
ATOM     27 CL   UNL     1      37.410 -18.710 -21.584  0.00  0.00    -0.082 Cl
ATOM     28  F   UNL     1      33.144 -22.022 -19.318  0.00  0.00    -0.203 F 
ATOM     29  C   UNL     1      34.806 -19.230 -20.953  0.00  0.00    +0.041 C 
ATOM     30  C   UNL     1      33.791 -20.013 -20.416  0.00  0.00    +0.085 C 
ATOM     31  C   UNL     1      36.127 -19.660 -20.926  0.00  0.00    +0.058 C 
ATOM     32  C   UNL     1      34.103 -21.246 -19.843  0.00  0.00    +0.150 C 
ATOM     33  C   UNL     1      36.438 -20.892 -20.353  0.00  0.00    +0.014 C 
ATOM     34  C   UNL     1      35.427 -21.685 -19.811  0.00  0.00    +0.031 C 
ENDBRANCH  24  29
ENDBRANCH  23  24
ENDBRANCH   5  23
TORSDOF 5
ENDMDL
MODEL 2
REMARK VINA RESULT:     -11.7      1.253      1.856
REMARK  Name = 11626560
REMARK  5 active torsions:
REMARK  status: ('A' for Active; 'I' for Inactive)
REMARK    1  A    between atoms: C_2  and  C_10
REMARK    2  A    between atoms: C_5  and  O_23
REMARK    3  A    between atoms: N_7  and  C_13
REMARK    4  A    between atoms: O_23  and  C_24
REMARK    5  A    between atoms: C_24  and  C_29
REMARK                            x       y       z     vdW  Elec       q    Type
REMARK                         _______ _______ _______ _____ _____    ______ ____
ROOT
ATOM      1  N   UNL     1      33.862 -16.447 -25.933  0.00  0.00    -0.226 NA
ATOM      2  C   UNL     1      33.619 -14.866 -24.116  0.00  0.00    +0.025 C 
ATOM      3  C   UNL     1      34.149 -15.799 -23.229  0.00  0.00    +0.041 C 
ATOM      4  C   UNL     1      33.498 -15.239 -25.446  0.00  0.00    +0.101 C 
ATOM      5  C   UNL     1      34.535 -17.052 -23.690  0.00  0.00    +0.170 C 
ATOM      6  C   UNL     1      34.372 -17.325 -25.039  0.00  0.00    +0.160 C 
ATOM      7  N   UNL     1      34.768 -18.600 -25.512  0.00  0.00    -0.340 N 
ATOM      8  H   UNL     1      34.665 -18.827 -26.465  0.00  0.00    +0.144 HD
ATOM      9  H   UNL     1      35.144 -19.262 -24.887  0.00  0.00    +0.144 HD
ENDROOT
BRANCH   2  13
ATOM     10  N   UNL     1      33.040 -11.401 -23.512  0.00  0.00    -0.212 N 
ATOM     11  N   UNL     1      32.214 -11.846 -22.553  0.00  0.00    -0.176 NA
ATOM     12  C   UNL     1      33.662 -12.390 -24.212  0.00  0.00    +0.086 C 
ATOM     13  C   UNL     1      33.212 -13.569 -23.671  0.00  0.00    +0.039 C 
ATOM     14  C   UNL     1      32.323 -13.173 -22.653  0.00  0.00    +0.119 C 
BRANCH  10  16
ATOM     15  N   UNL     1      34.284  -7.323 -23.078  0.00  0.00    +0.384 N 
ATOM     16  C   UNL     1      33.198  -9.959 -23.722  0.00  0.00    +0.092 C 
ATOM     17  C   UNL     1      34.643  -9.564 -24.064  0.00  0.00    -0.002 C 
ATOM     18  C   UNL     1      32.677  -9.126 -22.540  0.00  0.00    -0.002 C 
ATOM     19  C   UNL     1      34.765  -8.052 -24.252  0.00  0.00    -0.080 C 
ATOM     20  C   UNL     1      32.882  -7.632 -22.793  0.00  0.00    -0.080 C 
ATOM     21  H   UNL     1      34.374  -6.322 -23.249  0.00  0.00    -0.085 HD
ATOM     22  H   UNL     1      34.843  -7.606 -22.274  0.00  0.00    -0.085 HD
ENDBRANCH  10  16
ENDBRANCH   2  13
BRANCH   5  23
ATOM     23  O   UNL     1      35.053 -17.962 -22.825  0.00  0.00    -0.472 OA
BRANCH  23  24
ATOM     24  C   UNL     1      34.493 -18.008 -21.512  0.00  0.00    +0.190 C 
ATOM     25  C   UNL     1      35.016 -16.831 -20.697  0.00  0.00    +0.052 C 
BRANCH  24  29
ATOM     26 CL   UNL     1      32.158 -19.619 -20.400  0.00  0.00    -0.080 Cl
ATOM     27 CL   UNL     1      37.440 -18.802 -21.466  0.00  0.00    -0.082 Cl
ATOM     28  F   UNL     1      33.159 -22.123 -19.241  0.00  0.00    -0.203 F 
ATOM     29  C   UNL     1      34.829 -19.335 -20.873  0.00  0.00    +0.041 C 
ATOM     30  C   UNL     1      33.810 -20.119 -20.346  0.00  0.00    +0.085 C 
ATOM     31  C   UNL     1      36.152 -19.755 -20.821  0.00  0.00    +0.058 C 
ATOM     32  C   UNL     1      34.121 -21.345 -19.757  0.00  0.00    +0.150 C 
ATOM     33  C   UNL     1      36.462 -20.980 -20.231  0.00  0.00    +0.014 C 
ATOM     34  C   UNL     1      35.447 -21.774 -19.699  0.00  0.00    +0.031 C 
ENDBRANCH  24  29
ENDBRANCH  23  24
ENDBRANCH   5  23
TORSDOF 5
ENDMDL
MODEL 3
REMARK VINA RESULT:     -11.7      0.813      1.845
REMARK  Name = 11626560
REMARK  5 active torsions:
REMARK  status: ('A' for Active; 'I' for Inactive)
REMARK    1  A    between atoms: C_2  and  C_10
REMARK    2  A    between atoms: C_5  and  O_23
REMARK    3  A    between atoms: N_7  and  C_13
REMARK    4  A    between atoms: O_23  and  C_24
REMARK    5  A    between atoms: C_24  and  C_29
REMARK                            x       y       z     vdW  Elec       q    Type
REMARK                         _______ _______ _______ _____ _____    ______ ____
ROOT
ATOM      1  N   UNL     1      33.758 -16.341 -25.978  0.00  0.00    -0.226 NA
ATOM      2  C   UNL     1      33.724 -14.587 -24.310  0.00  0.00    +0.025 C 
ATOM      3  C   UNL     1      34.238 -15.471 -23.365  0.00  0.00    +0.041 C 
ATOM      4  C   UNL     1      33.503 -15.070 -25.591  0.00  0.00    +0.101 C 
ATOM      5  C   UNL     1      34.512 -16.786 -23.724  0.00  0.00    +0.170 C 
ATOM      6  C   UNL     1      34.257 -17.168 -25.031  0.00  0.00    +0.160 C 
ATOM      7  N   UNL     1      34.538 -18.507 -25.400  0.00  0.00    -0.340 N 
ATOM      8  H   UNL     1      34.367 -18.811 -26.321  0.00  0.00    +0.144 HD
ATOM      9  H   UNL     1      34.903 -19.134 -24.735  0.00  0.00    +0.144 HD
ENDROOT
BRANCH   2  13
ATOM     10  N   UNL     1      32.646 -11.487 -22.919  0.00  0.00    -0.212 N 
ATOM     11  N   UNL     1      33.313 -10.948 -23.951  0.00  0.00    -0.176 NA
ATOM     12  C   UNL     1      32.685 -12.848 -22.881  0.00  0.00    +0.086 C 
ATOM     13  C   UNL     1      33.432 -13.229 -23.970  0.00  0.00    +0.039 C 
ATOM     14  C   UNL     1      33.791 -12.018 -24.592  0.00  0.00    +0.119 C 
BRANCH  10  16
ATOM     15  N   UNL     1      31.823  -9.009 -19.521  0.00  0.00    +0.384 N 
ATOM     16  C   UNL     1      31.964 -10.613 -21.960  0.00  0.00    +0.092 C 
ATOM     17  C   UNL     1      32.617  -9.226 -21.854  0.00  0.00    -0.002 C 
ATOM     18  C   UNL     1      31.826 -11.250 -20.569  0.00  0.00    -0.002 C 
ATOM     19  C   UNL     1      31.889  -8.357 -20.829  0.00  0.00    -0.080 C 
ATOM     20  C   UNL     1      31.130 -10.296 -19.597  0.00  0.00    -0.080 C 
ATOM     21  H   UNL     1      31.322  -8.403 -18.872  0.00  0.00    -0.085 HD
ATOM     22  H   UNL     1      32.776  -9.178 -19.199  0.00  0.00    -0.085 HD
ENDBRANCH  10  16
ENDBRANCH   2  13
BRANCH   5  23
ATOM     23  O   UNL     1      35.016 -17.649 -22.803  0.00  0.00    -0.472 OA
BRANCH  23  24
ATOM     24  C   UNL     1      34.361 -17.705 -21.535  0.00  0.00    +0.190 C 
ATOM     25  C   UNL     1      34.918 -16.614 -20.628  0.00  0.00    +0.052 C 
BRANCH  24  29
ATOM     26 CL   UNL     1      37.205 -18.796 -21.454  0.00  0.00    -0.080 Cl
ATOM     27 CL   UNL     1      31.841 -19.113 -20.542  0.00  0.00    -0.082 Cl
ATOM     28  F   UNL     1      37.194 -21.473 -20.250  0.00  0.00    -0.203 F 
ATOM     29  C   UNL     1      34.541 -19.083 -20.943  0.00  0.00    +0.041 C 
ATOM     30  C   UNL     1      35.812 -19.640 -20.876  0.00  0.00    +0.085 C 
ATOM     31  C   UNL     1      33.434 -19.777 -20.472  0.00  0.00    +0.058 C 
ATOM     32  C   UNL     1      35.978 -20.912 -20.328  0.00  0.00    +0.150 C 
ATOM     33  C   UNL     1      33.600 -21.048 -19.925  0.00  0.00    +0.014 C 
ATOM     34  C   UNL     1      34.872 -21.616 -19.853  0.00  0.00    +0.031 C 
ENDBRANCH  24  29
ENDBRANCH  23  24
ENDBRANCH   5  23
TORSDOF 5
ENDMDL
MODEL 4
REMARK VINA RESULT:     -11.1      4.511      9.047
REMARK  Name = 11626560
REMARK  5 active torsions:
REMARK  status: ('A' for Active; 'I' for Inactive)
REMARK    1  A    between atoms: C_2  and  C_10
REMARK    2  A    between atoms: C_5  and  O_23
REMARK    3  A    between atoms: N_7  and  C_13
REMARK    4  A    between atoms: O_23  and  C_24
REMARK    5  A    between atoms: C_24  and  C_29
REMARK                            x       y       z     vdW  Elec       q    Type
REMARK                         _______ _______ _______ _____ _____    ______ ____
ROOT
ATOM      1  N   UNL     1      33.560 -15.384 -26.286  0.00  0.00    -0.226 NA
ATOM      2  C   UNL     1      34.110 -15.585 -23.938  0.00  0.00    +0.025 C 
ATOM      3  C   UNL     1      33.951 -14.211 -23.779  0.00  0.00    +0.041 C 
ATOM      4  C   UNL     1      33.904 -16.115 -25.202  0.00  0.00    +0.101 C 
ATOM      5  C   UNL     1      33.598 -13.424 -24.869  0.00  0.00    +0.170 C 
ATOM      6  C   UNL     1      33.415 -14.053 -26.091  0.00  0.00    +0.160 C 
ATOM      7  N   UNL     1      33.052 -13.254 -27.203  0.00  0.00    -0.340 N 
ATOM      8  H   UNL     1      32.915 -13.669 -28.085  0.00  0.00    +0.144 HD
ATOM      9  H   UNL     1      32.938 -12.282 -27.094  0.00  0.00    +0.144 HD
ENDROOT
BRANCH   2  13
ATOM     10  N   UNL     1      34.887 -18.194 -21.637  0.00  0.00    -0.212 N 
ATOM     11  N   UNL     1      35.134 -17.187 -20.787  0.00  0.00    -0.176 NA
ATOM     12  C   UNL     1      34.490 -17.792 -22.876  0.00  0.00    +0.086 C 
ATOM     13  C   UNL     1      34.473 -16.419 -22.835  0.00  0.00    +0.039 C 
ATOM     14  C   UNL     1      34.879 -16.102 -21.523  0.00  0.00    +0.119 C 
BRANCH  10  16
ATOM     15  N   UNL     1      35.315 -21.658 -19.151  0.00  0.00    +0.384 N 
ATOM     16  C   UNL     1      35.058 -19.580 -21.189  0.00  0.00    +0.092 C 
ATOM     17  C   UNL     1      33.851 -20.099 -20.392  0.00  0.00    -0.002 C 
ATOM     18  C   UNL     1      36.357 -19.791 -20.395  0.00  0.00    -0.002 C 
ATOM     19  C   UNL     1      34.081 -21.536 -19.927  0.00  0.00    -0.080 C 
ATOM     20  C   UNL     1      36.483 -21.242 -19.929  0.00  0.00    -0.080 C 
ATOM     21  H   UNL     1      35.436 -22.631 -18.869  0.00  0.00    -0.085 HD
ATOM     22  H   UNL     1      35.242 -21.051 -18.335  0.00  0.00    -0.085 HD
ENDBRANCH  10  16
ENDBRANCH   2  13
BRANCH   5  23
ATOM     23  O   UNL     1      33.442 -12.083 -24.715  0.00  0.00    -0.472 OA
BRANCH  23  24
ATOM     24  C   UNL     1      33.331 -11.589 -23.380  0.00  0.00    +0.190 C 
ATOM     25  C   UNL     1      31.972 -11.977 -22.808  0.00  0.00    +0.052 C 
BRANCH  24  29
ATOM     26 CL   UNL     1      31.673  -9.972 -21.399  0.00  0.00    -0.080 Cl
ATOM     27 CL   UNL     1      35.366 -10.492 -25.373  0.00  0.00    -0.082 Cl
ATOM     28  F   UNL     1      32.321  -7.122 -21.674  0.00  0.00    -0.203 F 
ATOM     29  C   UNL     1      33.538 -10.092 -23.385  0.00  0.00    +0.041 C 
ATOM     30  C   UNL     1      32.813  -9.296 -22.507  0.00  0.00    +0.085 C 
ATOM     31  C   UNL     1      34.452  -9.530 -24.268  0.00  0.00    +0.058 C 
ATOM     32  C   UNL     1      33.006  -7.915 -22.511  0.00  0.00    +0.150 C 
ATOM     33  C   UNL     1      34.643  -8.149 -24.273  0.00  0.00    +0.014 C 
ATOM     34  C   UNL     1      33.920  -7.341 -23.395  0.00  0.00    +0.031 C 
ENDBRANCH  24  29
ENDBRANCH  23  24
ENDBRANCH   5  23
TORSDOF 5
ENDMDL
MODEL 5
REMARK VINA RESULT:     -11.1      4.969      7.990
REMARK  Name = 11626560
REMARK  5 active torsions:
REMARK  status: ('A' for Active; 'I' for Inactive)
REMARK    1  A    between atoms: C_2  and  C_10
REMARK    2  A    between atoms: C_5  and  O_23
REMARK    3  A    between atoms: N_7  and  C_13
REMARK    4  A    between atoms: O_23  and  C_24
REMARK    5  A    between atoms: C_24  and  C_29
REMARK                            x       y       z     vdW  Elec       q    Type
REMARK                         _______ _______ _______ _____ _____    ______ ____
ROOT
ATOM      1  N   UNL     1      32.767 -21.916 -19.151  0.00  0.00    -0.226 NA
ATOM      2  C   UNL     1      34.757 -20.745 -19.877  0.00  0.00    +0.025 C 
ATOM      3  C   UNL     1      35.518 -21.464 -18.959  0.00  0.00    +0.041 C 
ATOM      4  C   UNL     1      33.397 -21.008 -19.931  0.00  0.00    +0.101 C 
ATOM      5  C   UNL     1      34.907 -22.405 -18.139  0.00  0.00    +0.170 C 
ATOM      6  C   UNL     1      33.540 -22.592 -18.273  0.00  0.00    +0.160 C 
ATOM      7  N   UNL     1      32.916 -23.553 -17.440  0.00  0.00    -0.340 N 
ATOM      8  H   UNL     1      31.946 -23.710 -17.509  0.00  0.00    +0.144 HD
ATOM      9  H   UNL     1      33.451 -24.064 -16.790  0.00  0.00    +0.144 HD
ENDROOT
BRANCH   2  13
ATOM     10  N   UNL     1      35.587 -18.151 -22.175  0.00  0.00    -0.212 N 
ATOM     11  N   UNL     1      36.853 -18.462 -21.860  0.00  0.00    -0.176 NA
ATOM     12  C   UNL     1      34.652 -18.901 -21.529  0.00  0.00    +0.086 C 
ATOM     13  C   UNL     1      35.358 -19.770 -20.733  0.00  0.00    +0.039 C 
ATOM     14  C   UNL     1      36.708 -19.454 -20.978  0.00  0.00    +0.119 C 
BRANCH  10  16
ATOM     15  N   UNL     1      33.573 -15.365 -24.735  0.00  0.00    +0.384 N 
ATOM     16  C   UNL     1      35.323 -17.078 -23.140  0.00  0.00    +0.092 C 
ATOM     17  C   UNL     1      34.543 -15.906 -22.524  0.00  0.00    -0.002 C 
ATOM     18  C   UNL     1      34.622 -17.582 -24.411  0.00  0.00    -0.002 C 
ATOM     19  C   UNL     1      34.271 -14.823 -23.569  0.00  0.00    -0.080 C 
ATOM     20  C   UNL     1      34.346 -16.429 -25.376  0.00  0.00    -0.080 C 
ATOM     21  H   UNL     1      33.421 -14.615 -25.409  0.00  0.00    -0.085 HD
ATOM     22  H   UNL     1      32.686 -15.759 -24.423  0.00  0.00    -0.085 HD
ENDBRANCH  10  16
ENDBRANCH   2  13
BRANCH   5  23
ATOM     23  O   UNL     1      35.649 -23.108 -17.243  0.00  0.00    -0.472 OA
BRANCH  23  24
ATOM     24  C   UNL     1      36.053 -22.427 -16.054  0.00  0.00    +0.190 C 
ATOM     25  C   UNL     1      37.329 -21.641 -16.329  0.00  0.00    +0.052 C 
BRANCH  24  29
ATOM     26 CL   UNL     1      38.812 -23.694 -15.793  0.00  0.00    -0.080 Cl
ATOM     27 CL   UNL     1      33.619 -22.985 -14.298  0.00  0.00    -0.082 Cl
ATOM     28  F   UNL     1      38.814 -25.586 -13.549  0.00  0.00    -0.203 F 
ATOM     29  C   UNL     1      36.234 -23.434 -14.942  0.00  0.00    +0.041 C 
ATOM     30  C   UNL     1      37.467 -24.049 -14.768  0.00  0.00    +0.085 C 
ATOM     31  C   UNL     1      35.164 -23.732 -14.107  0.00  0.00    +0.058 C 
ATOM     32  C   UNL     1      37.634 -24.977 -13.741  0.00  0.00    +0.150 C 
ATOM     33  C   UNL     1      35.332 -24.661 -13.081  0.00  0.00    +0.014 C 
ATOM     34  C   UNL     1      36.566 -25.284 -12.897  0.00  0.00    +0.031 C 
ENDBRANCH  24  29
ENDBRANCH  23  24
ENDBRANCH   5  23
TORSDOF 5
ENDMDL
MODEL 6
REMARK VINA RESULT:     -11.0      4.479      9.179
REMARK  Name = 11626560
REMARK  5 active torsions:
REMARK  status: ('A' for Active; 'I' for Inactive)
REMARK    1  A    between atoms: C_2  and  C_10
REMARK    2  A    between atoms: C_5  and  O_23
REMARK    3  A    between atoms: N_7  and  C_13
REMARK    4  A    between atoms: O_23  and  C_24
REMARK    5  A    between atoms: C_24  and  C_29
REMARK                            x       y       z     vdW  Elec       q    Type
REMARK                         _______ _______ _______ _____ _____    ______ ____
ROOT
ATOM      1  N   UNL     1      33.721 -15.670 -26.230  0.00  0.00    -0.226 NA
ATOM      2  C   UNL     1      34.128 -15.891 -23.854  0.00  0.00    +0.025 C 
ATOM      3  C   UNL     1      33.768 -14.559 -23.665  0.00  0.00    +0.041 C 
ATOM      4  C   UNL     1      34.088 -16.392 -25.146  0.00  0.00    +0.101 C 
ATOM      5  C   UNL     1      33.386 -13.784 -24.754  0.00  0.00    +0.170 C 
ATOM      6  C   UNL     1      33.380 -14.381 -26.004  0.00  0.00    +0.160 C 
ATOM      7  N   UNL     1      32.988 -13.594 -27.115  0.00  0.00    -0.340 N 
ATOM      8  H   UNL     1      32.972 -13.987 -28.018  0.00  0.00    +0.144 HD
ATOM      9  H   UNL     1      32.732 -12.652 -26.985  0.00  0.00    +0.144 HD
ENDROOT
BRANCH   2  13
ATOM     10  N   UNL     1      34.939 -18.474 -21.535  0.00  0.00    -0.212 N 
ATOM     11  N   UNL     1      35.285 -17.457 -20.732  0.00  0.00    -0.176 NA
ATOM     12  C   UNL     1      34.480 -18.086 -22.757  0.00  0.00    +0.086 C 
ATOM     13  C   UNL     1      34.526 -16.713 -22.753  0.00  0.00    +0.039 C 
ATOM     14  C   UNL     1      35.030 -16.381 -21.481  0.00  0.00    +0.119 C 
BRANCH  10  16
ATOM     15  N   UNL     1      35.303 -21.896 -18.981  0.00  0.00    +0.384 N 
ATOM     16  C   UNL     1      35.079 -19.854 -21.060  0.00  0.00    +0.092 C 
ATOM     17  C   UNL     1      33.867 -20.324 -20.240  0.00  0.00    -0.002 C 
ATOM     18  C   UNL     1      36.380 -20.083 -20.275  0.00  0.00    -0.002 C 
ATOM     19  C   UNL     1      34.065 -21.757 -19.747  0.00  0.00    -0.080 C 
ATOM     20  C   UNL     1      36.472 -21.527 -19.780  0.00  0.00    -0.080 C 
ATOM     21  H   UNL     1      35.401 -22.865 -18.681  0.00  0.00    -0.085 HD
ATOM     22  H   UNL     1      35.255 -21.270 -18.177  0.00  0.00    -0.085 HD
ENDBRANCH  10  16
ENDBRANCH   2  13
BRANCH   5  23
ATOM     23  O   UNL     1      33.034 -12.485 -24.570  0.00  0.00    -0.472 OA
BRANCH  23  24
ATOM     24  C   UNL     1      33.191 -11.946 -23.257  0.00  0.00    +0.190 C 
ATOM     25  C   UNL     1      32.236 -12.652 -22.302  0.00  0.00    +0.052 C 
BRANCH  24  29
ATOM     26 CL   UNL     1      35.327 -10.257 -24.625  0.00  0.00    -0.080 Cl
ATOM     27 CL   UNL     1      30.620 -10.930 -21.964  0.00  0.00    -0.082 Cl
ATOM     28  F   UNL     1      34.551  -7.428 -24.529  0.00  0.00    -0.203 F 
ATOM     29  C   UNL     1      32.952 -10.454 -23.300  0.00  0.00    +0.041 C 
ATOM     30  C   UNL     1      33.887  -9.627 -23.908  0.00  0.00    +0.085 C 
ATOM     31  C   UNL     1      31.800  -9.929 -22.729  0.00  0.00    +0.058 C 
ATOM     32  C   UNL     1      33.666  -8.250 -23.948  0.00  0.00    +0.150 C 
ATOM     33  C   UNL     1      31.579  -8.553 -22.768  0.00  0.00    +0.014 C 
ATOM     34  C   UNL     1      32.512  -7.713 -23.376  0.00  0.00    +0.031 C 
ENDBRANCH  24  29
ENDBRANCH  23  24
ENDBRANCH   5  23
TORSDOF 5
ENDMDL
MODEL 7
REMARK VINA RESULT:     -11.0      5.247      8.281
REMARK  Name = 11626560
REMARK  5 active torsions:
REMARK  status: ('A' for Active; 'I' for Inactive)
REMARK    1  A    between atoms: C_2  and  C_10
REMARK    2  A    between atoms: C_5  and  O_23
REMARK    3  A    between atoms: N_7  and  C_13
REMARK    4  A    between atoms: O_23  and  C_24
REMARK    5  A    between atoms: C_24  and  C_29
REMARK                            x       y       z     vdW  Elec       q    Type
REMARK                         _______ _______ _______ _____ _____    ______ ____
ROOT
ATOM      1  N   UNL     1      32.759 -22.180 -18.792  0.00  0.00    -0.226 NA
ATOM      2  C   UNL     1      34.796 -21.093 -19.517  0.00  0.00    +0.025 C 
ATOM      3  C   UNL     1      35.518 -21.797 -18.556  0.00  0.00    +0.041 C 
ATOM      4  C   UNL     1      33.431 -21.320 -19.591  0.00  0.00    +0.101 C 
ATOM      5  C   UNL     1      34.864 -22.689 -17.716  0.00  0.00    +0.170 C 
ATOM      6  C   UNL     1      33.495 -22.844 -17.872  0.00  0.00    +0.160 C 
ATOM      7  N   UNL     1      32.827 -23.755 -17.018  0.00  0.00    -0.340 N 
ATOM      8  H   UNL     1      31.855 -23.888 -17.102  0.00  0.00    +0.144 HD
ATOM      9  H   UNL     1      33.334 -24.255 -16.338  0.00  0.00    +0.144 HD
ENDROOT
BRANCH   2  13
ATOM     10  N   UNL     1      35.749 -18.645 -21.927  0.00  0.00    -0.212 N 
ATOM     11  N   UNL     1      36.995 -18.914 -21.507  0.00  0.00    -0.176 NA
ATOM     12  C   UNL     1      34.782 -19.366 -21.295  0.00  0.00    +0.086 C 
ATOM     13  C   UNL     1      35.442 -20.168 -20.396  0.00  0.00    +0.039 C 
ATOM     14  C   UNL     1      36.802 -19.847 -20.571  0.00  0.00    +0.119 C 
BRANCH  10  16
ATOM     15  N   UNL     1      33.875 -16.016 -24.744  0.00  0.00    +0.384 N 
ATOM     16  C   UNL     1      35.538 -17.645 -22.978  0.00  0.00    +0.092 C 
ATOM     17  C   UNL     1      34.778 -16.408 -22.475  0.00  0.00    -0.002 C 
ATOM     18  C   UNL     1      34.853 -18.228 -24.224  0.00  0.00    -0.002 C 
ATOM     19  C   UNL     1      34.561 -15.403 -23.606  0.00  0.00    -0.080 C 
ATOM     20  C   UNL     1      34.633 -17.147 -25.282  0.00  0.00    -0.080 C 
ATOM     21  H   UNL     1      33.760 -15.317 -25.478  0.00  0.00    -0.085 HD
ATOM     22  H   UNL     1      32.970 -16.360 -24.426  0.00  0.00    -0.085 HD
ENDBRANCH  10  16
ENDBRANCH   2  13
BRANCH   5  23
ATOM     23  O   UNL     1      35.567 -23.377 -16.779  0.00  0.00    -0.472 OA
BRANCH  23  24
ATOM     24  C   UNL     1      36.057 -22.640 -15.658  0.00  0.00    +0.190 C 
ATOM     25  C   UNL     1      37.228 -21.768 -16.098  0.00  0.00    +0.052 C 
BRANCH  24  29
ATOM     26 CL   UNL     1      33.936 -23.244 -13.555  0.00  0.00    -0.080 Cl
ATOM     27 CL   UNL     1      38.886 -23.780 -15.772  0.00  0.00    -0.082 Cl
ATOM     28  F   UNL     1      35.018 -25.135 -11.587  0.00  0.00    -0.203 F 
ATOM     29  C   UNL     1      36.446 -23.602 -14.560  0.00  0.00    +0.041 C 
ATOM     30  C   UNL     1      35.526 -23.920 -13.569  0.00  0.00    +0.085 C 
ATOM     31  C   UNL     1      37.720 -24.156 -14.555  0.00  0.00    +0.058 C 
ATOM     32  C   UNL     1      35.886 -24.809 -12.556  0.00  0.00    +0.150 C 
ATOM     33  C   UNL     1      38.079 -25.044 -13.542  0.00  0.00    +0.014 C 
ATOM     34  C   UNL     1      37.163 -25.370 -12.542  0.00  0.00    +0.031 C 
ENDBRANCH  24  29
ENDBRANCH  23  24
ENDBRANCH   5  23
TORSDOF 5
ENDMDL
MODEL 8
REMARK VINA RESULT:     -10.9      5.279     10.422
REMARK  Name = 11626560
REMARK  5 active torsions:
REMARK  status: ('A' for Active; 'I' for Inactive)
REMARK    1  A    between atoms: C_2  and  C_10
REMARK    2  A    between atoms: C_5  and  O_23
REMARK    3  A    between atoms: N_7  and  C_13
REMARK    4  A    between atoms: O_23  and  C_24
REMARK    5  A    between atoms: C_24  and  C_29
REMARK                            x       y       z     vdW  Elec       q    Type
REMARK                         _______ _______ _______ _____ _____    ______ ____
ROOT
ATOM      1  N   UNL     1      31.603 -11.904 -19.906  0.00  0.00    -0.226 NA
ATOM      2  C   UNL     1      32.439 -12.346 -22.134  0.00  0.00    +0.025 C 
ATOM      3  C   UNL     1      32.261 -11.006 -22.470  0.00  0.00    +0.041 C 
ATOM      4  C   UNL     1      32.096 -12.738 -20.850  0.00  0.00    +0.101 C 
ATOM      5  C   UNL     1      31.756 -10.117 -21.529  0.00  0.00    +0.170 C 
ATOM      6  C   UNL     1      31.445 -10.612 -20.271  0.00  0.00    +0.160 C 
ATOM      7  N   UNL     1      30.932  -9.707 -19.309  0.00  0.00    -0.340 N 
ATOM      8  H   UNL     1      30.701 -10.026 -18.407  0.00  0.00    +0.144 HD
ATOM      9  H   UNL     1      30.806  -8.759 -19.543  0.00  0.00    +0.144 HD
ENDROOT
BRANCH   2  13
ATOM     10  N   UNL     1      33.948 -15.033 -23.925  0.00  0.00    -0.212 N 
ATOM     11  N   UNL     1      33.527 -14.367 -25.010  0.00  0.00    -0.176 NA
ATOM     12  C   UNL     1      33.632 -14.431 -22.745  0.00  0.00    +0.086 C 
ATOM     13  C   UNL     1      32.956 -13.283 -23.082  0.00  0.00    +0.039 C 
ATOM     14  C   UNL     1      32.922 -13.296 -24.490  0.00  0.00    +0.119 C 
BRANCH  10  16
ATOM     15  N   UNL     1      34.972 -19.194 -23.853  0.00  0.00    +0.384 N 
ATOM     16  C   UNL     1      34.676 -16.296 -24.086  0.00  0.00    +0.092 C 
ATOM     17  C   UNL     1      33.968 -17.270 -25.041  0.00  0.00    -0.002 C 
ATOM     18  C   UNL     1      34.978 -16.982 -22.744  0.00  0.00    -0.002 C 
ATOM     19  C   UNL     1      34.748 -18.579 -25.162  0.00  0.00    -0.080 C 
ATOM     20  C   UNL     1      35.716 -18.304 -22.962  0.00  0.00    -0.080 C 
ATOM     21  H   UNL     1      35.502 -20.056 -23.977  0.00  0.00    -0.085 HD
ATOM     22  H   UNL     1      34.064 -19.384 -23.429  0.00  0.00    -0.085 HD
ENDBRANCH  10  16
ENDBRANCH   2  13
BRANCH   5  23
ATOM     23  O   UNL     1      31.583  -8.810 -21.855  0.00  0.00    -0.472 OA
BRANCH  23  24
ATOM     24  C   UNL     1      32.734  -7.967 -21.802  0.00  0.00    +0.190 C 
ATOM     25  C   UNL     1      32.736  -7.194 -20.487  0.00  0.00    +0.052 C 
BRANCH  24  29
ATOM     26 CL   UNL     1      35.010  -8.320 -23.797  0.00  0.00    -0.080 Cl
ATOM     27 CL   UNL     1      30.455  -5.944 -21.979  0.00  0.00    -0.082 Cl
ATOM     28  F   UNL     1      34.704  -6.389 -25.986  0.00  0.00    -0.203 F 
ATOM     29  C   UNL     1      32.734  -7.047 -23.001  0.00  0.00    +0.041 C 
ATOM     30  C   UNL     1      33.743  -7.155 -23.948  0.00  0.00    +0.085 C 
ATOM     31  C   UNL     1      31.723  -6.104 -23.140  0.00  0.00    +0.058 C 
ATOM     32  C   UNL     1      33.742  -6.306 -25.055  0.00  0.00    +0.150 C 
ATOM     33  C   UNL     1      31.722  -5.255 -24.246  0.00  0.00    +0.014 C 
ATOM     34  C   UNL     1      32.732  -5.356 -25.204  0.00  0.00    +0.031 C 
ENDBRANCH  24  29
ENDBRANCH  23  24
ENDBRANCH   5  23
TORSDOF 5
ENDMDL
MODEL 9
REMARK VINA RESULT:     -10.9      5.433     10.377
REMARK  Name = 11626560
REMARK  5 active torsions:
REMARK  status: ('A' for Active; 'I' for Inactive)
REMARK    1  A    between atoms: C_2  and  C_10
REMARK    2  A    between atoms: C_5  and  O_23
REMARK    3  A    between atoms: N_7  and  C_13
REMARK    4  A    between atoms: O_23  and  C_24
REMARK    5  A    between atoms: C_24  and  C_29
REMARK                            x       y       z     vdW  Elec       q    Type
REMARK                         _______ _______ _______ _____ _____    ______ ____
ROOT
ATOM      1  N   UNL     1      31.586 -11.912 -19.918  0.00  0.00    -0.226 NA
ATOM      2  C   UNL     1      32.425 -12.371 -22.142  0.00  0.00    +0.025 C 
ATOM      3  C   UNL     1      32.256 -11.032 -22.485  0.00  0.00    +0.041 C 
ATOM      4  C   UNL     1      32.076 -12.755 -20.856  0.00  0.00    +0.101 C 
ATOM      5  C   UNL     1      31.755 -10.135 -21.550  0.00  0.00    +0.170 C 
ATOM      6  C   UNL     1      31.437 -10.621 -20.291  0.00  0.00    +0.160 C 
ATOM      7  N   UNL     1      30.928  -9.708 -19.335  0.00  0.00    -0.340 N 
ATOM      8  H   UNL     1      30.692 -10.020 -18.431  0.00  0.00    +0.144 HD
ATOM      9  H   UNL     1      30.809  -8.760 -19.574  0.00  0.00    +0.144 HD
ENDROOT
BRANCH   2  13
ATOM     10  N   UNL     1      33.936 -15.069 -23.914  0.00  0.00    -0.212 N 
ATOM     11  N   UNL     1      33.493 -14.423 -25.003  0.00  0.00    -0.176 NA
ATOM     12  C   UNL     1      33.630 -14.453 -22.739  0.00  0.00    +0.086 C 
ATOM     13  C   UNL     1      32.938 -13.317 -23.083  0.00  0.00    +0.039 C 
ATOM     14  C   UNL     1      32.884 -13.351 -24.490  0.00  0.00    +0.119 C 
BRANCH  10  16
ATOM     15  N   UNL     1      34.993 -19.221 -23.818  0.00  0.00    +0.384 N 
ATOM     16  C   UNL     1      34.674 -16.327 -24.067  0.00  0.00    +0.092 C 
ATOM     17  C   UNL     1      33.976 -17.312 -25.018  0.00  0.00    -0.002 C 
ATOM     18  C   UNL     1      34.981 -17.003 -22.722  0.00  0.00    -0.002 C 
ATOM     19  C   UNL     1      34.767 -18.615 -25.130  0.00  0.00    -0.080 C 
ATOM     20  C   UNL     1      35.729 -18.320 -22.930  0.00  0.00    -0.080 C 
ATOM     21  H   UNL     1      35.531 -20.080 -23.937  0.00  0.00    -0.085 HD
ATOM     22  H   UNL     1      34.086 -19.417 -23.394  0.00  0.00    -0.085 HD
ENDBRANCH  10  16
ENDBRANCH   2  13
BRANCH   5  23
ATOM     23  O   UNL     1      31.591  -8.829 -21.884  0.00  0.00    -0.472 OA
BRANCH  23  24
ATOM     24  C   UNL     1      32.746  -7.991 -21.825  0.00  0.00    +0.190 C 
ATOM     25  C   UNL     1      32.729  -7.195 -20.525  0.00  0.00    +0.052 C 
BRANCH  24  29
ATOM     26 CL   UNL     1      30.500  -5.946 -22.062  0.00  0.00    -0.080 Cl
ATOM     27 CL   UNL     1      35.042  -8.411 -23.793  0.00  0.00    -0.082 Cl
ATOM     28  F   UNL     1      30.855  -4.380 -24.520  0.00  0.00    -0.203 F 
ATOM     29  C   UNL     1      32.772  -7.093 -23.040  0.00  0.00    +0.041 C 
ATOM     30  C   UNL     1      31.777  -6.139 -23.210  0.00  0.00    +0.085 C 
ATOM     31  C   UNL     1      33.791  -7.234 -23.974  0.00  0.00    +0.058 C 
ATOM     32  C   UNL     1      31.802  -5.310 -24.331  0.00  0.00    +0.150 C 
ATOM     33  C   UNL     1      33.815  -6.405 -25.095  0.00  0.00    +0.014 C 
ATOM     34  C   UNL     1      32.821  -5.444 -25.275  0.00  0.00    +0.031 C 
ENDBRANCH  24  29
ENDBRANCH  23  24
ENDBRANCH   5  23
TORSDOF 5
ENDMDL
