MODEL 1
REMARK VINA RESULT:      -8.3      0.000      0.000
REMARK  Name = 5283820
REMARK  7 active torsions:
REMARK  status: ('A' for Active; 'I' for Inactive)
REMARK    1  A    between atoms: C_6  and  C_24
REMARK    2  A    between atoms: C_13  and  O_20
REMARK    3  A    between atoms: C_19  and  O_22
REMARK    4  A    between atoms: C_24  and  C_26
REMARK    5  A    between atoms: C_26  and  C_27
REMARK    6  A    between atoms: C_27  and  C_29
REMARK    7  A    between atoms: C_29  and  O_30
REMARK                            x       y       z     vdW  Elec       q    Type
REMARK                         _______ _______ _______ _____ _____    ______ ____
ROOT
ATOM      1  C   UNL     1      34.624 -16.339 -23.985  0.00  0.00    +0.000 C 
ATOM      2  C   UNL     1      34.629 -16.600 -22.463  0.00  0.00    +0.000 C 
ATOM      3  C   UNL     1      33.632 -15.246 -24.398  0.00  0.00    +0.002 C 
ATOM      4  C   UNL     1      34.024 -13.916 -23.678  0.00  0.00    +0.000 C 
ATOM      5  C   UNL     1      33.082 -12.720 -24.086  0.00  0.00    +0.002 C 
ATOM      6  C   UNL     1      35.662 -17.753 -22.414  0.00  0.00    +0.000 C 
ATOM      7  C   UNL     1      33.072 -12.580 -25.649  0.00  0.00    +0.029 C 
ATOM      8  C   UNL     1      35.075 -15.307 -21.767  0.00  0.00    +0.000 C 
ATOM      9  C   UNL     1      34.175 -14.116 -22.145  0.00  0.00    +0.000 C 
ATOM     10  C   UNL     1      34.487 -17.734 -24.587  0.00  0.00    +0.000 C 
ATOM     11  C   UNL     1      33.597 -15.067 -25.920  0.00  0.00    +0.029 C 
ATOM     12  C   UNL     1      35.278 -18.638 -23.623  0.00  0.00    +0.000 C 
ATOM     13  C   UNL     1      32.696 -13.908 -26.339  0.00  0.00    +0.111 C 
ATOM     14  C   UNL     1      33.539 -11.366 -23.469  0.00  0.00    +0.003 C 
ATOM     15  C   UNL     1      33.261 -17.052 -21.892  0.00  0.00    +0.000 C 
ATOM     16  C   UNL     1      34.403 -12.014 -26.200  0.00  0.00    +0.032 C 
ATOM     17  C   UNL     1      31.635 -12.952 -23.579  0.00  0.00    +0.000 C 
ATOM     18  C   UNL     1      34.866 -10.853 -24.013  0.00  0.00    +0.029 C 
ATOM     19  C   UNL     1      34.808 -10.706 -25.528  0.00  0.00    +0.111 C 
ENDROOT
BRANCH  13  20
ATOM     20  O   UNL     1      32.758 -13.780 -27.757  0.00  0.00    -0.384 OA
ATOM     21  H   UNL     1      33.015 -14.630 -28.148  0.00  0.00    +0.210 HD
ENDBRANCH  13  20
BRANCH  19  22
ATOM     22  O   UNL     1      36.088 -10.321 -26.018  0.00  0.00    -0.384 OA
ATOM     23  H   UNL     1      36.443 -11.024 -26.585  0.00  0.00    +0.210 HD
ENDBRANCH  19  22
BRANCH   6  24
ATOM     24  C   UNL     1      35.749 -18.535 -21.112  0.00  0.00    +0.001 C 
ATOM     25  C   UNL     1      37.143 -19.151 -20.960  0.00  0.00    +0.000 C 
BRANCH  24  26
ATOM     26  C   UNL     1      34.636 -19.603 -21.058  0.00  0.00    +0.012 C 
BRANCH  26  27
ATOM     27  C   UNL     1      34.914 -20.734 -20.067  0.00  0.00    +0.109 C 
BRANCH  27  29
ATOM     28  O   UNL     1      33.550 -22.663 -19.473  0.00  0.00    -0.250 OA
ATOM     29  C   UNL     1      33.647 -21.459 -19.670  0.00  0.00    +0.314 C 
BRANCH  29  30
ATOM     30  O   UNL     1      32.598 -20.604 -19.563  0.00  0.00    -0.480 OA
ATOM     31  H   UNL     1      31.723 -20.938 -19.522  0.00  0.00    +0.295 HD
ENDBRANCH  29  30
ENDBRANCH  27  29
ENDBRANCH  26  27
ENDBRANCH  24  26
ENDBRANCH   6  24
TORSDOF 7
ENDMDL
MODEL 2
REMARK VINA RESULT:      -7.0      3.798      6.503
REMARK  Name = 5283820
REMARK  7 active torsions:
REMARK  status: ('A' for Active; 'I' for Inactive)
REMARK    1  A    between atoms: C_6  and  C_24
REMARK    2  A    between atoms: C_13  and  O_20
REMARK    3  A    between atoms: C_19  and  O_22
REMARK    4  A    between atoms: C_24  and  C_26
REMARK    5  A    between atoms: C_26  and  C_27
REMARK    6  A    between atoms: C_27  and  C_29
REMARK    7  A    between atoms: C_29  and  O_30
REMARK                            x       y       z     vdW  Elec       q    Type
REMARK                         _______ _______ _______ _____ _____    ______ ____
ROOT
ATOM      1  C   UNL     1      32.473 -11.073 -23.058  0.00  0.00    +0.000 C 
ATOM      2  C   UNL     1      33.436 -11.806 -24.017  0.00  0.00    +0.000 C 
ATOM      3  C   UNL     1      33.017  -9.717 -22.591  0.00  0.00    +0.002 C 
ATOM      4  C   UNL     1      33.242  -8.810 -23.843  0.00  0.00    +0.000 C 
ATOM      5  C   UNL     1      33.755  -7.372 -23.449  0.00  0.00    +0.002 C 
ATOM      6  C   UNL     1      32.625 -13.108 -24.233  0.00  0.00    +0.000 C 
ATOM      7  C   UNL     1      32.763  -6.736 -22.413  0.00  0.00    +0.029 C 
ATOM      8  C   UNL     1      33.604 -10.937 -25.271  0.00  0.00    +0.000 C 
ATOM      9  C   UNL     1      34.104  -9.523 -24.921  0.00  0.00    +0.000 C 
ATOM     10  C   UNL     1      32.125 -12.133 -22.019  0.00  0.00    +0.000 C 
ATOM     11  C   UNL     1      32.072  -9.053 -21.583  0.00  0.00    +0.029 C 
ATOM     12  C   UNL     1      32.099 -13.449 -22.819  0.00  0.00    +0.000 C 
ATOM     13  C   UNL     1      32.545  -7.655 -21.192  0.00  0.00    +0.111 C 
ATOM     14  C   UNL     1      33.865  -6.424 -24.679  0.00  0.00    +0.003 C 
ATOM     15  C   UNL     1      34.828 -12.112 -23.407  0.00  0.00    +0.000 C 
ATOM     16  C   UNL     1      31.418  -6.324 -23.058  0.00  0.00    +0.032 C 
ATOM     17  C   UNL     1      35.176  -7.438 -22.832  0.00  0.00    +0.000 C 
ATOM     18  C   UNL     1      32.526  -6.062 -25.305  0.00  0.00    +0.029 C 
ATOM     19  C   UNL     1      31.601  -5.425 -24.276  0.00  0.00    +0.111 C 
ENDROOT
BRANCH  13  20
ATOM     20  O   UNL     1      31.591  -7.092 -20.295  0.00  0.00    -0.384 OA
ATOM     21  H   UNL     1      31.891  -7.219 -19.382  0.00  0.00    +0.210 HD
ENDBRANCH  13  20
BRANCH  19  22
ATOM     22  O   UNL     1      30.326  -5.188 -24.862  0.00  0.00    -0.384 OA
ATOM     23  H   UNL     1      30.337  -4.336 -25.327  0.00  0.00    +0.210 HD
ENDBRANCH  19  22
BRANCH   6  24
ATOM     24  C   UNL     1      33.360 -14.268 -24.887  0.00  0.00    +0.001 C 
ATOM     25  C   UNL     1      32.656 -14.672 -26.186  0.00  0.00    +0.000 C 
BRANCH  24  26
ATOM     26  C   UNL     1      33.474 -15.449 -23.901  0.00  0.00    +0.012 C 
BRANCH  26  27
ATOM     27  C   UNL     1      34.884 -16.032 -23.796  0.00  0.00    +0.109 C 
BRANCH  27  29
ATOM     28  O   UNL     1      34.460 -17.671 -25.548  0.00  0.00    -0.250 OA
ATOM     29  C   UNL     1      34.992 -17.373 -24.487  0.00  0.00    +0.314 C 
BRANCH  29  30
ATOM     30  O   UNL     1      35.761 -18.238 -23.775  0.00  0.00    -0.480 OA
ATOM     31  H   UNL     1      36.254 -17.929 -23.040  0.00  0.00    +0.295 HD
ENDBRANCH  29  30
ENDBRANCH  27  29
ENDBRANCH  26  27
ENDBRANCH  24  26
ENDBRANCH   6  24
TORSDOF 7
ENDMDL
MODEL 3
REMARK VINA RESULT:      -6.8      3.965      6.970
REMARK  Name = 5283820
REMARK  7 active torsions:
REMARK  status: ('A' for Active; 'I' for Inactive)
REMARK    1  A    between atoms: C_6  and  C_24
REMARK    2  A    between atoms: C_13  and  O_20
REMARK    3  A    between atoms: C_19  and  O_22
REMARK    4  A    between atoms: C_24  and  C_26
REMARK    5  A    between atoms: C_26  and  C_27
REMARK    6  A    between atoms: C_27  and  C_29
REMARK    7  A    between atoms: C_29  and  O_30
REMARK                            x       y       z     vdW  Elec       q    Type
REMARK                         _______ _______ _______ _____ _____    ______ ____
ROOT
ATOM      1  C   UNL     1      35.501 -20.951 -19.210  0.00  0.00    +0.000 C 
ATOM      2  C   UNL     1      34.237 -21.832 -19.099  0.00  0.00    +0.000 C 
ATOM      3  C   UNL     1      35.726 -20.408 -20.626  0.00  0.00    +0.002 C 
ATOM      4  C   UNL     1      34.491 -19.541 -21.031  0.00  0.00    +0.000 C 
ATOM      5  C   UNL     1      34.661 -18.898 -22.461  0.00  0.00    +0.002 C 
ATOM      6  C   UNL     1      34.349 -22.237 -17.608  0.00  0.00    +0.000 C 
ATOM      7  C   UNL     1      36.006 -18.093 -22.508  0.00  0.00    +0.029 C 
ATOM      8  C   UNL     1      33.023 -20.956 -19.439  0.00  0.00    +0.000 C 
ATOM      9  C   UNL     1      33.157 -20.311 -20.831  0.00  0.00    +0.000 C 
ATOM     10  C   UNL     1      36.588 -21.800 -18.558  0.00  0.00    +0.000 C 
ATOM     11  C   UNL     1      37.028 -19.604 -20.717  0.00  0.00    +0.029 C 
ATOM     12  C   UNL     1      35.854 -22.544 -17.425  0.00  0.00    +0.000 C 
ATOM     13  C   UNL     1      37.210 -18.965 -22.092  0.00  0.00    +0.111 C 
ATOM     14  C   UNL     1      33.492 -17.935 -22.821  0.00  0.00    +0.003 C 
ATOM     15  C   UNL     1      34.250 -23.080 -20.019  0.00  0.00    +0.000 C 
ATOM     16  C   UNL     1      35.943 -16.786 -21.683  0.00  0.00    +0.032 C 
ATOM     17  C   UNL     1      34.670 -19.988 -23.563  0.00  0.00    +0.000 C 
ATOM     18  C   UNL     1      33.443 -16.673 -21.970  0.00  0.00    +0.029 C 
ATOM     19  C   UNL     1      34.756 -15.907 -22.063  0.00  0.00    +0.111 C 
ENDROOT
BRANCH  13  20
ATOM     20  O   UNL     1      38.412 -18.200 -22.077  0.00  0.00    -0.384 OA
ATOM     21  H   UNL     1      38.245 -17.327 -22.465  0.00  0.00    +0.210 HD
ENDBRANCH  13  20
BRANCH  19  22
ATOM     22  O   UNL     1      34.718 -14.788 -21.184  0.00  0.00    -0.384 OA
ATOM     23  H   UNL     1      34.101 -14.124 -21.532  0.00  0.00    +0.210 HD
ENDBRANCH  19  22
BRANCH   6  24
ATOM     24  C   UNL     1      33.452 -23.374 -17.142  0.00  0.00    +0.001 C 
ATOM     25  C   UNL     1      32.001 -22.894 -17.046  0.00  0.00    +0.000 C 
BRANCH  24  26
ATOM     26  C   UNL     1      33.964 -23.939 -15.801  0.00  0.00    +0.012 C 
BRANCH  26  27
ATOM     27  C   UNL     1      33.126 -23.516 -14.594  0.00  0.00    +0.109 C 
BRANCH  27  29
ATOM     28  O   UNL     1      31.708 -25.418 -14.041  0.00  0.00    -0.250 OA
ATOM     29  C   UNL     1      32.667 -24.706 -13.780  0.00  0.00    +0.314 C 
BRANCH  29  30
ATOM     30  O   UNL     1      33.458 -24.896 -12.692  0.00  0.00    -0.480 OA
ATOM     31  H   UNL     1      34.156 -25.521 -12.724  0.00  0.00    +0.295 HD
ENDBRANCH  29  30
ENDBRANCH  27  29
ENDBRANCH  26  27
ENDBRANCH  24  26
ENDBRANCH   6  24
TORSDOF 7
ENDMDL
MODEL 4
REMARK VINA RESULT:      -6.2      5.086     12.097
REMARK  Name = 5283820
REMARK  7 active torsions:
REMARK  status: ('A' for Active; 'I' for Inactive)
REMARK    1  A    between atoms: C_6  and  C_24
REMARK    2  A    between atoms: C_13  and  O_20
REMARK    3  A    between atoms: C_19  and  O_22
REMARK    4  A    between atoms: C_24  and  C_26
REMARK    5  A    between atoms: C_26  and  C_27
REMARK    6  A    between atoms: C_27  and  C_29
REMARK    7  A    between atoms: C_29  and  O_30
REMARK                            x       y       z     vdW  Elec       q    Type
REMARK                         _______ _______ _______ _____ _____    ______ ____
ROOT
ATOM      1  C   UNL     1      33.780 -22.500 -17.035  0.00  0.00    +0.000 C 
ATOM      2  C   UNL     1      34.659 -22.344 -18.295  0.00  0.00    +0.000 C 
ATOM      3  C   UNL     1      34.202 -23.684 -16.158  0.00  0.00    +0.002 C 
ATOM      4  C   UNL     1      35.679 -23.465 -15.697  0.00  0.00    +0.000 C 
ATOM      5  C   UNL     1      36.181 -24.616 -14.745  0.00  0.00    +0.002 C 
ATOM      6  C   UNL     1      33.941 -21.136 -18.947  0.00  0.00    +0.000 C 
ATOM      7  C   UNL     1      35.188 -24.759 -13.539  0.00  0.00    +0.029 C 
ATOM      8  C   UNL     1      36.096 -22.067 -17.834  0.00  0.00    +0.000 C 
ATOM      9  C   UNL     1      36.619 -23.175 -16.900  0.00  0.00    +0.000 C 
ATOM     10  C   UNL     1      32.357 -22.449 -17.581  0.00  0.00    +0.000 C 
ATOM     11  C   UNL     1      33.263 -23.856 -14.958  0.00  0.00    +0.029 C 
ATOM     12  C   UNL     1      32.440 -21.454 -18.754  0.00  0.00    +0.000 C 
ATOM     13  C   UNL     1      33.734 -24.962 -14.017  0.00  0.00    +0.111 C 
ATOM     14  C   UNL     1      37.608 -24.344 -14.185  0.00  0.00    +0.003 C 
ATOM     15  C   UNL     1      34.643 -23.575 -19.236  0.00  0.00    +0.000 C 
ATOM     16  C   UNL     1      35.296 -23.582 -12.541  0.00  0.00    +0.032 C 
ATOM     17  C   UNL     1      36.272 -25.966 -15.504  0.00  0.00    +0.000 C 
ATOM     18  C   UNL     1      37.683 -23.161 -13.229  0.00  0.00    +0.029 C 
ATOM     19  C   UNL     1      36.724 -23.349 -12.060  0.00  0.00    +0.111 C 
ENDROOT
BRANCH  13  20
ATOM     20  O   UNL     1      32.839 -25.022 -12.910  0.00  0.00    -0.384 OA
ATOM     21  H   UNL     1      33.074 -25.774 -12.344  0.00  0.00    +0.210 HD
ENDBRANCH  13  20
BRANCH  19  22
ATOM     22  O   UNL     1      36.743 -22.188 -11.236  0.00  0.00    -0.384 OA
ATOM     23  H   UNL     1      36.962 -22.441 -10.325  0.00  0.00    +0.210 HD
ENDBRANCH  19  22
BRANCH   6  24
ATOM     24  C   UNL     1      34.301 -20.830 -20.394  0.00  0.00    +0.001 C 
ATOM     25  C   UNL     1      35.807 -20.581 -20.520  0.00  0.00    +0.000 C 
BRANCH  24  26
ATOM     26  C   UNL     1      33.472 -19.632 -20.905  0.00  0.00    +0.012 C 
BRANCH  26  27
ATOM     27  C   UNL     1      34.258 -18.678 -21.806  0.00  0.00    +0.109 C 
BRANCH  27  29
ATOM     28  O   UNL     1      33.473 -16.401 -21.443  0.00  0.00    -0.250 OA
ATOM     29  C   UNL     1      34.303 -17.277 -21.240  0.00  0.00    +0.314 C 
BRANCH  29  30
ATOM     30  O   UNL     1      35.403 -17.089 -20.465  0.00  0.00    -0.480 OA
ATOM     31  H   UNL     1      35.350 -17.215 -19.538  0.00  0.00    +0.295 HD
ENDBRANCH  29  30
ENDBRANCH  27  29
ENDBRANCH  26  27
ENDBRANCH  24  26
ENDBRANCH   6  24
TORSDOF 7
ENDMDL
MODEL 5
REMARK VINA RESULT:      -6.0      3.306      4.683
REMARK  Name = 5283820
REMARK  7 active torsions:
REMARK  status: ('A' for Active; 'I' for Inactive)
REMARK    1  A    between atoms: C_6  and  C_24
REMARK    2  A    between atoms: C_13  and  O_20
REMARK    3  A    between atoms: C_19  and  O_22
REMARK    4  A    between atoms: C_24  and  C_26
REMARK    5  A    between atoms: C_26  and  C_27
REMARK    6  A    between atoms: C_27  and  C_29
REMARK    7  A    between atoms: C_29  and  O_30
REMARK                            x       y       z     vdW  Elec       q    Type
REMARK                         _______ _______ _______ _____ _____    ______ ____
ROOT
ATOM      1  C   UNL     1      33.597 -13.115 -22.833  0.00  0.00    +0.000 C 
ATOM      2  C   UNL     1      33.392 -14.410 -22.017  0.00  0.00    +0.000 C 
ATOM      3  C   UNL     1      32.436 -12.126 -22.681  0.00  0.00    +0.002 C 
ATOM      4  C   UNL     1      32.304 -11.736 -21.174  0.00  0.00    +0.000 C 
ATOM      5  C   UNL     1      31.161 -10.677 -20.933  0.00  0.00    +0.002 C 
ATOM      6  C   UNL     1      34.676 -15.170 -22.434  0.00  0.00    +0.000 C 
ATOM      7  C   UNL     1      31.404  -9.435 -21.859  0.00  0.00    +0.029 C 
ATOM      8  C   UNL     1      33.325 -14.025 -20.533  0.00  0.00    +0.000 C 
ATOM      9  C   UNL     1      32.217 -12.990 -20.262  0.00  0.00    +0.000 C 
ATOM     10  C   UNL     1      33.966 -13.622 -24.223  0.00  0.00    +0.000 C 
ATOM     11  C   UNL     1      32.636 -10.887 -23.563  0.00  0.00    +0.029 C 
ATOM     12  C   UNL     1      34.783 -14.900 -23.953  0.00  0.00    +0.000 C 
ATOM     13  C   UNL     1      31.544  -9.845 -23.341  0.00  0.00    +0.111 C 
ATOM     14  C   UNL     1      31.103 -10.192 -19.455  0.00  0.00    +0.003 C 
ATOM     15  C   UNL     1      32.121 -15.209 -22.403  0.00  0.00    +0.000 C 
ATOM     16  C   UNL     1      32.604  -8.576 -21.394  0.00  0.00    +0.032 C 
ATOM     17  C   UNL     1      29.767 -11.285 -21.237  0.00  0.00    +0.000 C 
ATOM     18  C   UNL     1      32.313  -9.374 -19.023  0.00  0.00    +0.029 C 
ATOM     19  C   UNL     1      32.500  -8.165 -19.929  0.00  0.00    +0.111 C 
ENDROOT
BRANCH  13  20
ATOM     20  O   UNL     1      31.830  -8.712 -24.157  0.00  0.00    -0.384 OA
ATOM     21  H   UNL     1      32.759  -8.739 -24.434  0.00  0.00    +0.210 HD
ENDBRANCH  13  20
BRANCH  19  22
ATOM     22  O   UNL     1      33.691  -7.475 -19.565  0.00  0.00    -0.384 OA
ATOM     23  H   UNL     1      33.461  -6.665 -19.083  0.00  0.00    +0.210 HD
ENDBRANCH  19  22
BRANCH   6  24
ATOM     24  C   UNL     1      34.732 -16.651 -22.090  0.00  0.00    +0.001 C 
ATOM     25  C   UNL     1      35.118 -16.836 -20.620  0.00  0.00    +0.000 C 
BRANCH  24  26
ATOM     26  C   UNL     1      35.707 -17.379 -23.040  0.00  0.00    +0.012 C 
BRANCH  26  27
ATOM     27  C   UNL     1      35.296 -18.817 -23.362  0.00  0.00    +0.109 C 
BRANCH  27  29
ATOM     28  O   UNL     1      34.286 -18.012 -25.427  0.00  0.00    -0.250 OA
ATOM     29  C   UNL     1      34.713 -18.938 -24.752  0.00  0.00    +0.314 C 
BRANCH  29  30
ATOM     30  O   UNL     1      34.708 -20.229 -25.177  0.00  0.00    -0.480 OA
ATOM     31  H   UNL     1      33.945 -20.758 -25.057  0.00  0.00    +0.295 HD
ENDBRANCH  29  30
ENDBRANCH  27  29
ENDBRANCH  26  27
ENDBRANCH  24  26
ENDBRANCH   6  24
TORSDOF 7
ENDMDL
MODEL 6
REMARK VINA RESULT:      -5.8      3.035      4.232
REMARK  Name = 5283820
REMARK  7 active torsions:
REMARK  status: ('A' for Active; 'I' for Inactive)
REMARK    1  A    between atoms: C_6  and  C_24
REMARK    2  A    between atoms: C_13  and  O_20
REMARK    3  A    between atoms: C_19  and  O_22
REMARK    4  A    between atoms: C_24  and  C_26
REMARK    5  A    between atoms: C_26  and  C_27
REMARK    6  A    between atoms: C_27  and  C_29
REMARK    7  A    between atoms: C_29  and  O_30
REMARK                            x       y       z     vdW  Elec       q    Type
REMARK                         _______ _______ _______ _____ _____    ______ ____
ROOT
ATOM      1  C   UNL     1      33.627 -13.200 -22.690  0.00  0.00    +0.000 C 
ATOM      2  C   UNL     1      33.385 -14.466 -21.839  0.00  0.00    +0.000 C 
ATOM      3  C   UNL     1      32.473 -12.194 -22.602  0.00  0.00    +0.002 C 
ATOM      4  C   UNL     1      32.305 -11.755 -21.111  0.00  0.00    +0.000 C 
ATOM      5  C   UNL     1      31.168 -10.678 -20.935  0.00  0.00    +0.002 C 
ATOM      6  C   UNL     1      34.670 -15.253 -22.197  0.00  0.00    +0.000 C 
ATOM      7  C   UNL     1      31.450  -9.468 -21.893  0.00  0.00    +0.029 C 
ATOM      8  C   UNL     1      33.283 -14.033 -20.371  0.00  0.00    +0.000 C 
ATOM      9  C   UNL     1      32.179 -12.978 -20.163  0.00  0.00    +0.000 C 
ATOM     10  C   UNL     1      34.027 -13.755 -24.053  0.00  0.00    +0.000 C 
ATOM     11  C   UNL     1      32.711 -10.987 -23.516  0.00  0.00    +0.029 C 
ATOM     12  C   UNL     1      34.822 -15.032 -23.720  0.00  0.00    +0.000 C 
ATOM     13  C   UNL     1      31.625  -9.926 -23.357  0.00  0.00    +0.111 C 
ATOM     14  C   UNL     1      31.076 -10.145 -19.476  0.00  0.00    +0.003 C 
ATOM     15  C   UNL     1      32.116 -15.263 -22.235  0.00  0.00    +0.000 C 
ATOM     16  C   UNL     1      32.647  -8.607 -21.424  0.00  0.00    +0.032 C 
ATOM     17  C   UNL     1      29.776 -11.280 -21.258  0.00  0.00    +0.000 C 
ATOM     18  C   UNL     1      32.283  -9.327 -19.037  0.00  0.00    +0.029 C 
ATOM     19  C   UNL     1      32.508  -8.148 -19.976  0.00  0.00    +0.111 C 
ENDROOT
BRANCH  13  20
ATOM     20  O   UNL     1      31.946  -8.824 -24.201  0.00  0.00    -0.384 OA
ATOM     21  H   UNL     1      31.537  -8.952 -25.071  0.00  0.00    +0.210 HD
ENDBRANCH  13  20
BRANCH  19  22
ATOM     22  O   UNL     1      33.696  -7.460 -19.601  0.00  0.00    -0.384 OA
ATOM     23  H   UNL     1      34.336  -7.500 -20.329  0.00  0.00    +0.210 HD
ENDBRANCH  19  22
BRANCH   6  24
ATOM     24  C   UNL     1      34.701 -16.723 -21.805  0.00  0.00    +0.001 C 
ATOM     25  C   UNL     1      35.313 -16.883 -20.410  0.00  0.00    +0.000 C 
BRANCH  24  26
ATOM     26  C   UNL     1      35.464 -17.540 -22.869  0.00  0.00    +0.012 C 
BRANCH  26  27
ATOM     27  C   UNL     1      34.874 -18.928 -23.120  0.00  0.00    +0.109 C 
BRANCH  27  29
ATOM     28  O   UNL     1      35.619 -20.189 -21.174  0.00  0.00    -0.250 OA
ATOM     29  C   UNL     1      34.709 -19.711 -21.837  0.00  0.00    +0.314 C 
BRANCH  29  30
ATOM     30  O   UNL     1      33.399 -19.835 -21.496  0.00  0.00    -0.480 OA
ATOM     31  H   UNL     1      33.162 -20.017 -20.608  0.00  0.00    +0.295 HD
ENDBRANCH  29  30
ENDBRANCH  27  29
ENDBRANCH  26  27
ENDBRANCH  24  26
ENDBRANCH   6  24
TORSDOF 7
ENDMDL
MODEL 7
REMARK VINA RESULT:      -5.6      4.453      7.448
REMARK  Name = 5283820
REMARK  7 active torsions:
REMARK  status: ('A' for Active; 'I' for Inactive)
REMARK    1  A    between atoms: C_6  and  C_24
REMARK    2  A    between atoms: C_13  and  O_20
REMARK    3  A    between atoms: C_19  and  O_22
REMARK    4  A    between atoms: C_24  and  C_26
REMARK    5  A    between atoms: C_26  and  C_27
REMARK    6  A    between atoms: C_27  and  C_29
REMARK    7  A    between atoms: C_29  and  O_30
REMARK                            x       y       z     vdW  Elec       q    Type
REMARK                         _______ _______ _______ _____ _____    ______ ____
ROOT
ATOM      1  C   UNL     1      32.141 -10.808 -22.345  0.00  0.00    +0.000 C 
ATOM      2  C   UNL     1      32.933 -11.754 -23.274  0.00  0.00    +0.000 C 
ATOM      3  C   UNL     1      32.831  -9.453 -22.148  0.00  0.00    +0.002 C 
ATOM      4  C   UNL     1      32.977  -8.758 -23.540  0.00  0.00    +0.000 C 
ATOM      5  C   UNL     1      33.634  -7.330 -23.424  0.00  0.00    +0.002 C 
ATOM      6  C   UNL     1      32.010 -12.996 -23.205  0.00  0.00    +0.000 C 
ATOM      7  C   UNL     1      32.816  -6.466 -22.401  0.00  0.00    +0.029 C 
ATOM      8  C   UNL     1      33.018 -11.092 -24.656  0.00  0.00    +0.000 C 
ATOM      9  C   UNL     1      33.656  -9.692 -24.579  0.00  0.00    +0.000 C 
ATOM     10  C   UNL     1      31.838 -11.673 -21.126  0.00  0.00    +0.000 C 
ATOM     11  C   UNL     1      32.059  -8.569 -21.161  0.00  0.00    +0.029 C 
ATOM     12  C   UNL     1      31.626 -13.083 -21.709  0.00  0.00    +0.000 C 
ATOM     13  C   UNL     1      32.673  -7.177 -21.038  0.00  0.00    +0.111 C 
ATOM     14  C   UNL     1      33.672  -6.581 -24.788  0.00  0.00    +0.003 C 
ATOM     15  C   UNL     1      34.359 -12.091 -22.771  0.00  0.00    +0.000 C 
ATOM     16  C   UNL     1      31.440  -6.034 -22.960  0.00  0.00    +0.032 C 
ATOM     17  C   UNL     1      35.109  -7.432 -22.953  0.00  0.00    +0.000 C 
ATOM     18  C   UNL     1      32.299  -6.196 -25.322  0.00  0.00    +0.029 C 
ATOM     19  C   UNL     1      31.548  -5.338 -24.313  0.00  0.00    +0.111 C 
ENDROOT
BRANCH  13  20
ATOM     20  O   UNL     1      31.872  -6.409 -20.145  0.00  0.00    -0.384 OA
ATOM     21  H   UNL     1      31.155  -6.962 -19.796  0.00  0.00    +0.210 HD
ENDBRANCH  13  20
BRANCH  19  22
ATOM     22  O   UNL     1      30.234  -5.076 -24.795  0.00  0.00    -0.384 OA
ATOM     23  H   UNL     1      29.767  -4.504 -24.165  0.00  0.00    +0.210 HD
ENDBRANCH  19  22
BRANCH   6  24
ATOM     24  C   UNL     1      32.579 -14.299 -23.747  0.00  0.00    +0.001 C 
ATOM     25  C   UNL     1      33.350 -15.034 -22.646  0.00  0.00    +0.000 C 
BRANCH  24  26
ATOM     26  C   UNL     1      33.461 -14.019 -24.982  0.00  0.00    +0.012 C 
BRANCH  26  27
ATOM     27  C   UNL     1      32.841 -14.485 -26.300  0.00  0.00    +0.109 C 
BRANCH  27  29
ATOM     28  O   UNL     1      34.307 -13.439 -27.940  0.00  0.00    -0.250 OA
ATOM     29  C   UNL     1      33.195 -13.565 -27.446  0.00  0.00    +0.314 C 
BRANCH  29  30
ATOM     30  O   UNL     1      32.111 -12.865 -27.874  0.00  0.00    -0.480 OA
ATOM     31  H   UNL     1      31.252 -13.222 -27.765  0.00  0.00    +0.295 HD
ENDBRANCH  29  30
ENDBRANCH  27  29
ENDBRANCH  26  27
ENDBRANCH  24  26
ENDBRANCH   6  24
TORSDOF 7
ENDMDL
