MODEL 1
REMARK VINA RESULT:      -7.2      0.000      0.000
REMARK  Name = 3728
REMARK  1 active torsions:
REMARK  status: ('A' for Active; 'I' for Inactive)
REMARK    1  A    between atoms: C_6  and  O_13
REMARK                            x       y       z     vdW  Elec       q    Type
REMARK                         _______ _______ _______ _____ _____    ______ ____
ROOT
ATOM      1  I   UNL     1      32.720 -14.179 -20.667  0.00  0.00    -0.042 I 
ATOM      2  I   UNL     1      33.003 -14.279 -26.586  0.00  0.00    -0.039 I 
ATOM      3  N   UNL     1      35.550 -17.986 -23.544  0.00  0.00    -0.241 NA
ATOM      4  C   UNL     1      34.305 -16.309 -22.342  0.00  0.00    +0.026 C 
ATOM      5  C   UNL     1      34.765 -16.891 -23.541  0.00  0.00    +0.116 C 
ATOM      6  C   UNL     1      34.386 -16.302 -24.745  0.00  0.00    +0.156 C 
ATOM      7  C   UNL     1      33.488 -15.166 -22.377  0.00  0.00    +0.032 C 
ATOM      8  C   UNL     1      34.687 -16.901 -21.131  0.00  0.00    +0.004 C 
ATOM      9  C   UNL     1      33.573 -15.166 -24.779  0.00  0.00    +0.066 C 
ATOM     10  C   UNL     1      33.124 -14.597 -23.594  0.00  0.00    +0.015 C 
ATOM     11  C   UNL     1      35.495 -18.029 -21.130  0.00  0.00    +0.021 C 
ATOM     12  C   UNL     1      35.895 -18.527 -22.353  0.00  0.00    +0.099 C 
ENDROOT
BRANCH   6  13
ATOM     13  O   UNL     1      34.830 -16.865 -25.911  0.00  0.00    -0.504 OA
ATOM     14  H   UNL     1      35.680 -16.649 -26.241  0.00  0.00    +0.292 HD
ENDBRANCH   6  13
TORSDOF 1
ENDMDL
MODEL 2
REMARK VINA RESULT:      -6.9      2.072      3.904
REMARK  Name = 3728
REMARK  1 active torsions:
REMARK  status: ('A' for Active; 'I' for Inactive)
REMARK    1  A    between atoms: C_6  and  O_13
REMARK                            x       y       z     vdW  Elec       q    Type
REMARK                         _______ _______ _______ _____ _____    ______ ____
ROOT
ATOM      1  I   UNL     1      32.570 -13.678 -21.068  0.00  0.00    -0.042 I 
ATOM      2  I   UNL     1      35.755 -18.666 -21.385  0.00  0.00    -0.039 I 
ATOM      3  N   UNL     1      34.072 -16.066 -25.844  0.00  0.00    -0.241 NA
ATOM      4  C   UNL     1      33.446 -15.069 -23.742  0.00  0.00    +0.026 C 
ATOM      5  C   UNL     1      34.084 -16.074 -24.498  0.00  0.00    +0.116 C 
ATOM      6  C   UNL     1      34.739 -17.094 -23.812  0.00  0.00    +0.156 C 
ATOM      7  C   UNL     1      33.479 -15.109 -22.338  0.00  0.00    +0.032 C 
ATOM      8  C   UNL     1      32.787 -14.043 -24.431  0.00  0.00    +0.004 C 
ATOM      9  C   UNL     1      34.772 -17.134 -22.416  0.00  0.00    +0.066 C 
ATOM     10  C   UNL     1      34.141 -16.141 -21.678  0.00  0.00    +0.015 C 
ATOM     11  C   UNL     1      32.772 -14.031 -25.819  0.00  0.00    +0.021 C 
ATOM     12  C   UNL     1      33.425 -15.057 -26.472  0.00  0.00    +0.099 C 
ENDROOT
BRANCH   6  13
ATOM     13  O   UNL     1      35.360 -18.071 -24.543  0.00  0.00    -0.504 OA
ATOM     14  H   UNL     1      36.290 -18.175 -24.493  0.00  0.00    +0.292 HD
ENDBRANCH   6  13
TORSDOF 1
ENDMDL
MODEL 3
REMARK VINA RESULT:      -6.9     10.649     12.160
REMARK  Name = 3728
REMARK  1 active torsions:
REMARK  status: ('A' for Active; 'I' for Inactive)
REMARK    1  A    between atoms: C_6  and  O_13
REMARK                            x       y       z     vdW  Elec       q    Type
REMARK                         _______ _______ _______ _____ _____    ______ ____
ROOT
ATOM      1  I   UNL     1      33.761 -22.693 -18.331  0.00  0.00    -0.042 I 
ATOM      2  I   UNL     1      37.199 -24.642 -13.914  0.00  0.00    -0.039 I 
ATOM      3  N   UNL     1      31.844 -23.995 -13.291  0.00  0.00    -0.241 NA
ATOM      4  C   UNL     1      32.728 -23.443 -15.464  0.00  0.00    +0.026 C 
ATOM      5  C   UNL     1      32.887 -23.891 -14.136  0.00  0.00    +0.116 C 
ATOM      6  C   UNL     1      34.168 -24.230 -13.708  0.00  0.00    +0.156 C 
ATOM      7  C   UNL     1      33.839 -23.347 -16.318  0.00  0.00    +0.032 C 
ATOM      8  C   UNL     1      31.439 -23.102 -15.895  0.00  0.00    +0.004 C 
ATOM      9  C   UNL     1      35.273 -24.134 -14.557  0.00  0.00    +0.066 C 
ATOM     10  C   UNL     1      35.109 -23.692 -15.863  0.00  0.00    +0.015 C 
ATOM     11  C   UNL     1      30.362 -23.208 -15.028  0.00  0.00    +0.021 C 
ATOM     12  C   UNL     1      30.616 -23.656 -13.747  0.00  0.00    +0.099 C 
ENDROOT
BRANCH   6  13
ATOM     13  O   UNL     1      34.327 -24.665 -12.419  0.00  0.00    -0.504 OA
ATOM     14  H   UNL     1      34.791 -25.460 -12.247  0.00  0.00    +0.292 HD
ENDBRANCH   6  13
TORSDOF 1
ENDMDL
MODEL 4
REMARK VINA RESULT:      -6.8     11.081     12.439
REMARK  Name = 3728
REMARK  1 active torsions:
REMARK  status: ('A' for Active; 'I' for Inactive)
REMARK    1  A    between atoms: C_6  and  O_13
REMARK                            x       y       z     vdW  Elec       q    Type
REMARK                         _______ _______ _______ _____ _____    ______ ____
ROOT
ATOM      1  I   UNL     1      37.030 -22.131 -16.380  0.00  0.00    -0.042 I 
ATOM      2  I   UNL     1      31.323 -23.614 -15.780  0.00  0.00    -0.039 I 
ATOM      3  N   UNL     1      34.988 -24.755 -11.939  0.00  0.00    -0.241 NA
ATOM      4  C   UNL     1      35.824 -23.614 -13.890  0.00  0.00    +0.026 C 
ATOM      5  C   UNL     1      34.778 -24.199 -13.148  0.00  0.00    +0.116 C 
ATOM      6  C   UNL     1      33.499 -24.192 -13.699  0.00  0.00    +0.156 C 
ATOM      7  C   UNL     1      35.568 -23.044 -15.149  0.00  0.00    +0.032 C 
ATOM      8  C   UNL     1      37.111 -23.622 -13.336  0.00  0.00    +0.004 C 
ATOM      9  C   UNL     1      33.245 -23.625 -14.950  0.00  0.00    +0.066 C 
ATOM     10  C   UNL     1      34.280 -23.050 -15.676  0.00  0.00    +0.015 C 
ATOM     11  C   UNL     1      37.332 -24.193 -12.091  0.00  0.00    +0.021 C 
ATOM     12  C   UNL     1      36.246 -24.741 -11.440  0.00  0.00    +0.099 C 
ENDROOT
BRANCH   6  13
ATOM     13  O   UNL     1      32.480 -24.759 -12.981  0.00  0.00    -0.504 OA
ATOM     14  H   UNL     1      31.698 -24.273 -12.812  0.00  0.00    +0.292 HD
ENDBRANCH   6  13
TORSDOF 1
ENDMDL
MODEL 5
REMARK VINA RESULT:      -6.7     10.100     11.388
REMARK  Name = 3728
REMARK  1 active torsions:
REMARK  status: ('A' for Active; 'I' for Inactive)
REMARK    1  A    between atoms: C_6  and  O_13
REMARK                            x       y       z     vdW  Elec       q    Type
REMARK                         _______ _______ _______ _____ _____    ______ ____
ROOT
ATOM      1  I   UNL     1      33.818 -22.401 -18.761  0.00  0.00    -0.042 I 
ATOM      2  I   UNL     1      30.723 -24.657 -14.238  0.00  0.00    -0.039 I 
ATOM      3  N   UNL     1      36.047 -23.671 -13.842  0.00  0.00    -0.241 NA
ATOM      4  C   UNL     1      35.030 -23.136 -15.960  0.00  0.00    +0.026 C 
ATOM      5  C   UNL     1      34.961 -23.619 -14.638  0.00  0.00    +0.116 C 
ATOM      6  C   UNL     1      33.726 -24.049 -14.159  0.00  0.00    +0.156 C 
ATOM      7  C   UNL     1      33.876 -23.097 -16.761  0.00  0.00    +0.032 C 
ATOM      8  C   UNL     1      36.272 -22.703 -16.442  0.00  0.00    +0.004 C 
ATOM      9  C   UNL     1      32.579 -24.010 -14.955  0.00  0.00    +0.066 C 
ATOM     10  C   UNL     1      32.654 -23.533 -16.258  0.00  0.00    +0.015 C 
ATOM     11  C   UNL     1      37.393 -22.755 -15.626  0.00  0.00    +0.021 C 
ATOM     12  C   UNL     1      37.228 -23.243 -14.346  0.00  0.00    +0.099 C 
ENDROOT
BRANCH   6  13
ATOM     13  O   UNL     1      33.656 -24.519 -12.875  0.00  0.00    -0.504 OA
ATOM     14  H   UNL     1      33.866 -23.955 -12.157  0.00  0.00    +0.292 HD
ENDBRANCH   6  13
TORSDOF 1
ENDMDL
MODEL 6
REMARK VINA RESULT:      -6.7      9.528     11.322
REMARK  Name = 3728
REMARK  1 active torsions:
REMARK  status: ('A' for Active; 'I' for Inactive)
REMARK    1  A    between atoms: C_6  and  O_13
REMARK                            x       y       z     vdW  Elec       q    Type
REMARK                         _______ _______ _______ _____ _____    ______ ____
ROOT
ATOM      1  I   UNL     1      31.569 -24.393 -14.191  0.00  0.00    -0.042 I 
ATOM      2  I   UNL     1      37.081 -23.805 -12.092  0.00  0.00    -0.039 I 
ATOM      3  N   UNL     1      35.830 -22.538 -17.221  0.00  0.00    -0.241 NA
ATOM      4  C   UNL     1      34.013 -23.349 -15.861  0.00  0.00    +0.026 C 
ATOM      5  C   UNL     1      35.366 -22.995 -16.042  0.00  0.00    +0.116 C 
ATOM      6  C   UNL     1      36.230 -23.130 -14.958  0.00  0.00    +0.156 C 
ATOM      7  C   UNL     1      33.565 -23.823 -14.617  0.00  0.00    +0.032 C 
ATOM      8  C   UNL     1      33.144 -23.214 -16.952  0.00  0.00    +0.004 C 
ATOM      9  C   UNL     1      35.783 -23.601 -13.721  0.00  0.00    +0.066 C 
ATOM     10  C   UNL     1      34.449 -23.948 -13.550  0.00  0.00    +0.015 C 
ATOM     11  C   UNL     1      33.618 -22.743 -18.168  0.00  0.00    +0.021 C 
ATOM     12  C   UNL     1      34.957 -22.422 -18.249  0.00  0.00    +0.099 C 
ENDROOT
BRANCH   6  13
ATOM     13  O   UNL     1      37.544 -22.787 -15.130  0.00  0.00    -0.504 OA
ATOM     14  H   UNL     1      38.130 -22.796 -14.399  0.00  0.00    +0.292 HD
ENDBRANCH   6  13
TORSDOF 1
ENDMDL
MODEL 7
REMARK VINA RESULT:      -6.7      8.504     10.201
REMARK  Name = 3728
REMARK  1 active torsions:
REMARK  status: ('A' for Active; 'I' for Inactive)
REMARK    1  A    between atoms: C_6  and  O_13
REMARK                            x       y       z     vdW  Elec       q    Type
REMARK                         _______ _______ _______ _____ _____    ______ ____
ROOT
ATOM      1  I   UNL     1      36.811 -23.363 -15.152  0.00  0.00    -0.042 I 
ATOM      2  I   UNL     1      31.092 -24.384 -13.978  0.00  0.00    -0.039 I 
ATOM      3  N   UNL     1      32.698 -22.248 -18.704  0.00  0.00    -0.241 NA
ATOM      4  C   UNL     1      34.447 -22.751 -17.125  0.00  0.00    +0.026 C 
ATOM      5  C   UNL     1      33.090 -22.716 -17.504  0.00  0.00    +0.116 C 
ATOM      6  C   UNL     1      32.143 -23.186 -16.596  0.00  0.00    +0.156 C 
ATOM      7  C   UNL     1      34.819 -23.247 -15.864  0.00  0.00    +0.032 C 
ATOM      8  C   UNL     1      35.399 -22.279 -18.037  0.00  0.00    +0.004 C 
ATOM      9  C   UNL     1      32.513 -23.679 -15.343  0.00  0.00    +0.066 C 
ATOM     10  C   UNL     1      33.852 -23.710 -14.976  0.00  0.00    +0.015 C 
ATOM     11  C   UNL     1      35.000 -21.795 -19.275  0.00  0.00    +0.021 C 
ATOM     12  C   UNL     1      33.649 -21.801 -19.556  0.00  0.00    +0.099 C 
ENDROOT
BRANCH   6  13
ATOM     13  O   UNL     1      30.823 -23.154 -16.960  0.00  0.00    -0.504 OA
ATOM     14  H   UNL     1      30.579 -22.843 -17.809  0.00  0.00    +0.292 HD
ENDBRANCH   6  13
TORSDOF 1
ENDMDL
MODEL 8
REMARK VINA RESULT:      -6.5     10.305     11.456
REMARK  Name = 3728
REMARK  1 active torsions:
REMARK  status: ('A' for Active; 'I' for Inactive)
REMARK    1  A    between atoms: C_6  and  O_13
REMARK                            x       y       z     vdW  Elec       q    Type
REMARK                         _______ _______ _______ _____ _____    ______ ____
ROOT
ATOM      1  I   UNL     1      33.970 -22.687 -18.529  0.00  0.00    -0.042 I 
ATOM      2  I   UNL     1      28.678 -22.969 -15.876  0.00  0.00    -0.039 I 
ATOM      3  N   UNL     1      33.275 -24.050 -13.197  0.00  0.00    -0.241 NA
ATOM      4  C   UNL     1      33.522 -23.452 -15.518  0.00  0.00    +0.026 C 
ATOM      5  C   UNL     1      32.732 -23.693 -14.376  0.00  0.00    +0.116 C 
ATOM      6  C   UNL     1      31.351 -23.551 -14.492  0.00  0.00    +0.156 C 
ATOM      7  C   UNL     1      32.920 -23.081 -16.732  0.00  0.00    +0.032 C 
ATOM      8  C   UNL     1      34.911 -23.594 -15.402  0.00  0.00    +0.004 C 
ATOM      9  C   UNL     1      30.752 -23.182 -15.699  0.00  0.00    +0.066 C 
ATOM     10  C   UNL     1      31.538 -22.946 -16.821  0.00  0.00    +0.015 C 
ATOM     11  C   UNL     1      35.475 -23.962 -14.189  0.00  0.00    +0.021 C 
ATOM     12  C   UNL     1      34.621 -24.177 -13.127  0.00  0.00    +0.099 C 
ENDROOT
BRANCH   6  13
ATOM     13  O   UNL     1      30.579 -23.784 -13.386  0.00  0.00    -0.504 OA
ATOM     14  H   UNL     1      30.195 -24.627 -13.251  0.00  0.00    +0.292 HD
ENDBRANCH   6  13
TORSDOF 1
ENDMDL
MODEL 9
REMARK VINA RESULT:      -6.5      2.712      3.202
REMARK  Name = 3728
REMARK  1 active torsions:
REMARK  status: ('A' for Active; 'I' for Inactive)
REMARK    1  A    between atoms: C_6  and  O_13
REMARK                            x       y       z     vdW  Elec       q    Type
REMARK                         _______ _______ _______ _____ _____    ______ ____
ROOT
ATOM      1  I   UNL     1      34.682 -18.806 -24.675  0.00  0.00    -0.042 I 
ATOM      2  I   UNL     1      33.054 -13.598 -26.990  0.00  0.00    -0.039 I 
ATOM      3  N   UNL     1      34.109 -14.163 -21.694  0.00  0.00    -0.241 NA
ATOM      4  C   UNL     1      34.343 -16.152 -23.034  0.00  0.00    +0.026 C 
ATOM      5  C   UNL     1      34.046 -14.781 -22.888  0.00  0.00    +0.116 C 
ATOM      6  C   UNL     1      33.680 -14.065 -24.026  0.00  0.00    +0.156 C 
ATOM      7  C   UNL     1      34.267 -16.763 -24.297  0.00  0.00    +0.032 C 
ATOM      8  C   UNL     1      34.711 -16.873 -21.891  0.00  0.00    +0.004 C 
ATOM      9  C   UNL     1      33.605 -14.673 -25.281  0.00  0.00    +0.066 C 
ATOM     10  C   UNL     1      33.899 -16.024 -25.417  0.00  0.00    +0.015 C 
ATOM     11  C   UNL     1      34.777 -16.240 -20.658  0.00  0.00    +0.021 C 
ATOM     12  C   UNL     1      34.469 -14.896 -20.614  0.00  0.00    +0.099 C 
ENDROOT
BRANCH   6  13
ATOM     13  O   UNL     1      33.391 -12.734 -23.888  0.00  0.00    -0.504 OA
ATOM     14  H   UNL     1      32.500 -12.449 -23.852  0.00  0.00    +0.292 HD
ENDBRANCH   6  13
TORSDOF 1
ENDMDL
