MODEL 1
REMARK VINA RESULT:      -8.8      0.000      0.000
REMARK  Name = 20279
REMARK  4 active torsions:
REMARK  status: ('A' for Active; 'I' for Inactive)
REMARK    1  A    between atoms: N_2  and  C1*_12
REMARK    2  A    between atoms: C3*_13  and  O3*_16
REMARK    3  A    between atoms: C4*_15  and  C5*_18
REMARK    4  A    between atoms: C5*_18  and  O5*_19
REMARK                            x       y       z     vdW  Elec       q    Type
REMARK                         _______ _______ _______ _____ _____    ______ ____
ROOT
ATOM      1 CL   UNL     1      34.260 -22.334 -19.484  0.00  0.00    +0.024 Cl
ATOM      2  N   UNL     1      34.553 -23.794 -14.688  0.00  0.00    -0.238 N 
ATOM      3  N   UNL     1      32.356 -23.797 -14.295  0.00  0.00    -0.240 NA
ATOM      4  N   UNL     1      34.555 -23.092 -17.014  0.00  0.00    -0.314 NA
ATOM      5  N   UNL     1      32.286 -22.725 -17.834  0.00  0.00    -0.314 NA
ATOM      6  C   UNL     1      33.955 -23.409 -15.857  0.00  0.00    +0.221 C 
ATOM      7  C   UNL     1      33.548 -24.016 -13.782  0.00  0.00    +0.224 C 
ATOM      8  C   UNL     1      32.595 -23.418 -15.591  0.00  0.00    +0.167 C 
ATOM      9  C   UNL     1      31.749 -23.058 -16.635  0.00  0.00    +0.212 C 
ATOM     10  C   UNL     1      33.635 -22.762 -17.947  0.00  0.00    +0.207 C 
ATOM     11  N   UNL     1      30.355 -23.038 -16.456  0.00  0.00    -0.331 N 
ATOM     12  H   UNL     1      29.766 -22.781 -17.202  0.00  0.00    +0.145 HD
ATOM     13  H   UNL     1      29.968 -23.281 -15.584  0.00  0.00    +0.145 HD
ENDROOT
BRANCH   2  15
ATOM     14  O4* UNL     1      36.570 -24.781 -15.456  0.00  0.00    -0.335 OA
ATOM     15  C1* UNL     1      35.983 -23.945 -14.443  0.00  0.00    +0.198 C 
ATOM     16  C3* UNL     1      37.680 -25.182 -13.386  0.00  0.00    +0.144 C 
ATOM     17  C2* UNL     1      36.324 -24.578 -13.102  0.00  0.00    +0.083 C 
ATOM     18  C4* UNL     1      37.566 -25.625 -14.841  0.00  0.00    +0.173 C 
BRANCH  16  19
ATOM     19  O3* UNL     1      38.664 -24.155 -13.275  0.00  0.00    -0.382 OA
ATOM     20  H3* UNL     1      39.485 -24.448 -13.701  0.00  0.00    +0.210 HD
ENDBRANCH  16  19
BRANCH  18  21
ATOM     21  C5* UNL     1      37.110 -27.071 -14.980  0.00  0.00    +0.169 C 
BRANCH  21  22
ATOM     22  O5* UNL     1      36.742 -27.302 -16.329  0.00  0.00    -0.379 OA
ATOM     23  H5* UNL     1      37.541 -27.383 -16.872  0.00  0.00    +0.211 HD
ENDBRANCH  21  22
ENDBRANCH  18  21
ENDBRANCH   2  15
TORSDOF 4
ENDMDL
MODEL 2
REMARK VINA RESULT:      -8.7      5.427      7.911
REMARK  Name = 20279
REMARK  4 active torsions:
REMARK  status: ('A' for Active; 'I' for Inactive)
REMARK    1  A    between atoms: N_2  and  C1*_12
REMARK    2  A    between atoms: C3*_13  and  O3*_16
REMARK    3  A    between atoms: C4*_15  and  C5*_18
REMARK    4  A    between atoms: C5*_18  and  O5*_19
REMARK                            x       y       z     vdW  Elec       q    Type
REMARK                         _______ _______ _______ _____ _____    ______ ____
ROOT
ATOM      1 CL   UNL     1      37.769 -22.172 -16.866  0.00  0.00    +0.024 Cl
ATOM      2  N   UNL     1      34.493 -20.578 -20.321  0.00  0.00    -0.238 N 
ATOM      3  N   UNL     1      32.744 -21.738 -19.559  0.00  0.00    -0.240 NA
ATOM      4  N   UNL     1      36.178 -21.269 -18.714  0.00  0.00    -0.314 NA
ATOM      5  N   UNL     1      35.260 -22.831 -17.079  0.00  0.00    -0.314 NA
ATOM      6  C   UNL     1      34.941 -21.274 -19.232  0.00  0.00    +0.221 C 
ATOM      7  C   UNL     1      33.166 -20.892 -20.475  0.00  0.00    +0.224 C 
ATOM      8  C   UNL     1      33.843 -21.985 -18.776  0.00  0.00    +0.167 C 
ATOM      9  C   UNL     1      34.035 -22.787 -17.656  0.00  0.00    +0.212 C 
ATOM     10  C   UNL     1      36.241 -22.081 -17.635  0.00  0.00    +0.207 C 
ATOM     11  N   UNL     1      32.977 -23.545 -17.124  0.00  0.00    -0.331 N 
ATOM     12  H   UNL     1      33.125 -24.110 -16.331  0.00  0.00    +0.145 HD
ATOM     13  H   UNL     1      32.087 -23.511 -17.545  0.00  0.00    +0.145 HD
ENDROOT
BRANCH   2  15
ATOM     14  O4* UNL     1      35.527 -18.447 -20.457  0.00  0.00    -0.335 OA
ATOM     15  C1* UNL     1      35.266 -19.673 -21.163  0.00  0.00    +0.198 C 
ATOM     16  C3* UNL     1      35.223 -17.955 -22.769  0.00  0.00    +0.144 C 
ATOM     17  C2* UNL     1      34.580 -19.290 -22.466  0.00  0.00    +0.083 C 
ATOM     18  C4* UNL     1      35.430 -17.346 -21.385  0.00  0.00    +0.173 C 
BRANCH  16  19
ATOM     19  O3* UNL     1      36.490 -18.194 -23.379  0.00  0.00    -0.382 OA
ATOM     20  H3* UNL     1      36.358 -18.627 -24.237  0.00  0.00    +0.210 HD
ENDBRANCH  16  19
BRANCH  18  21
ATOM     21  C5* UNL     1      34.265 -16.466 -20.952  0.00  0.00    +0.169 C 
BRANCH  21  22
ATOM     22  O5* UNL     1      34.775 -15.376 -20.203  0.00  0.00    -0.379 OA
ATOM     23  H5* UNL     1      34.726 -15.585 -19.257  0.00  0.00    +0.211 HD
ENDBRANCH  21  22
ENDBRANCH  18  21
ENDBRANCH   2  15
TORSDOF 4
ENDMDL
MODEL 3
REMARK VINA RESULT:      -8.7      1.512      2.155
REMARK  Name = 20279
REMARK  4 active torsions:
REMARK  status: ('A' for Active; 'I' for Inactive)
REMARK    1  A    between atoms: N_2  and  C1*_12
REMARK    2  A    between atoms: C3*_13  and  O3*_16
REMARK    3  A    between atoms: C4*_15  and  C5*_18
REMARK    4  A    between atoms: C5*_18  and  O5*_19
REMARK                            x       y       z     vdW  Elec       q    Type
REMARK                         _______ _______ _______ _____ _____    ______ ____
ROOT
ATOM      1 CL   UNL     1      34.563 -22.371 -19.438  0.00  0.00    +0.024 Cl
ATOM      2  N   UNL     1      34.237 -24.007 -14.703  0.00  0.00    -0.238 N 
ATOM      3  N   UNL     1      32.024 -23.784 -14.515  0.00  0.00    -0.240 NA
ATOM      4  N   UNL     1      34.537 -23.235 -16.986  0.00  0.00    -0.314 NA
ATOM      5  N   UNL     1      32.409 -22.598 -17.996  0.00  0.00    -0.314 NA
ATOM      6  C   UNL     1      33.798 -23.522 -15.904  0.00  0.00    +0.221 C 
ATOM      7  C   UNL     1      33.132 -24.147 -13.903  0.00  0.00    +0.224 C 
ATOM      8  C   UNL     1      32.426 -23.391 -15.766  0.00  0.00    +0.167 C 
ATOM      9  C   UNL     1      31.727 -22.909 -16.868  0.00  0.00    +0.212 C 
ATOM     10  C   UNL     1      33.751 -22.778 -17.986  0.00  0.00    +0.207 C 
ATOM     11  N   UNL     1      30.332 -22.743 -16.817  0.00  0.00    -0.331 N 
ATOM     12  H   UNL     1      29.848 -22.400 -17.603  0.00  0.00    +0.145 HD
ATOM     13  H   UNL     1      29.839 -22.970 -15.995  0.00  0.00    +0.145 HD
ENDROOT
BRANCH   2  15
ATOM     14  O4* UNL     1      35.630 -25.122 -13.137  0.00  0.00    -0.335 OA
ATOM     15  C1* UNL     1      35.613 -24.320 -14.332  0.00  0.00    +0.198 C 
ATOM     16  C3* UNL     1      37.523 -23.675 -13.122  0.00  0.00    +0.144 C 
ATOM     17  C2* UNL     1      36.479 -23.101 -14.053  0.00  0.00    +0.083 C 
ATOM     18  C4* UNL     1      36.741 -24.706 -12.315  0.00  0.00    +0.173 C 
BRANCH  16  19
ATOM     19  O3* UNL     1      38.514 -24.335 -13.908  0.00  0.00    -0.382 OA
ATOM     20  H3* UNL     1      39.365 -23.884 -13.798  0.00  0.00    +0.210 HD
ENDBRANCH  16  19
BRANCH  18  21
ATOM     21  C5* UNL     1      36.181 -24.135 -11.019  0.00  0.00    +0.169 C 
BRANCH  21  22
ATOM     22  O5* UNL     1      35.266 -25.069 -10.471  0.00  0.00    -0.379 OA
ATOM     23  H5* UNL     1      35.035 -24.802  -9.568  0.00  0.00    +0.211 HD
ENDBRANCH  21  22
ENDBRANCH  18  21
ENDBRANCH   2  15
TORSDOF 4
ENDMDL
MODEL 4
REMARK VINA RESULT:      -8.7      2.316      3.417
REMARK  Name = 20279
REMARK  4 active torsions:
REMARK  status: ('A' for Active; 'I' for Inactive)
REMARK    1  A    between atoms: N_2  and  C1*_12
REMARK    2  A    between atoms: C3*_13  and  O3*_16
REMARK    3  A    between atoms: C4*_15  and  C5*_18
REMARK    4  A    between atoms: C5*_18  and  O5*_19
REMARK                            x       y       z     vdW  Elec       q    Type
REMARK                         _______ _______ _______ _____ _____    ______ ____
ROOT
ATOM      1 CL   UNL     1      30.070 -24.292 -14.626  0.00  0.00    +0.024 Cl
ATOM      2  N   UNL     1      35.079 -24.066 -14.904  0.00  0.00    -0.238 N 
ATOM      3  N   UNL     1      35.172 -23.033 -16.881  0.00  0.00    -0.240 NA
ATOM      4  N   UNL     1      32.670 -24.243 -14.644  0.00  0.00    -0.314 NA
ATOM      5  N   UNL     1      31.496 -23.269 -16.548  0.00  0.00    -0.314 NA
ATOM      6  C   UNL     1      33.783 -23.882 -15.300  0.00  0.00    +0.221 C 
ATOM      7  C   UNL     1      35.875 -23.538 -15.889  0.00  0.00    +0.224 C 
ATOM      8  C   UNL     1      33.863 -23.241 -16.526  0.00  0.00    +0.167 C 
ATOM      9  C   UNL     1      32.660 -22.933 -17.154  0.00  0.00    +0.212 C 
ATOM     10  C   UNL     1      31.571 -23.893 -15.349  0.00  0.00    +0.207 C 
ATOM     11  N   UNL     1      32.646 -22.284 -18.400  0.00  0.00    -0.331 N 
ATOM     12  H   UNL     1      31.789 -22.072 -18.836  0.00  0.00    +0.145 HD
ATOM     13  H   UNL     1      33.494 -22.042 -18.839  0.00  0.00    +0.145 HD
ENDROOT
BRANCH   2  15
ATOM     14  O4* UNL     1      35.494 -23.755 -12.589  0.00  0.00    -0.335 OA
ATOM     15  C1* UNL     1      35.539 -24.700 -13.673  0.00  0.00    +0.198 C 
ATOM     16  C3* UNL     1      37.364 -25.199 -12.278  0.00  0.00    +0.144 C 
ATOM     17  C2* UNL     1      36.964 -25.227 -13.735  0.00  0.00    +0.083 C 
ATOM     18  C4* UNL     1      36.645 -23.965 -11.743  0.00  0.00    +0.173 C 
BRANCH  16  19
ATOM     19  O3* UNL     1      36.843 -26.367 -11.645  0.00  0.00    -0.382 OA
ATOM     20  H3* UNL     1      37.325 -27.147 -11.962  0.00  0.00    +0.210 HD
ENDBRANCH  16  19
BRANCH  18  21
ATOM     21  C5* UNL     1      37.508 -22.712 -11.802  0.00  0.00    +0.169 C 
BRANCH  21  22
ATOM     22  O5* UNL     1      38.863 -23.087 -11.629  0.00  0.00    -0.379 OA
ATOM     23  H5* UNL     1      39.081 -23.083 -10.684  0.00  0.00    +0.211 HD
ENDBRANCH  21  22
ENDBRANCH  18  21
ENDBRANCH   2  15
TORSDOF 4
ENDMDL
MODEL 5
REMARK VINA RESULT:      -8.4      2.221      2.925
REMARK  Name = 20279
REMARK  4 active torsions:
REMARK  status: ('A' for Active; 'I' for Inactive)
REMARK    1  A    between atoms: N_2  and  C1*_12
REMARK    2  A    between atoms: C3*_13  and  O3*_16
REMARK    3  A    between atoms: C4*_15  and  C5*_18
REMARK    4  A    between atoms: C5*_18  and  O5*_19
REMARK                            x       y       z     vdW  Elec       q    Type
REMARK                         _______ _______ _______ _____ _____    ______ ____
ROOT
ATOM      1 CL   UNL     1      30.960 -24.080 -13.901  0.00  0.00    +0.024 Cl
ATOM      2  N   UNL     1      35.823 -23.357 -14.921  0.00  0.00    -0.238 N 
ATOM      3  N   UNL     1      35.545 -22.786 -17.061  0.00  0.00    -0.240 NA
ATOM      4  N   UNL     1      33.507 -23.742 -14.294  0.00  0.00    -0.314 NA
ATOM      5  N   UNL     1      32.001 -23.355 -16.174  0.00  0.00    -0.314 NA
ATOM      6  C   UNL     1      34.477 -23.413 -15.160  0.00  0.00    +0.221 C 
ATOM      7  C   UNL     1      36.420 -22.974 -16.095  0.00  0.00    +0.224 C 
ATOM      8  C   UNL     1      34.328 -23.056 -16.491  0.00  0.00    +0.167 C 
ATOM      9  C   UNL     1      33.031 -23.034 -16.993  0.00  0.00    +0.212 C 
ATOM     10  C   UNL     1      32.298 -23.684 -14.894  0.00  0.00    +0.207 C 
ATOM     11  N   UNL     1      32.785 -22.684 -18.332  0.00  0.00    -0.331 N 
ATOM     12  H   UNL     1      31.862 -22.672 -18.677  0.00  0.00    +0.145 HD
ATOM     13  H   UNL     1      33.535 -22.451 -18.926  0.00  0.00    +0.145 HD
ENDROOT
BRANCH   2  15
ATOM     14  O4* UNL     1      37.928 -23.551 -13.842  0.00  0.00    -0.335 OA
ATOM     15  C1* UNL     1      36.503 -23.644 -13.663  0.00  0.00    +0.198 C 
ATOM     16  C3* UNL     1      37.460 -25.278 -12.269  0.00  0.00    +0.144 C 
ATOM     17  C2* UNL     1      36.223 -25.030 -13.102  0.00  0.00    +0.083 C 
ATOM     18  C4* UNL     1      38.562 -24.591 -13.069  0.00  0.00    +0.173 C 
BRANCH  16  19
ATOM     19  O3* UNL     1      37.298 -24.618 -11.015  0.00  0.00    -0.382 OA
ATOM     20  H3* UNL     1      38.136 -24.644 -10.527  0.00  0.00    +0.210 HD
ENDBRANCH  16  19
BRANCH  18  21
ATOM     21  C5* UNL     1      39.261 -25.537 -14.036  0.00  0.00    +0.169 C 
BRANCH  21  22
ATOM     22  O5* UNL     1      39.301 -24.929 -15.316  0.00  0.00    -0.379 OA
ATOM     23  H5* UNL     1      39.973 -25.367 -15.860  0.00  0.00    +0.211 HD
ENDBRANCH  21  22
ENDBRANCH  18  21
ENDBRANCH   2  15
TORSDOF 4
ENDMDL
MODEL 6
REMARK VINA RESULT:      -8.2      8.705     10.763
REMARK  Name = 20279
REMARK  4 active torsions:
REMARK  status: ('A' for Active; 'I' for Inactive)
REMARK    1  A    between atoms: N_2  and  C1*_12
REMARK    2  A    between atoms: C3*_13  and  O3*_16
REMARK    3  A    between atoms: C4*_15  and  C5*_18
REMARK    4  A    between atoms: C5*_18  and  O5*_19
REMARK                            x       y       z     vdW  Elec       q    Type
REMARK                         _______ _______ _______ _____ _____    ______ ____
ROOT
ATOM      1 CL   UNL     1      32.607 -13.709 -21.140  0.00  0.00    +0.024 Cl
ATOM      2  N   UNL     1      34.815 -17.309 -23.856  0.00  0.00    -0.238 N 
ATOM      3  N   UNL     1      34.301 -16.461 -25.857  0.00  0.00    -0.240 NA
ATOM      4  N   UNL     1      33.787 -15.637 -22.424  0.00  0.00    -0.314 NA
ATOM      5  N   UNL     1      32.716 -13.880 -23.735  0.00  0.00    -0.314 NA
ATOM      6  C   UNL     1      34.111 -16.161 -23.616  0.00  0.00    +0.221 C 
ATOM      7  C   UNL     1      34.902 -17.443 -25.219  0.00  0.00    +0.224 C 
ATOM      8  C   UNL     1      33.803 -15.652 -24.867  0.00  0.00    +0.167 C 
ATOM      9  C   UNL     1      33.077 -14.466 -24.902  0.00  0.00    +0.212 C 
ATOM     10  C   UNL     1      33.088 -14.492 -22.586  0.00  0.00    +0.207 C 
ATOM     11  N   UNL     1      32.719 -13.878 -26.127  0.00  0.00    -0.331 N 
ATOM     12  H   UNL     1      32.205 -13.038 -26.139  0.00  0.00    +0.145 HD
ATOM     13  H   UNL     1      32.983 -14.306 -26.974  0.00  0.00    +0.145 HD
ENDROOT
BRANCH   2  15
ATOM     14  O4* UNL     1      34.558 -19.404 -22.773  0.00  0.00    -0.335 OA
ATOM     15  C1* UNL     1      35.372 -18.221 -22.864  0.00  0.00    +0.198 C 
ATOM     16  C3* UNL     1      35.418 -18.891 -20.611  0.00  0.00    +0.144 C 
ATOM     17  C2* UNL     1      35.459 -17.641 -21.460  0.00  0.00    +0.083 C 
ATOM     18  C4* UNL     1      34.485 -19.812 -21.390  0.00  0.00    +0.173 C 
BRANCH  16  19
ATOM     19  O3* UNL     1      36.728 -19.456 -20.577  0.00  0.00    -0.382 OA
ATOM     20  H3* UNL     1      36.983 -19.732 -21.471  0.00  0.00    +0.210 HD
ENDBRANCH  16  19
BRANCH  18  21
ATOM     21  C5* UNL     1      33.034 -19.694 -20.941  0.00  0.00    +0.169 C 
BRANCH  21  22
ATOM     22  O5* UNL     1      32.653 -20.909 -20.320  0.00  0.00    -0.379 OA
ATOM     23  H5* UNL     1      33.349 -21.571 -20.452  0.00  0.00    +0.211 HD
ENDBRANCH  21  22
ENDBRANCH  18  21
ENDBRANCH   2  15
TORSDOF 4
ENDMDL
MODEL 7
REMARK VINA RESULT:      -8.1      9.190     11.110
REMARK  Name = 20279
REMARK  4 active torsions:
REMARK  status: ('A' for Active; 'I' for Inactive)
REMARK    1  A    between atoms: N_2  and  C1*_12
REMARK    2  A    between atoms: C3*_13  and  O3*_16
REMARK    3  A    between atoms: C4*_15  and  C5*_18
REMARK    4  A    between atoms: C5*_18  and  O5*_19
REMARK                            x       y       z     vdW  Elec       q    Type
REMARK                         _______ _______ _______ _____ _____    ______ ____
ROOT
ATOM      1 CL   UNL     1      33.291 -14.678 -26.346  0.00  0.00    +0.024 Cl
ATOM      2  N   UNL     1      34.070 -15.931 -21.546  0.00  0.00    -0.238 N 
ATOM      3  N   UNL     1      32.947 -14.218 -20.657  0.00  0.00    -0.240 NA
ATOM      4  N   UNL     1      33.770 -15.440 -23.906  0.00  0.00    -0.314 NA
ATOM      5  N   UNL     1      32.453 -13.412 -24.232  0.00  0.00    -0.314 NA
ATOM      6  C   UNL     1      33.600 -15.195 -22.598  0.00  0.00    +0.221 C 
ATOM      7  C   UNL     1      33.650 -15.302 -20.401  0.00  0.00    +0.224 C 
ATOM      8  C   UNL     1      32.908 -14.139 -22.026  0.00  0.00    +0.167 C 
ATOM      9  C   UNL     1      32.321 -13.226 -22.897  0.00  0.00    +0.212 C 
ATOM     10  C   UNL     1      33.158 -14.491 -24.648  0.00  0.00    +0.207 C 
ATOM     11  N   UNL     1      31.602 -12.124 -22.404  0.00  0.00    -0.331 N 
ATOM     12  H   UNL     1      31.191 -11.485 -23.030  0.00  0.00    +0.145 HD
ATOM     13  H   UNL     1      31.508 -11.992 -21.433  0.00  0.00    +0.145 HD
ENDROOT
BRANCH   2  15
ATOM     14  O4* UNL     1      35.439 -17.292 -22.926  0.00  0.00    -0.335 OA
ATOM     15  C1* UNL     1      34.864 -17.152 -21.615  0.00  0.00    +0.198 C 
ATOM     16  C3* UNL     1      34.898 -19.456 -22.087  0.00  0.00    +0.144 C 
ATOM     17  C2* UNL     1      34.077 -18.427 -21.344  0.00  0.00    +0.083 C 
ATOM     18  C4* UNL     1      35.407 -18.685 -23.301  0.00  0.00    +0.173 C 
BRANCH  16  19
ATOM     19  O3* UNL     1      36.001 -19.832 -21.264  0.00  0.00    -0.382 OA
ATOM     20  H3* UNL     1      35.717 -19.856 -20.337  0.00  0.00    +0.210 HD
ENDBRANCH  16  19
BRANCH  18  21
ATOM     21  C5* UNL     1      34.493 -18.827 -24.512  0.00  0.00    +0.169 C 
BRANCH  21  22
ATOM     22  O5* UNL     1      34.733 -17.740 -25.389  0.00  0.00    -0.379 OA
ATOM     23  H5* UNL     1      34.713 -18.056 -26.306  0.00  0.00    +0.211 HD
ENDBRANCH  21  22
ENDBRANCH  18  21
ENDBRANCH   2  15
TORSDOF 4
ENDMDL
MODEL 8
REMARK VINA RESULT:      -8.0      2.534      3.799
REMARK  Name = 20279
REMARK  4 active torsions:
REMARK  status: ('A' for Active; 'I' for Inactive)
REMARK    1  A    between atoms: N_2  and  C1*_12
REMARK    2  A    between atoms: C3*_13  and  O3*_16
REMARK    3  A    between atoms: C4*_15  and  C5*_18
REMARK    4  A    between atoms: C5*_18  and  O5*_19
REMARK                            x       y       z     vdW  Elec       q    Type
REMARK                         _______ _______ _______ _____ _____    ______ ____
ROOT
ATOM      1 CL   UNL     1      37.317 -19.724 -20.556  0.00  0.00    +0.024 Cl
ATOM      2  N   UNL     1      34.613 -22.691 -17.540  0.00  0.00    -0.238 N 
ATOM      3  N   UNL     1      32.645 -22.322 -18.528  0.00  0.00    -0.240 NA
ATOM      4  N   UNL     1      36.037 -21.290 -18.923  0.00  0.00    -0.314 NA
ATOM      5  N   UNL     1      34.755 -20.171 -20.671  0.00  0.00    -0.314 NA
ATOM      6  C   UNL     1      34.858 -21.822 -18.567  0.00  0.00    +0.221 C 
ATOM      7  C   UNL     1      33.268 -22.961 -17.560  0.00  0.00    +0.224 C 
ATOM      8  C   UNL     1      33.627 -21.607 -19.165  0.00  0.00    +0.167 C 
ATOM      9  C   UNL     1      33.600 -20.744 -20.257  0.00  0.00    +0.212 C 
ATOM     10  C   UNL     1      35.885 -20.475 -19.989  0.00  0.00    +0.207 C 
ATOM     11  N   UNL     1      32.395 -20.467 -20.924  0.00  0.00    -0.331 N 
ATOM     12  H   UNL     1      32.388 -19.855 -21.696  0.00  0.00    +0.145 HD
ATOM     13  H   UNL     1      31.557 -20.885 -20.621  0.00  0.00    +0.145 HD
ENDROOT
BRANCH   2  15
ATOM     14  O4* UNL     1      35.022 -24.361 -15.905  0.00  0.00    -0.335 OA
ATOM     15  C1* UNL     1      35.587 -23.235 -16.600  0.00  0.00    +0.198 C 
ATOM     16  C3* UNL     1      36.462 -23.179 -14.418  0.00  0.00    +0.144 C 
ATOM     17  C2* UNL     1      36.047 -22.250 -15.535  0.00  0.00    +0.083 C 
ATOM     18  C4* UNL     1      35.463 -24.327 -14.531  0.00  0.00    +0.173 C 
BRANCH  16  19
ATOM     19  O3* UNL     1      37.776 -23.660 -14.697  0.00  0.00    -0.382 OA
ATOM     20  H3* UNL     1      37.721 -24.566 -15.041  0.00  0.00    +0.210 HD
ENDBRANCH  16  19
BRANCH  18  21
ATOM     21  C5* UNL     1      34.239 -24.129 -13.648  0.00  0.00    +0.169 C 
BRANCH  21  22
ATOM     22  O5* UNL     1      34.664 -23.643 -12.386  0.00  0.00    -0.379 OA
ATOM     23  H5* UNL     1      35.368 -22.989 -12.514  0.00  0.00    +0.211 HD
ENDBRANCH  21  22
ENDBRANCH  18  21
ENDBRANCH   2  15
TORSDOF 4
ENDMDL
MODEL 9
REMARK VINA RESULT:      -7.9      1.984      2.648
REMARK  Name = 20279
REMARK  4 active torsions:
REMARK  status: ('A' for Active; 'I' for Inactive)
REMARK    1  A    between atoms: N_2  and  C1*_12
REMARK    2  A    between atoms: C3*_13  and  O3*_16
REMARK    3  A    between atoms: C4*_15  and  C5*_18
REMARK    4  A    between atoms: C5*_18  and  O5*_19
REMARK                            x       y       z     vdW  Elec       q    Type
REMARK                         _______ _______ _______ _____ _____    ______ ____
ROOT
ATOM      1 CL   UNL     1      37.446 -20.312 -19.949  0.00  0.00    +0.024 Cl
ATOM      2  N   UNL     1      35.364 -23.018 -16.267  0.00  0.00    -0.238 N 
ATOM      3  N   UNL     1      33.365 -23.254 -17.232  0.00  0.00    -0.240 NA
ATOM      4  N   UNL     1      36.492 -21.703 -17.971  0.00  0.00    -0.314 NA
ATOM      5  N   UNL     1      35.021 -21.254 -19.865  0.00  0.00    -0.314 NA
ATOM      6  C   UNL     1      35.438 -22.361 -17.464  0.00  0.00    +0.221 C 
ATOM      7  C   UNL     1      34.098 -23.538 -16.176  0.00  0.00    +0.224 C 
ATOM      8  C   UNL     1      34.190 -22.519 -18.045  0.00  0.00    +0.167 C 
ATOM      9  C   UNL     1      33.999 -21.934 -19.293  0.00  0.00    +0.212 C 
ATOM     10  C   UNL     1      36.187 -21.182 -19.179  0.00  0.00    +0.207 C 
ATOM     11  N   UNL     1      32.765 -22.043 -19.957  0.00  0.00    -0.331 N 
ATOM     12  H   UNL     1      32.641 -21.625 -20.839  0.00  0.00    +0.145 HD
ATOM     13  H   UNL     1      32.023 -22.538 -19.538  0.00  0.00    +0.145 HD
ENDROOT
BRANCH   2  15
ATOM     14  O4* UNL     1      37.261 -24.274 -15.593  0.00  0.00    -0.335 OA
ATOM     15  C1* UNL     1      36.422 -23.150 -15.272  0.00  0.00    +0.198 C 
ATOM     16  C3* UNL     1      37.094 -24.088 -13.223  0.00  0.00    +0.144 C 
ATOM     17  C2* UNL     1      35.922 -23.369 -13.852  0.00  0.00    +0.083 C 
ATOM     18  C4* UNL     1      37.635 -24.938 -14.368  0.00  0.00    +0.173 C 
BRANCH  16  19
ATOM     19  O3* UNL     1      38.069 -23.117 -12.846  0.00  0.00    -0.382 OA
ATOM     20  H3* UNL     1      37.839 -22.749 -11.979  0.00  0.00    +0.210 HD
ENDBRANCH  16  19
BRANCH  18  21
ATOM     21  C5* UNL     1      37.040 -26.340 -14.391  0.00  0.00    +0.169 C 
BRANCH  21  22
ATOM     22  O5* UNL     1      36.836 -26.767 -13.055  0.00  0.00    -0.379 OA
ATOM     23  H5* UNL     1      37.581 -27.322 -12.777  0.00  0.00    +0.211 HD
ENDBRANCH  21  22
ENDBRANCH  18  21
ENDBRANCH   2  15
TORSDOF 4
ENDMDL
