MODEL 1
REMARK VINA RESULT:      -7.4      0.000      0.000
REMARK  Name = 32170
REMARK  7 active torsions:
REMARK  status: ('A' for Active; 'I' for Inactive)
REMARK    1  A    between atoms: N_2  and  C_6
REMARK    2  A    between atoms: C_3  and  C_15
REMARK    3  A    between atoms: C_8  and  C_12
REMARK    4  A    between atoms: C_12  and  O_13
REMARK    5  A    between atoms: C_15  and  N_17
REMARK    6  A    between atoms: N_17  and  C_20
REMARK    7  A    between atoms: C_20  and  C_21
REMARK                            x       y       z     vdW  Elec       q    Type
REMARK                         _______ _______ _______ _____ _____    ______ ____
ROOT
ATOM      1  O   UNL     1      32.684 -19.689 -21.363  0.00  0.00    -0.277 OA
ATOM      2  N   UNL     1      34.892 -18.914 -21.570  0.00  0.00    -0.285 N 
ATOM      3  C   UNL     1      33.866 -19.686 -21.030  0.00  0.00    +0.206 C 
ATOM      4  H   UNL     1      35.784 -19.031 -21.171  0.00  0.00    +0.155 HD
ENDROOT
BRANCH   2   6
ATOM      5  S   UNL     1      34.590 -15.781 -23.879  0.00  0.00    -0.079 S 
ATOM      6  C   UNL     1      34.793 -17.991 -22.618  0.00  0.00    +0.059 C 
ATOM      7  C   UNL     1      34.779 -18.341 -23.989  0.00  0.00    -0.001 C 
ATOM      8  C   UNL     1      34.698 -16.643 -22.403  0.00  0.00    +0.118 C 
ATOM      9  C   UNL     1      34.671 -17.227 -24.792  0.00  0.00    +0.033 C 
ATOM     10  C   UNL     1      34.866 -19.724 -24.517  0.00  0.00    +0.033 C 
BRANCH   8  12
ATOM     11  O   UNL     1      35.109 -16.319 -20.078  0.00  0.00    -0.244 OA
ATOM     12  C   UNL     1      34.678 -15.906 -21.179  0.00  0.00    +0.349 C 
BRANCH  12  13
ATOM     13  O   UNL     1      34.124 -14.653 -21.324  0.00  0.00    -0.441 OA
ATOM     14  C   UNL     1      32.865 -14.402 -20.691  0.00  0.00    +0.256 C 
ENDBRANCH  12  13
ENDBRANCH   8  12
ENDBRANCH   2   6
BRANCH   3  15
ATOM     15  C   UNL     1      34.380 -20.573 -19.897  0.00  0.00    +0.017 C 
ATOM     16  C   UNL     1      35.713 -21.222 -20.249  0.00  0.00    -0.014 C 
BRANCH  15  17
ATOM     17  N   UNL     1      33.369 -21.606 -19.683  0.00  0.00    +0.391 N 
ATOM     18  H   UNL     1      33.021 -21.924 -20.587  0.00  0.00    -0.084 HD
ATOM     19  H   UNL     1      32.610 -21.210 -19.129  0.00  0.00    -0.084 HD
BRANCH  17  20
ATOM     20  C   UNL     1      33.933 -22.738 -18.963  0.00  0.00    -0.081 C 
BRANCH  20  21
ATOM     21  C   UNL     1      33.154 -22.986 -17.674  0.00  0.00    -0.023 C 
ATOM     22  C   UNL     1      34.088 -23.269 -16.508  0.00  0.00    -0.002 C 
ENDBRANCH  20  21
ENDBRANCH  17  20
ENDBRANCH  15  17
ENDBRANCH   3  15
TORSDOF 7
ENDMDL
MODEL 2
REMARK VINA RESULT:      -7.4      1.787      2.016
REMARK  Name = 32170
REMARK  7 active torsions:
REMARK  status: ('A' for Active; 'I' for Inactive)
REMARK    1  A    between atoms: N_2  and  C_6
REMARK    2  A    between atoms: C_3  and  C_15
REMARK    3  A    between atoms: C_8  and  C_12
REMARK    4  A    between atoms: C_12  and  O_13
REMARK    5  A    between atoms: C_15  and  N_17
REMARK    6  A    between atoms: N_17  and  C_20
REMARK    7  A    between atoms: C_20  and  C_21
REMARK                            x       y       z     vdW  Elec       q    Type
REMARK                         _______ _______ _______ _____ _____    ______ ____
ROOT
ATOM      1  O   UNL     1      37.064 -18.998 -21.315  0.00  0.00    -0.277 OA
ATOM      2  N   UNL     1      34.788 -19.022 -21.898  0.00  0.00    -0.285 N 
ATOM      3  C   UNL     1      35.929 -19.461 -21.232  0.00  0.00    +0.206 C 
ATOM      4  H   UNL     1      33.958 -19.520 -21.721  0.00  0.00    +0.155 HD
ENDROOT
BRANCH   2   6
ATOM      5  S   UNL     1      34.476 -15.576 -23.704  0.00  0.00    -0.079 S 
ATOM      6  C   UNL     1      34.693 -17.950 -22.794  0.00  0.00    +0.059 C 
ATOM      7  C   UNL     1      34.710 -18.085 -24.202  0.00  0.00    -0.001 C 
ATOM      8  C   UNL     1      34.571 -16.652 -22.376  0.00  0.00    +0.118 C 
ATOM      9  C   UNL     1      34.598 -16.862 -24.827  0.00  0.00    +0.033 C 
ATOM     10  C   UNL     1      34.830 -19.368 -24.934  0.00  0.00    +0.033 C 
BRANCH   8  12
ATOM     11  O   UNL     1      35.260 -16.449 -20.103  0.00  0.00    -0.244 OA
ATOM     12  C   UNL     1      34.517 -16.113 -21.054  0.00  0.00    +0.349 C 
BRANCH  12  13
ATOM     13  O   UNL     1      33.538 -15.154 -20.914  0.00  0.00    -0.441 OA
ATOM     14  C   UNL     1      32.210 -15.593 -20.611  0.00  0.00    +0.256 C 
ENDBRANCH  12  13
ENDBRANCH   8  12
ENDBRANCH   2   6
BRANCH   3  15
ATOM     15  C   UNL     1      35.620 -20.662 -20.340  0.00  0.00    +0.017 C 
ATOM     16  C   UNL     1      34.147 -20.716 -19.956  0.00  0.00    -0.014 C 
BRANCH  15  17
ATOM     17  N   UNL     1      36.438 -20.514 -19.139  0.00  0.00    +0.391 N 
ATOM     18  H   UNL     1      36.084 -19.731 -18.589  0.00  0.00    -0.084 HD
ATOM     19  H   UNL     1      37.404 -20.343 -19.420  0.00  0.00    -0.084 HD
BRANCH  17  20
ATOM     20  C   UNL     1      36.393 -21.723 -18.330  0.00  0.00    -0.081 C 
BRANCH  20  21
ATOM     21  C   UNL     1      37.126 -21.504 -17.009  0.00  0.00    -0.023 C 
ATOM     22  C   UNL     1      36.858 -22.638 -16.032  0.00  0.00    -0.002 C 
ENDBRANCH  20  21
ENDBRANCH  17  20
ENDBRANCH  15  17
ENDBRANCH   3  15
TORSDOF 7
ENDMDL
MODEL 3
REMARK VINA RESULT:      -7.4      2.028      3.894
REMARK  Name = 32170
REMARK  7 active torsions:
REMARK  status: ('A' for Active; 'I' for Inactive)
REMARK    1  A    between atoms: N_2  and  C_6
REMARK    2  A    between atoms: C_3  and  C_15
REMARK    3  A    between atoms: C_8  and  C_12
REMARK    4  A    between atoms: C_12  and  O_13
REMARK    5  A    between atoms: C_15  and  N_17
REMARK    6  A    between atoms: N_17  and  C_20
REMARK    7  A    between atoms: C_20  and  C_21
REMARK                            x       y       z     vdW  Elec       q    Type
REMARK                         _______ _______ _______ _____ _____    ______ ____
ROOT
ATOM      1  O   UNL     1      35.454 -16.993 -20.639  0.00  0.00    -0.277 OA
ATOM      2  N   UNL     1      33.721 -17.143 -22.216  0.00  0.00    -0.285 N 
ATOM      3  C   UNL     1      34.643 -17.637 -21.297  0.00  0.00    +0.206 C 
ATOM      4  H   UNL     1      33.151 -17.808 -22.666  0.00  0.00    +0.155 HD
ENDROOT
BRANCH   2   6
ATOM      5  S   UNL     1      33.396 -13.664 -23.955  0.00  0.00    -0.079 S 
ATOM      6  C   UNL     1      33.515 -15.804 -22.571  0.00  0.00    +0.059 C 
ATOM      7  C   UNL     1      33.070 -14.803 -21.676  0.00  0.00    -0.001 C 
ATOM      8  C   UNL     1      33.734 -15.338 -23.839  0.00  0.00    +0.118 C 
ATOM      9  C   UNL     1      32.960 -13.581 -22.302  0.00  0.00    +0.033 C 
ATOM     10  C   UNL     1      32.756 -15.018 -20.243  0.00  0.00    +0.033 C 
BRANCH   8  12
ATOM     11  O   UNL     1      33.883 -15.724 -26.187  0.00  0.00    -0.244 OA
ATOM     12  C   UNL     1      34.180 -16.027 -25.008  0.00  0.00    +0.349 C 
BRANCH  12  13
ATOM     13  O   UNL     1      34.998 -17.096 -24.712  0.00  0.00    -0.441 OA
ATOM     14  C   UNL     1      34.570 -18.399 -25.124  0.00  0.00    +0.256 C 
ENDBRANCH  12  13
ENDBRANCH   8  12
ENDBRANCH   2   6
BRANCH   3  15
ATOM     15  C   UNL     1      34.556 -19.159 -21.192  0.00  0.00    +0.017 C 
ATOM     16  C   UNL     1      33.187 -19.613 -20.699  0.00  0.00    -0.014 C 
BRANCH  15  17
ATOM     17  N   UNL     1      35.585 -19.572 -20.240  0.00  0.00    +0.391 N 
ATOM     18  H   UNL     1      35.274 -19.347 -19.295  0.00  0.00    -0.084 HD
ATOM     19  H   UNL     1      36.449 -19.076 -20.458  0.00  0.00    -0.084 HD
BRANCH  17  20
ATOM     20  C   UNL     1      35.830 -21.003 -20.333  0.00  0.00    -0.081 C 
BRANCH  20  21
ATOM     21  C   UNL     1      35.808 -21.635 -18.944  0.00  0.00    -0.023 C 
ATOM     22  C   UNL     1      34.500 -22.369 -18.691  0.00  0.00    -0.002 C 
ENDBRANCH  20  21
ENDBRANCH  17  20
ENDBRANCH  15  17
ENDBRANCH   3  15
TORSDOF 7
ENDMDL
MODEL 4
REMARK VINA RESULT:      -7.1      5.098      7.874
REMARK  Name = 32170
REMARK  7 active torsions:
REMARK  status: ('A' for Active; 'I' for Inactive)
REMARK    1  A    between atoms: N_2  and  C_6
REMARK    2  A    between atoms: C_3  and  C_15
REMARK    3  A    between atoms: C_8  and  C_12
REMARK    4  A    between atoms: C_12  and  O_13
REMARK    5  A    between atoms: C_15  and  N_17
REMARK    6  A    between atoms: N_17  and  C_20
REMARK    7  A    between atoms: C_20  and  C_21
REMARK                            x       y       z     vdW  Elec       q    Type
REMARK                         _______ _______ _______ _____ _____    ______ ____
ROOT
ATOM      1  O   UNL     1      34.145 -12.129 -23.681  0.00  0.00    -0.277 OA
ATOM      2  N   UNL     1      32.784 -13.975 -23.175  0.00  0.00    -0.285 N 
ATOM      3  C   UNL     1      33.084 -12.622 -23.308  0.00  0.00    +0.206 C 
ATOM      4  H   UNL     1      31.881 -14.194 -22.850  0.00  0.00    +0.155 HD
ENDROOT
BRANCH   2   6
ATOM      5  S   UNL     1      34.836 -16.913 -24.723  0.00  0.00    -0.079 S 
ATOM      6  C   UNL     1      33.626 -15.059 -23.454  0.00  0.00    +0.059 C 
ATOM      7  C   UNL     1      34.447 -15.697 -22.495  0.00  0.00    -0.001 C 
ATOM      8  C   UNL     1      33.730 -15.607 -24.704  0.00  0.00    +0.118 C 
ATOM      9  C   UNL     1      35.165 -16.732 -23.053  0.00  0.00    +0.033 C 
ATOM     10  C   UNL     1      34.538 -15.318 -21.064  0.00  0.00    +0.033 C 
BRANCH   8  12
ATOM     11  O   UNL     1      32.606 -16.057 -26.757  0.00  0.00    -0.244 OA
ATOM     12  C   UNL     1      33.073 -15.250 -25.922  0.00  0.00    +0.349 C 
BRANCH  12  13
ATOM     13  O   UNL     1      32.996 -13.886 -26.101  0.00  0.00    -0.441 OA
ATOM     14  C   UNL     1      33.444 -13.350 -27.350  0.00  0.00    +0.256 C 
ENDBRANCH  12  13
ENDBRANCH   8  12
ENDBRANCH   2   6
BRANCH   3  15
ATOM     15  C   UNL     1      31.897 -11.751 -22.904  0.00  0.00    +0.017 C 
ATOM     16  C   UNL     1      32.287 -10.283 -22.787  0.00  0.00    -0.014 C 
BRANCH  15  17
ATOM     17  N   UNL     1      31.439 -12.244 -21.606  0.00  0.00    +0.391 N 
ATOM     18  H   UNL     1      32.245 -12.553 -21.064  0.00  0.00    -0.084 HD
ATOM     19  H   UNL     1      30.795 -13.020 -21.761  0.00  0.00    -0.084 HD
BRANCH  17  20
ATOM     20  C   UNL     1      30.743 -11.197 -20.873  0.00  0.00    -0.081 C 
BRANCH  20  21
ATOM     21  C   UNL     1      31.287 -11.097 -19.450  0.00  0.00    -0.023 C 
ATOM     22  C   UNL     1      31.996  -9.772 -19.220  0.00  0.00    -0.002 C 
ENDBRANCH  20  21
ENDBRANCH  17  20
ENDBRANCH  15  17
ENDBRANCH   3  15
TORSDOF 7
ENDMDL
MODEL 5
REMARK VINA RESULT:      -7.0      3.320      5.521
REMARK  Name = 32170
REMARK  7 active torsions:
REMARK  status: ('A' for Active; 'I' for Inactive)
REMARK    1  A    between atoms: N_2  and  C_6
REMARK    2  A    between atoms: C_3  and  C_15
REMARK    3  A    between atoms: C_8  and  C_12
REMARK    4  A    between atoms: C_12  and  O_13
REMARK    5  A    between atoms: C_15  and  N_17
REMARK    6  A    between atoms: N_17  and  C_20
REMARK    7  A    between atoms: C_20  and  C_21
REMARK                            x       y       z     vdW  Elec       q    Type
REMARK                         _______ _______ _______ _____ _____    ______ ____
ROOT
ATOM      1  O   UNL     1      35.434 -15.444 -23.002  0.00  0.00    -0.277 OA
ATOM      2  N   UNL     1      33.222 -14.752 -23.383  0.00  0.00    -0.285 N 
ATOM      3  C   UNL     1      34.245 -15.401 -22.697  0.00  0.00    +0.206 C 
ATOM      4  H   UNL     1      32.319 -14.831 -23.000  0.00  0.00    +0.155 HD
ENDROOT
BRANCH   2   6
ATOM      5  S   UNL     1      33.509 -13.395 -27.032  0.00  0.00    -0.079 S 
ATOM      6  C   UNL     1      33.338 -13.999 -24.559  0.00  0.00    +0.059 C 
ATOM      7  C   UNL     1      33.447 -12.589 -24.593  0.00  0.00    -0.001 C 
ATOM      8  C   UNL     1      33.357 -14.574 -25.800  0.00  0.00    +0.118 C 
ATOM      9  C   UNL     1      33.548 -12.123 -25.886  0.00  0.00    +0.033 C 
ATOM     10  C   UNL     1      33.455 -11.705 -23.403  0.00  0.00    +0.033 C 
BRANCH   8  12
ATOM     11  O   UNL     1      32.279 -16.493 -26.715  0.00  0.00    -0.244 OA
ATOM     12  C   UNL     1      33.271 -15.949 -26.179  0.00  0.00    +0.349 C 
BRANCH  12  13
ATOM     13  O   UNL     1      34.422 -16.650 -25.890  0.00  0.00    -0.441 OA
ATOM     14  C   UNL     1      34.287 -17.914 -25.231  0.00  0.00    +0.256 C 
ENDBRANCH  12  13
ENDBRANCH   8  12
ENDBRANCH   2   6
BRANCH   3  15
ATOM     15  C   UNL     1      33.711 -16.115 -21.457  0.00  0.00    +0.017 C 
ATOM     16  C   UNL     1      32.963 -15.161 -20.534  0.00  0.00    -0.014 C 
BRANCH  15  17
ATOM     17  N   UNL     1      34.871 -16.667 -20.760  0.00  0.00    +0.391 N 
ATOM     18  H   UNL     1      34.670 -16.710 -19.761  0.00  0.00    -0.084 HD
ATOM     19  H   UNL     1      35.675 -16.065 -20.936  0.00  0.00    -0.084 HD
BRANCH  17  20
ATOM     20  C   UNL     1      35.175 -18.006 -21.243  0.00  0.00    -0.081 C 
BRANCH  20  21
ATOM     21  C   UNL     1      33.914 -18.867 -21.245  0.00  0.00    -0.023 C 
ATOM     22  C   UNL     1      34.124 -20.159 -20.472  0.00  0.00    -0.002 C 
ENDBRANCH  20  21
ENDBRANCH  17  20
ENDBRANCH  15  17
ENDBRANCH   3  15
TORSDOF 7
ENDMDL
MODEL 6
REMARK VINA RESULT:      -7.0      5.376      8.416
REMARK  Name = 32170
REMARK  7 active torsions:
REMARK  status: ('A' for Active; 'I' for Inactive)
REMARK    1  A    between atoms: N_2  and  C_6
REMARK    2  A    between atoms: C_3  and  C_15
REMARK    3  A    between atoms: C_8  and  C_12
REMARK    4  A    between atoms: C_12  and  O_13
REMARK    5  A    between atoms: C_15  and  N_17
REMARK    6  A    between atoms: N_17  and  C_20
REMARK    7  A    between atoms: C_20  and  C_21
REMARK                            x       y       z     vdW  Elec       q    Type
REMARK                         _______ _______ _______ _____ _____    ______ ____
ROOT
ATOM      1  O   UNL     1      35.739 -25.553 -15.560  0.00  0.00    -0.277 OA
ATOM      2  N   UNL     1      35.119 -23.291 -15.442  0.00  0.00    -0.285 N 
ATOM      3  C   UNL     1      36.005 -24.364 -15.410  0.00  0.00    +0.206 C 
ATOM      4  H   UNL     1      35.505 -22.399 -15.289  0.00  0.00    +0.155 HD
ENDROOT
BRANCH   2   6
ATOM      5  S   UNL     1      31.477 -23.203 -16.845  0.00  0.00    -0.079 S 
ATOM      6  C   UNL     1      33.738 -23.342 -15.669  0.00  0.00    +0.059 C 
ATOM      7  C   UNL     1      32.782 -23.689 -14.686  0.00  0.00    -0.001 C 
ATOM      8  C   UNL     1      33.182 -23.053 -16.886  0.00  0.00    +0.118 C 
ATOM      9  C   UNL     1      31.502 -23.654 -15.194  0.00  0.00    +0.033 C 
ATOM     10  C   UNL     1      33.095 -24.048 -13.282  0.00  0.00    +0.033 C 
BRANCH   8  12
ATOM     11  O   UNL     1      35.036 -22.689 -18.339  0.00  0.00    -0.244 OA
ATOM     12  C   UNL     1      33.804 -22.666 -18.112  0.00  0.00    +0.349 C 
BRANCH  12  13
ATOM     13  O   UNL     1      32.894 -22.250 -19.059  0.00  0.00    -0.441 OA
ATOM     14  C   UNL     1      33.139 -21.005 -19.721  0.00  0.00    +0.256 C 
ENDBRANCH  12  13
ENDBRANCH   8  12
ENDBRANCH   2   6
BRANCH   3  15
ATOM     15  C   UNL     1      37.432 -23.893 -15.134  0.00  0.00    +0.017 C 
ATOM     16  C   UNL     1      37.839 -22.752 -16.058  0.00  0.00    -0.014 C 
BRANCH  15  17
ATOM     17  N   UNL     1      38.304 -25.044 -15.358  0.00  0.00    +0.391 N 
ATOM     18  H   UNL     1      38.919 -24.848 -16.148  0.00  0.00    -0.084 HD
ATOM     19  H   UNL     1      37.723 -25.860 -15.554  0.00  0.00    -0.084 HD
BRANCH  17  20
ATOM     20  C   UNL     1      39.113 -25.317 -14.180  0.00  0.00    -0.081 C 
BRANCH  20  21
ATOM     21  C   UNL     1      38.363 -24.904 -12.916  0.00  0.00    -0.023 C 
ATOM     22  C   UNL     1      37.495 -26.038 -12.392  0.00  0.00    -0.002 C 
ENDBRANCH  20  21
ENDBRANCH  17  20
ENDBRANCH  15  17
ENDBRANCH   3  15
TORSDOF 7
ENDMDL
MODEL 7
REMARK VINA RESULT:      -7.0      4.723      7.352
REMARK  Name = 32170
REMARK  7 active torsions:
REMARK  status: ('A' for Active; 'I' for Inactive)
REMARK    1  A    between atoms: N_2  and  C_6
REMARK    2  A    between atoms: C_3  and  C_15
REMARK    3  A    between atoms: C_8  and  C_12
REMARK    4  A    between atoms: C_12  and  O_13
REMARK    5  A    between atoms: C_15  and  N_17
REMARK    6  A    between atoms: N_17  and  C_20
REMARK    7  A    between atoms: C_20  and  C_21
REMARK                            x       y       z     vdW  Elec       q    Type
REMARK                         _______ _______ _______ _____ _____    ______ ____
ROOT
ATOM      1  O   UNL     1      34.187 -12.238 -24.252  0.00  0.00    -0.277 OA
ATOM      2  N   UNL     1      32.870 -13.972 -23.372  0.00  0.00    -0.285 N 
ATOM      3  C   UNL     1      33.201 -12.648 -23.647  0.00  0.00    +0.206 C 
ATOM      4  H   UNL     1      32.042 -14.120 -22.862  0.00  0.00    +0.155 HD
ENDROOT
BRANCH   2   6
ATOM      5  S   UNL     1      35.040 -17.209 -23.598  0.00  0.00    -0.079 S 
ATOM      6  C   UNL     1      33.587 -15.116 -23.744  0.00  0.00    +0.059 C 
ATOM      7  C   UNL     1      33.688 -15.596 -25.071  0.00  0.00    -0.001 C 
ATOM      8  C   UNL     1      34.266 -15.885 -22.838  0.00  0.00    +0.118 C 
ATOM      9  C   UNL     1      34.457 -16.738 -25.137  0.00  0.00    +0.033 C 
ATOM     10  C   UNL     1      33.057 -14.966 -26.256  0.00  0.00    +0.033 C 
BRANCH   8  12
ATOM     11  O   UNL     1      35.180 -16.394 -20.696  0.00  0.00    -0.244 OA
ATOM     12  C   UNL     1      34.403 -15.733 -21.424  0.00  0.00    +0.349 C 
BRANCH  12  13
ATOM     13  O   UNL     1      33.575 -14.758 -20.913  0.00  0.00    -0.441 OA
ATOM     14  C   UNL     1      32.499 -15.172 -20.064  0.00  0.00    +0.256 C 
ENDBRANCH  12  13
ENDBRANCH   8  12
ENDBRANCH   2   6
BRANCH   3  15
ATOM     15  C   UNL     1      32.161 -11.689 -23.070  0.00  0.00    +0.017 C 
ATOM     16  C   UNL     1      32.685 -10.259 -23.006  0.00  0.00    -0.014 C 
BRANCH  15  17
ATOM     17  N   UNL     1      31.856 -12.163 -21.722  0.00  0.00    +0.391 N 
ATOM     18  H   UNL     1      32.716 -12.185 -21.173  0.00  0.00    -0.084 HD
ATOM     19  H   UNL     1      31.452 -13.097 -21.788  0.00  0.00    -0.084 HD
BRANCH  17  20
ATOM     20  C   UNL     1      30.897 -11.284 -21.070  0.00  0.00    -0.081 C 
BRANCH  20  21
ATOM     21  C   UNL     1      31.272 -11.087 -19.602  0.00  0.00    -0.023 C 
ATOM     22  C   UNL     1      31.905  -9.724 -19.371  0.00  0.00    -0.002 C 
ENDBRANCH  20  21
ENDBRANCH  17  20
ENDBRANCH  15  17
ENDBRANCH   3  15
TORSDOF 7
ENDMDL
MODEL 8
REMARK VINA RESULT:      -7.0      2.857      5.158
REMARK  Name = 32170
REMARK  7 active torsions:
REMARK  status: ('A' for Active; 'I' for Inactive)
REMARK    1  A    between atoms: N_2  and  C_6
REMARK    2  A    between atoms: C_3  and  C_15
REMARK    3  A    between atoms: C_8  and  C_12
REMARK    4  A    between atoms: C_12  and  O_13
REMARK    5  A    between atoms: C_15  and  N_17
REMARK    6  A    between atoms: N_17  and  C_20
REMARK    7  A    between atoms: C_20  and  C_21
REMARK                            x       y       z     vdW  Elec       q    Type
REMARK                         _______ _______ _______ _____ _____    ______ ____
ROOT
ATOM      1  O   UNL     1      35.351 -16.067 -21.811  0.00  0.00    -0.277 OA
ATOM      2  N   UNL     1      33.624 -15.568 -23.323  0.00  0.00    -0.285 N 
ATOM      3  C   UNL     1      34.693 -16.305 -22.821  0.00  0.00    +0.206 C 
ATOM      4  H   UNL     1      33.217 -15.899 -24.156  0.00  0.00    +0.155 HD
ENDROOT
BRANCH   2   6
ATOM      5  S   UNL     1      32.306 -11.987 -22.501  0.00  0.00    -0.079 S 
ATOM      6  C   UNL     1      33.064 -14.409 -22.772  0.00  0.00    +0.059 C 
ATOM      7  C   UNL     1      32.455 -14.347 -21.497  0.00  0.00    -0.001 C 
ATOM      8  C   UNL     1      33.059 -13.210 -23.433  0.00  0.00    +0.118 C 
ATOM      9  C   UNL     1      31.995 -13.078 -21.220  0.00  0.00    +0.033 C 
ATOM     10  C   UNL     1      32.318 -15.488 -20.561  0.00  0.00    +0.033 C 
BRANCH   8  12
ATOM     11  O   UNL     1      34.183 -11.813 -25.004  0.00  0.00    -0.244 OA
ATOM     12  C   UNL     1      33.570 -12.869 -24.723  0.00  0.00    +0.349 C 
BRANCH  12  13
ATOM     13  O   UNL     1      33.319 -13.842 -25.666  0.00  0.00    -0.441 OA
ATOM     14  C   UNL     1      33.220 -13.436 -27.035  0.00  0.00    +0.256 C 
ENDBRANCH  12  13
ENDBRANCH   8  12
ENDBRANCH   2   6
BRANCH   3  15
ATOM     15  C   UNL     1      35.003 -17.506 -23.712  0.00  0.00    +0.017 C 
ATOM     16  C   UNL     1      34.650 -17.234 -25.169  0.00  0.00    -0.014 C 
BRANCH  15  17
ATOM     17  N   UNL     1      34.200 -18.619 -23.210  0.00  0.00    +0.391 N 
ATOM     18  H   UNL     1      33.878 -19.180 -23.998  0.00  0.00    -0.084 HD
ATOM     19  H   UNL     1      33.405 -18.241 -22.694  0.00  0.00    -0.084 HD
BRANCH  17  20
ATOM     20  C   UNL     1      34.982 -19.457 -22.314  0.00  0.00    -0.081 C 
BRANCH  20  21
ATOM     21  C   UNL     1      34.427 -19.375 -20.894  0.00  0.00    -0.023 C 
ATOM     22  C   UNL     1      33.030 -19.970 -20.810  0.00  0.00    -0.002 C 
ENDBRANCH  20  21
ENDBRANCH  17  20
ENDBRANCH  15  17
ENDBRANCH   3  15
TORSDOF 7
ENDMDL
MODEL 9
REMARK VINA RESULT:      -7.0      4.684      8.274
REMARK  Name = 32170
REMARK  7 active torsions:
REMARK  status: ('A' for Active; 'I' for Inactive)
REMARK    1  A    between atoms: N_2  and  C_6
REMARK    2  A    between atoms: C_3  and  C_15
REMARK    3  A    between atoms: C_8  and  C_12
REMARK    4  A    between atoms: C_12  and  O_13
REMARK    5  A    between atoms: C_15  and  N_17
REMARK    6  A    between atoms: N_17  and  C_20
REMARK    7  A    between atoms: C_20  and  C_21
REMARK                            x       y       z     vdW  Elec       q    Type
REMARK                         _______ _______ _______ _____ _____    ______ ____
ROOT
ATOM      1  O   UNL     1      31.851 -14.251 -21.779  0.00  0.00    -0.277 OA
ATOM      2  N   UNL     1      33.720 -13.950 -23.169  0.00  0.00    -0.285 N 
ATOM      3  C   UNL     1      32.670 -13.538 -22.353  0.00  0.00    +0.206 C 
ATOM      4  H   UNL     1      34.276 -13.238 -23.561  0.00  0.00    +0.155 HD
ENDROOT
BRANCH   2   6
ATOM      5  S   UNL     1      34.413 -17.415 -24.828  0.00  0.00    -0.079 S 
ATOM      6  C   UNL     1      34.071 -15.266 -23.495  0.00  0.00    +0.059 C 
ATOM      7  C   UNL     1      34.642 -16.186 -22.584  0.00  0.00    -0.001 C 
ATOM      8  C   UNL     1      33.888 -15.787 -24.746  0.00  0.00    +0.118 C 
ATOM      9  C   UNL     1      34.881 -17.404 -23.182  0.00  0.00    +0.033 C 
ATOM     10  C   UNL     1      34.951 -15.898 -21.162  0.00  0.00    +0.033 C 
BRANCH   8  12
ATOM     11  O   UNL     1      32.870 -15.804 -26.902  0.00  0.00    -0.244 OA
ATOM     12  C   UNL     1      33.348 -15.184 -25.924  0.00  0.00    +0.349 C 
BRANCH  12  13
ATOM     13  O   UNL     1      33.402 -13.808 -25.886  0.00  0.00    -0.441 OA
ATOM     14  C   UNL     1      33.362 -13.103 -27.131  0.00  0.00    +0.256 C 
ENDBRANCH  12  13
ENDBRANCH   8  12
ENDBRANCH   2   6
BRANCH   3  15
ATOM     15  C   UNL     1      32.618 -12.015 -22.246  0.00  0.00    +0.017 C 
ATOM     16  C   UNL     1      31.209 -11.517 -21.951  0.00  0.00    -0.014 C 
BRANCH  15  17
ATOM     17  N   UNL     1      33.068 -11.489 -23.532  0.00  0.00    +0.391 N 
ATOM     18  H   UNL     1      32.420 -11.790 -24.261  0.00  0.00    -0.084 HD
ATOM     19  H   UNL     1      34.005 -11.846 -23.721  0.00  0.00    -0.084 HD
BRANCH  17  20
ATOM     20  C   UNL     1      33.117 -10.035 -23.508  0.00  0.00    -0.081 C 
BRANCH  20  21
ATOM     21  C   UNL     1      34.460  -9.542 -24.040  0.00  0.00    -0.023 C 
ATOM     22  C   UNL     1      34.706  -8.090 -23.661  0.00  0.00    -0.002 C 
ENDBRANCH  20  21
ENDBRANCH  17  20
ENDBRANCH  15  17
ENDBRANCH   3  15
TORSDOF 7
ENDMDL
