MODEL 1
REMARK VINA RESULT:      -9.3      0.000      0.000
REMARK  Name = 46937046
REMARK  4 active torsions:
REMARK  status: ('A' for Active; 'I' for Inactive)
REMARK    1  A    between atoms: N_1  and  C_9
REMARK    2  A    between atoms: C_4  and  C_16
REMARK    3  A    between atoms: C_16  and  O_17
REMARK    4  A    between atoms: O_17  and  C_18
REMARK                            x       y       z     vdW  Elec       q    Type
REMARK                         _______ _______ _______ _____ _____    ______ ____
ROOT
ATOM      1  N   UNL     1      34.755 -18.277 -21.796  0.00  0.00    -0.238 N 
ATOM      2  N   UNL     1      34.654 -16.903 -21.341  0.00  0.00    -0.266 N 
ATOM      3  C   UNL     1      34.678 -18.198 -23.170  0.00  0.00    +0.122 C 
ATOM      4  C   UNL     1      34.533 -16.819 -23.574  0.00  0.00    +0.083 C 
ATOM      5  C   UNL     1      34.522 -16.038 -22.411  0.00  0.00    +0.043 C 
ATOM      6  C   UNL     1      34.749 -19.428 -23.967  0.00  0.00    +0.028 C 
ATOM      7  C   UNL     1      34.400 -14.583 -22.210  0.00  0.00    +0.048 C 
ATOM      8  H   UNL     1      34.677 -16.625 -20.397  0.00  0.00    +0.170 HD
ENDROOT
BRANCH   1   9
ATOM      9  C   UNL     1      34.901 -19.430 -20.970  0.00  0.00    +0.065 C 
ATOM     10  C   UNL     1      33.772 -20.115 -20.521  0.00  0.00    +0.016 C 
ATOM     11  C   UNL     1      36.174 -19.872 -20.611  0.00  0.00    +0.016 C 
ATOM     12  C   UNL     1      33.916 -21.243 -19.713  0.00  0.00    +0.001 C 
ATOM     13  C   UNL     1      36.318 -20.999 -19.802  0.00  0.00    +0.001 C 
ATOM     14  C   UNL     1      35.189 -21.684 -19.353  0.00  0.00    +0.000 C 
ENDBRANCH   1   9
BRANCH   4  16
ATOM     15  O   UNL     1      35.103 -16.673 -25.884  0.00  0.00    -0.245 OA
ATOM     16  C   UNL     1      34.418 -16.303 -24.908  0.00  0.00    +0.340 C 
BRANCH  16  17
ATOM     17  O   UNL     1      33.450 -15.331 -25.011  0.00  0.00    -0.446 OA
BRANCH  17  18
ATOM     18  C   UNL     1      32.878 -15.099 -26.302  0.00  0.00    +0.209 C 
ATOM     19  C   UNL     1      33.159 -13.670 -26.717  0.00  0.00    +0.051 C 
ENDBRANCH  17  18
ENDBRANCH  16  17
ENDBRANCH   4  16
TORSDOF 4
ENDMDL
MODEL 2
REMARK VINA RESULT:      -9.0      3.695      7.144
REMARK  Name = 46937046
REMARK  4 active torsions:
REMARK  status: ('A' for Active; 'I' for Inactive)
REMARK    1  A    between atoms: N_1  and  C_9
REMARK    2  A    between atoms: C_4  and  C_16
REMARK    3  A    between atoms: C_16  and  O_17
REMARK    4  A    between atoms: O_17  and  C_18
REMARK                            x       y       z     vdW  Elec       q    Type
REMARK                         _______ _______ _______ _____ _____    ______ ____
ROOT
ATOM      1  N   UNL     1      34.953 -19.447 -20.754  0.00  0.00    -0.238 N 
ATOM      2  N   UNL     1      36.104 -19.952 -20.027  0.00  0.00    -0.266 N 
ATOM      3  C   UNL     1      33.949 -20.354 -20.494  0.00  0.00    +0.122 C 
ATOM      4  C   UNL     1      34.444 -21.401 -19.632  0.00  0.00    +0.083 C 
ATOM      5  C   UNL     1      35.790 -21.121 -19.359  0.00  0.00    +0.043 C 
ATOM      6  C   UNL     1      32.622 -20.145 -21.083  0.00  0.00    +0.028 C 
ATOM      7  C   UNL     1      36.793 -21.834 -18.548  0.00  0.00    +0.048 C 
ATOM      8  H   UNL     1      36.988 -19.520 -20.013  0.00  0.00    +0.170 HD
ENDROOT
BRANCH   1   9
ATOM      9  C   UNL     1      34.913 -18.265 -21.550  0.00  0.00    +0.065 C 
ATOM     10  C   UNL     1      34.703 -17.025 -20.947  0.00  0.00    +0.016 C 
ATOM     11  C   UNL     1      35.082 -18.350 -22.932  0.00  0.00    +0.016 C 
ATOM     12  C   UNL     1      34.664 -15.868 -21.726  0.00  0.00    +0.001 C 
ATOM     13  C   UNL     1      35.042 -17.194 -23.711  0.00  0.00    +0.001 C 
ATOM     14  C   UNL     1      34.833 -15.953 -23.109  0.00  0.00    +0.000 C 
ENDBRANCH   1   9
BRANCH   4  16
ATOM     15  O   UNL     1      33.915 -23.719 -19.470  0.00  0.00    -0.245 OA
ATOM     16  C   UNL     1      33.725 -22.534 -19.125  0.00  0.00    +0.340 C 
BRANCH  16  17
ATOM     17  O   UNL     1      32.778 -22.179 -18.194  0.00  0.00    -0.446 OA
BRANCH  17  18
ATOM     18  C   UNL     1      32.581 -23.055 -17.080  0.00  0.00    +0.209 C 
ATOM     19  C   UNL     1      31.179 -22.863 -16.542  0.00  0.00    +0.051 C 
ENDBRANCH  17  18
ENDBRANCH  16  17
ENDBRANCH   4  16
TORSDOF 4
ENDMDL
MODEL 3
REMARK VINA RESULT:      -8.8      1.892      3.151
REMARK  Name = 46937046
REMARK  4 active torsions:
REMARK  status: ('A' for Active; 'I' for Inactive)
REMARK    1  A    between atoms: N_1  and  C_9
REMARK    2  A    between atoms: C_4  and  C_16
REMARK    3  A    between atoms: C_16  and  O_17
REMARK    4  A    between atoms: O_17  and  C_18
REMARK                            x       y       z     vdW  Elec       q    Type
REMARK                         _______ _______ _______ _____ _____    ______ ____
ROOT
ATOM      1  N   UNL     1      34.578 -17.315 -22.403  0.00  0.00    -0.238 N 
ATOM      2  N   UNL     1      34.413 -17.295 -23.845  0.00  0.00    -0.266 N 
ATOM      3  C   UNL     1      34.250 -16.040 -21.995  0.00  0.00    +0.122 C 
ATOM      4  C   UNL     1      33.889 -15.237 -23.139  0.00  0.00    +0.083 C 
ATOM      5  C   UNL     1      34.001 -16.048 -24.277  0.00  0.00    +0.043 C 
ATOM      6  C   UNL     1      34.309 -15.705 -20.569  0.00  0.00    +0.028 C 
ATOM      7  C   UNL     1      33.763 -15.770 -25.705  0.00  0.00    +0.048 C 
ATOM      8  H   UNL     1      34.573 -18.066 -24.436  0.00  0.00    +0.170 HD
ENDROOT
BRANCH   1   9
ATOM      9  C   UNL     1      34.990 -18.431 -21.619  0.00  0.00    +0.065 C 
ATOM     10  C   UNL     1      34.040 -19.326 -21.125  0.00  0.00    +0.016 C 
ATOM     11  C   UNL     1      36.343 -18.628 -21.343  0.00  0.00    +0.016 C 
ATOM     12  C   UNL     1      34.444 -20.419 -20.357  0.00  0.00    +0.001 C 
ATOM     13  C   UNL     1      36.746 -19.720 -20.575  0.00  0.00    +0.001 C 
ATOM     14  C   UNL     1      35.797 -20.615 -20.082  0.00  0.00    +0.000 C 
ENDBRANCH   1   9
BRANCH   4  16
ATOM     15  O   UNL     1      34.157 -12.918 -23.623  0.00  0.00    -0.245 OA
ATOM     16  C   UNL     1      33.485 -13.860 -23.153  0.00  0.00    +0.340 C 
BRANCH  16  17
ATOM     17  O   UNL     1      32.249 -13.672 -22.581  0.00  0.00    -0.446 OA
BRANCH  17  18
ATOM     18  C   UNL     1      31.957 -12.381 -22.039  0.00  0.00    +0.209 C 
ATOM     19  C   UNL     1      31.934 -12.474 -20.527  0.00  0.00    +0.051 C 
ENDBRANCH  17  18
ENDBRANCH  16  17
ENDBRANCH   4  16
TORSDOF 4
ENDMDL
MODEL 4
REMARK VINA RESULT:      -8.6      1.992      3.225
REMARK  Name = 46937046
REMARK  4 active torsions:
REMARK  status: ('A' for Active; 'I' for Inactive)
REMARK    1  A    between atoms: N_1  and  C_9
REMARK    2  A    between atoms: C_4  and  C_16
REMARK    3  A    between atoms: C_16  and  O_17
REMARK    4  A    between atoms: O_17  and  C_18
REMARK                            x       y       z     vdW  Elec       q    Type
REMARK                         _______ _______ _______ _____ _____    ______ ____
ROOT
ATOM      1  N   UNL     1      34.451 -17.050 -22.553  0.00  0.00    -0.238 N 
ATOM      2  N   UNL     1      34.270 -17.001 -23.992  0.00  0.00    -0.266 N 
ATOM      3  C   UNL     1      34.090 -15.795 -22.112  0.00  0.00    +0.122 C 
ATOM      4  C   UNL     1      33.694 -14.976 -23.234  0.00  0.00    +0.083 C 
ATOM      5  C   UNL     1      33.818 -15.757 -24.391  0.00  0.00    +0.043 C 
ATOM      6  C   UNL     1      34.154 -15.491 -20.679  0.00  0.00    +0.028 C 
ATOM      7  C   UNL     1      33.557 -15.453 -25.809  0.00  0.00    +0.048 C 
ATOM      8  H   UNL     1      34.446 -17.753 -24.603  0.00  0.00    +0.170 HD
ENDROOT
BRANCH   1   9
ATOM      9  C   UNL     1      34.903 -18.171 -21.799  0.00  0.00    +0.065 C 
ATOM     10  C   UNL     1      36.268 -18.364 -21.585  0.00  0.00    +0.016 C 
ATOM     11  C   UNL     1      33.980 -19.077 -21.275  0.00  0.00    +0.016 C 
ATOM     12  C   UNL     1      36.711 -19.461 -20.846  0.00  0.00    +0.001 C 
ATOM     13  C   UNL     1      34.423 -20.174 -20.537  0.00  0.00    +0.001 C 
ATOM     14  C   UNL     1      35.788 -20.367 -20.323  0.00  0.00    +0.000 C 
ENDBRANCH   1   9
BRANCH   4  16
ATOM     15  O   UNL     1      32.131 -13.226 -22.815  0.00  0.00    -0.245 OA
ATOM     16  C   UNL     1      33.251 -13.612 -23.211  0.00  0.00    +0.340 C 
BRANCH  16  17
ATOM     17  O   UNL     1      34.208 -12.743 -23.681  0.00  0.00    -0.446 OA
BRANCH  17  18
ATOM     18  C   UNL     1      33.824 -11.827 -24.711  0.00  0.00    +0.209 C 
ATOM     19  C   UNL     1      34.332 -10.445 -24.358  0.00  0.00    +0.051 C 
ENDBRANCH  17  18
ENDBRANCH  16  17
ENDBRANCH   4  16
TORSDOF 4
ENDMDL
MODEL 5
REMARK VINA RESULT:      -8.5      4.805      6.988
REMARK  Name = 46937046
REMARK  4 active torsions:
REMARK  status: ('A' for Active; 'I' for Inactive)
REMARK    1  A    between atoms: N_1  and  C_9
REMARK    2  A    between atoms: C_4  and  C_16
REMARK    3  A    between atoms: C_16  and  O_17
REMARK    4  A    between atoms: O_17  and  C_18
REMARK                            x       y       z     vdW  Elec       q    Type
REMARK                         _______ _______ _______ _____ _____    ______ ____
ROOT
ATOM      1  N   UNL     1      32.901 -12.964 -23.278  0.00  0.00    -0.238 N 
ATOM      2  N   UNL     1      31.923 -12.888 -22.209  0.00  0.00    -0.266 N 
ATOM      3  C   UNL     1      33.115 -11.653 -23.650  0.00  0.00    +0.122 C 
ATOM      4  C   UNL     1      32.300 -10.776 -22.844  0.00  0.00    +0.083 C 
ATOM      5  C   UNL     1      31.570 -11.577 -21.955  0.00  0.00    +0.043 C 
ATOM      6  C   UNL     1      34.065 -11.358 -24.728  0.00  0.00    +0.028 C 
ATOM      7  C   UNL     1      30.588 -11.234 -20.910  0.00  0.00    +0.048 C 
ATOM      8  H   UNL     1      31.562 -13.667 -21.728  0.00  0.00    +0.170 HD
ENDROOT
BRANCH   1   9
ATOM      9  C   UNL     1      33.488 -14.152 -23.801  0.00  0.00    +0.065 C 
ATOM     10  C   UNL     1      34.438 -14.848 -23.054  0.00  0.00    +0.016 C 
ATOM     11  C   UNL     1      33.111 -14.621 -25.060  0.00  0.00    +0.016 C 
ATOM     12  C   UNL     1      35.013 -16.012 -23.565  0.00  0.00    +0.001 C 
ATOM     13  C   UNL     1      33.686 -15.784 -25.572  0.00  0.00    +0.001 C 
ATOM     14  C   UNL     1      34.637 -16.479 -24.825  0.00  0.00    +0.000 C 
ENDBRANCH   1   9
BRANCH   4  16
ATOM     15  O   UNL     1      31.397  -8.698 -23.584  0.00  0.00    -0.245 OA
ATOM     16  C   UNL     1      32.223  -9.345 -22.908  0.00  0.00    +0.340 C 
BRANCH  16  17
ATOM     17  O   UNL     1      33.177  -8.734 -22.127  0.00  0.00    -0.446 OA
BRANCH  17  18
ATOM     18  C   UNL     1      33.676  -7.465 -22.559  0.00  0.00    +0.209 C 
ATOM     19  C   UNL     1      34.821  -7.686 -23.525  0.00  0.00    +0.051 C 
ENDBRANCH  17  18
ENDBRANCH  16  17
ENDBRANCH   4  16
TORSDOF 4
ENDMDL
MODEL 6
REMARK VINA RESULT:      -8.5      1.699      2.128
REMARK  Name = 46937046
REMARK  4 active torsions:
REMARK  status: ('A' for Active; 'I' for Inactive)
REMARK    1  A    between atoms: N_1  and  C_9
REMARK    2  A    between atoms: C_4  and  C_16
REMARK    3  A    between atoms: C_16  and  O_17
REMARK    4  A    between atoms: O_17  and  C_18
REMARK                            x       y       z     vdW  Elec       q    Type
REMARK                         _______ _______ _______ _____ _____    ______ ____
ROOT
ATOM      1  N   UNL     1      34.196 -17.040 -21.755  0.00  0.00    -0.238 N 
ATOM      2  N   UNL     1      33.519 -16.008 -20.991  0.00  0.00    -0.266 N 
ATOM      3  C   UNL     1      34.273 -16.534 -23.035  0.00  0.00    +0.122 C 
ATOM      4  C   UNL     1      33.665 -15.226 -23.082  0.00  0.00    +0.083 C 
ATOM      5  C   UNL     1      33.205 -14.927 -21.792  0.00  0.00    +0.043 C 
ATOM      6  C   UNL     1      34.912 -17.333 -24.086  0.00  0.00    +0.028 C 
ATOM      7  C   UNL     1      32.510 -13.745 -21.250  0.00  0.00    +0.048 C 
ATOM      8  H   UNL     1      33.312 -16.071 -20.031  0.00  0.00    +0.170 HD
ENDROOT
BRANCH   1   9
ATOM      9  C   UNL     1      34.665 -18.289 -21.253  0.00  0.00    +0.065 C 
ATOM     10  C   UNL     1      33.755 -19.290 -20.915  0.00  0.00    +0.016 C 
ATOM     11  C   UNL     1      36.033 -18.509 -21.100  0.00  0.00    +0.016 C 
ATOM     12  C   UNL     1      34.213 -20.514 -20.424  0.00  0.00    +0.001 C 
ATOM     13  C   UNL     1      36.492 -19.731 -20.608  0.00  0.00    +0.001 C 
ATOM     14  C   UNL     1      35.582 -20.733 -20.270  0.00  0.00    +0.000 C 
ENDBRANCH   1   9
BRANCH   4  16
ATOM     15  O   UNL     1      32.928 -14.640 -25.272  0.00  0.00    -0.245 OA
ATOM     16  C   UNL     1      33.535 -14.359 -24.218  0.00  0.00    +0.340 C 
BRANCH  16  17
ATOM     17  O   UNL     1      34.162 -13.149 -24.027  0.00  0.00    -0.446 OA
BRANCH  17  18
ATOM     18  C   UNL     1      33.788 -12.066 -24.884  0.00  0.00    +0.209 C 
ATOM     19  C   UNL     1      33.825 -10.775 -24.093  0.00  0.00    +0.051 C 
ENDBRANCH  17  18
ENDBRANCH  16  17
ENDBRANCH   4  16
TORSDOF 4
ENDMDL
MODEL 7
REMARK VINA RESULT:      -8.4      1.242      2.129
REMARK  Name = 46937046
REMARK  4 active torsions:
REMARK  status: ('A' for Active; 'I' for Inactive)
REMARK    1  A    between atoms: N_1  and  C_9
REMARK    2  A    between atoms: C_4  and  C_16
REMARK    3  A    between atoms: C_16  and  O_17
REMARK    4  A    between atoms: O_17  and  C_18
REMARK                            x       y       z     vdW  Elec       q    Type
REMARK                         _______ _______ _______ _____ _____    ______ ____
ROOT
ATOM      1  N   UNL     1      34.535 -18.388 -22.120  0.00  0.00    -0.238 N 
ATOM      2  N   UNL     1      34.737 -18.491 -23.554  0.00  0.00    -0.266 N 
ATOM      3  C   UNL     1      34.283 -17.051 -21.897  0.00  0.00    +0.122 C 
ATOM      4  C   UNL     1      34.324 -16.330 -23.147  0.00  0.00    +0.083 C 
ATOM      5  C   UNL     1      34.609 -17.256 -24.160  0.00  0.00    +0.043 C 
ATOM      6  C   UNL     1      34.029 -16.586 -20.529  0.00  0.00    +0.028 C 
ATOM      7  C   UNL     1      34.771 -17.094 -25.616  0.00  0.00    +0.048 C 
ATOM      8  H   UNL     1      34.938 -19.329 -24.030  0.00  0.00    +0.170 HD
ENDROOT
BRANCH   1   9
ATOM      9  C   UNL     1      34.593 -19.460 -21.183  0.00  0.00    +0.065 C 
ATOM     10  C   UNL     1      33.414 -20.035 -20.707  0.00  0.00    +0.016 C 
ATOM     11  C   UNL     1      35.828 -19.933 -20.739  0.00  0.00    +0.016 C 
ATOM     12  C   UNL     1      33.470 -21.085 -19.790  0.00  0.00    +0.001 C 
ATOM     13  C   UNL     1      35.884 -20.981 -19.821  0.00  0.00    +0.001 C 
ATOM     14  C   UNL     1      34.706 -21.557 -19.346  0.00  0.00    +0.000 C 
ENDBRANCH   1   9
BRANCH   4  16
ATOM     15  O   UNL     1      34.752 -14.012 -22.790  0.00  0.00    -0.245 OA
ATOM     16  C   UNL     1      34.117 -14.926 -23.357  0.00  0.00    +0.340 C 
BRANCH  16  17
ATOM     17  O   UNL     1      33.122 -14.675 -24.273  0.00  0.00    -0.446 OA
BRANCH  17  18
ATOM     18  C   UNL     1      33.295 -13.559 -25.152  0.00  0.00    +0.209 C 
ATOM     19  C   UNL     1      32.916 -13.975 -26.558  0.00  0.00    +0.051 C 
ENDBRANCH  17  18
ENDBRANCH  16  17
ENDBRANCH   4  16
TORSDOF 4
ENDMDL
MODEL 8
REMARK VINA RESULT:      -8.3      2.810      6.707
REMARK  Name = 46937046
REMARK  4 active torsions:
REMARK  status: ('A' for Active; 'I' for Inactive)
REMARK    1  A    between atoms: N_1  and  C_9
REMARK    2  A    between atoms: C_4  and  C_16
REMARK    3  A    between atoms: C_16  and  O_17
REMARK    4  A    between atoms: O_17  and  C_18
REMARK                            x       y       z     vdW  Elec       q    Type
REMARK                         _______ _______ _______ _____ _____    ______ ____
ROOT
ATOM      1  N   UNL     1      33.806 -14.673 -23.148  0.00  0.00    -0.238 N 
ATOM      2  N   UNL     1      33.823 -15.511 -24.333  0.00  0.00    -0.266 N 
ATOM      3  C   UNL     1      34.382 -15.447 -22.164  0.00  0.00    +0.122 C 
ATOM      4  C   UNL     1      34.752 -16.733 -22.705  0.00  0.00    +0.083 C 
ATOM      5  C   UNL     1      34.390 -16.741 -24.059  0.00  0.00    +0.043 C 
ATOM      6  C   UNL     1      34.527 -14.898 -20.811  0.00  0.00    +0.028 C 
ATOM      7  C   UNL     1      34.523 -17.775 -25.101  0.00  0.00    +0.048 C 
ATOM      8  H   UNL     1      33.477 -15.239 -25.214  0.00  0.00    +0.170 HD
ENDROOT
BRANCH   1   9
ATOM      9  C   UNL     1      33.296 -13.345 -23.064  0.00  0.00    +0.065 C 
ATOM     10  C   UNL     1      32.240 -13.056 -22.200  0.00  0.00    +0.016 C 
ATOM     11  C   UNL     1      33.854 -12.333 -23.845  0.00  0.00    +0.016 C 
ATOM     12  C   UNL     1      31.741 -11.755 -22.116  0.00  0.00    +0.001 C 
ATOM     13  C   UNL     1      33.356 -11.033 -23.763  0.00  0.00    +0.001 C 
ATOM     14  C   UNL     1      32.299 -10.744 -22.899  0.00  0.00    +0.000 C 
ENDBRANCH   1   9
BRANCH   4  16
ATOM     15  O   UNL     1      36.516 -18.274 -22.263  0.00  0.00    -0.245 OA
ATOM     16  C   UNL     1      35.376 -17.827 -22.018  0.00  0.00    +0.340 C 
BRANCH  16  17
ATOM     17  O   UNL     1      34.573 -18.352 -21.033  0.00  0.00    -0.446 OA
BRANCH  17  18
ATOM     18  C   UNL     1      34.313 -19.759 -21.068  0.00  0.00    +0.209 C 
ATOM     19  C   UNL     1      32.887 -20.009 -20.625  0.00  0.00    +0.051 C 
ENDBRANCH  17  18
ENDBRANCH  16  17
ENDBRANCH   4  16
TORSDOF 4
ENDMDL
MODEL 9
REMARK VINA RESULT:      -8.1      5.176      7.611
REMARK  Name = 46937046
REMARK  4 active torsions:
REMARK  status: ('A' for Active; 'I' for Inactive)
REMARK    1  A    between atoms: N_1  and  C_9
REMARK    2  A    between atoms: C_4  and  C_16
REMARK    3  A    between atoms: C_16  and  O_17
REMARK    4  A    between atoms: O_17  and  C_18
REMARK                            x       y       z     vdW  Elec       q    Type
REMARK                         _______ _______ _______ _____ _____    ______ ____
ROOT
ATOM      1  N   UNL     1      33.616 -11.986 -23.776  0.00  0.00    -0.238 N 
ATOM      2  N   UNL     1      34.452 -10.919 -24.294  0.00  0.00    -0.266 N 
ATOM      3  C   UNL     1      32.700 -11.350 -22.965  0.00  0.00    +0.122 C 
ATOM      4  C   UNL     1      32.947  -9.928 -22.967  0.00  0.00    +0.083 C 
ATOM      5  C   UNL     1      34.046  -9.692 -23.805  0.00  0.00    +0.043 C 
ATOM      6  C   UNL     1      31.683 -12.146 -22.268  0.00  0.00    +0.028 C 
ATOM      7  C   UNL     1      34.739  -8.447 -24.182  0.00  0.00    +0.048 C 
ATOM      8  H   UNL     1      35.208 -11.052 -24.911  0.00  0.00    +0.170 HD
ENDROOT
BRANCH   1   9
ATOM      9  C   UNL     1      33.745 -13.375 -24.068  0.00  0.00    +0.065 C 
ATOM     10  C   UNL     1      33.227 -13.889 -25.257  0.00  0.00    +0.016 C 
ATOM     11  C   UNL     1      34.389 -14.220 -23.165  0.00  0.00    +0.016 C 
ATOM     12  C   UNL     1      33.354 -15.249 -25.544  0.00  0.00    +0.001 C 
ATOM     13  C   UNL     1      34.515 -15.579 -23.450  0.00  0.00    +0.001 C 
ATOM     14  C   UNL     1      33.997 -16.094 -24.639  0.00  0.00    +0.000 C 
ENDBRANCH   1   9
BRANCH   4  16
ATOM     15  O   UNL     1      31.218  -8.312 -22.685  0.00  0.00    -0.245 OA
ATOM     16  C   UNL     1      32.226  -8.911 -22.257  0.00  0.00    +0.340 C 
BRANCH  16  17
ATOM     17  O   UNL     1      32.769  -8.652 -21.019  0.00  0.00    -0.446 OA
BRANCH  17  18
ATOM     18  C   UNL     1      31.893  -8.694 -19.889  0.00  0.00    +0.209 C 
ATOM     19  C   UNL     1      31.902 -10.093 -19.308  0.00  0.00    +0.051 C 
ENDBRANCH  17  18
ENDBRANCH  16  17
ENDBRANCH   4  16
TORSDOF 4
ENDMDL
