MODEL 1
REMARK VINA RESULT:      -9.1      0.000      0.000
REMARK  Name = 24764436
REMARK  2 active torsions:
REMARK  status: ('A' for Active; 'I' for Inactive)
REMARK    1  A    between atoms: C_3  and  C_12
REMARK    2  A    between atoms: C_4  and  C_8
REMARK                            x       y       z     vdW  Elec       q    Type
REMARK                         _______ _______ _______ _____ _____    ______ ____
ROOT
ATOM      1  O   UNL     1      35.234 -16.618 -21.781  0.00  0.00    -0.352 OA
ATOM      2  N   UNL     1      35.418 -17.599 -20.816  0.00  0.00    -0.077 NA
ATOM      3  C   UNL     1      34.794 -18.679 -21.296  0.00  0.00    +0.123 C 
ATOM      4  C   UNL     1      34.510 -17.130 -22.808  0.00  0.00    +0.192 C 
ATOM      5  C   UNL     1      34.204 -18.440 -22.549  0.00  0.00    +0.064 C 
ENDROOT
BRANCH   4   8
ATOM      6  N   UNL     1      34.317 -16.807 -25.228  0.00  0.00    -0.233 N 
ATOM      7  N   UNL     1      33.921 -15.925 -26.161  0.00  0.00    -0.180 NA
ATOM      8  C   UNL     1      34.158 -16.363 -23.948  0.00  0.00    +0.104 C 
ATOM      9  C   UNL     1      33.621 -15.103 -24.051  0.00  0.00    +0.041 C 
ATOM     10  C   UNL     1      33.497 -14.887 -25.437  0.00  0.00    +0.119 C 
ATOM     11  H   UNL     1      34.687 -17.692 -25.447  0.00  0.00    +0.175 HD
ENDBRANCH   4   8
BRANCH   3  12
ATOM     12  C   UNL     1      34.776 -19.907 -20.553  0.00  0.00    +0.021 C 
ATOM     13  C   UNL     1      35.975 -20.510 -20.172  0.00  0.00    +0.002 C 
ATOM     14  C   UNL     1      33.559 -20.497 -20.211  0.00  0.00    +0.002 C 
ATOM     15  C   UNL     1      35.957 -21.704 -19.450  0.00  0.00    +0.000 C 
ATOM     16  C   UNL     1      33.541 -21.691 -19.489  0.00  0.00    +0.000 C 
ATOM     17  C   UNL     1      34.739 -22.294 -19.109  0.00  0.00    +0.000 C 
ENDBRANCH   3  12
TORSDOF 2
ENDMDL
MODEL 2
REMARK VINA RESULT:      -9.1      0.038      1.208
REMARK  Name = 24764436
REMARK  2 active torsions:
REMARK  status: ('A' for Active; 'I' for Inactive)
REMARK    1  A    between atoms: C_3  and  C_12
REMARK    2  A    between atoms: C_4  and  C_8
REMARK                            x       y       z     vdW  Elec       q    Type
REMARK                         _______ _______ _______ _____ _____    ______ ____
ROOT
ATOM      1  O   UNL     1      35.195 -16.577 -21.777  0.00  0.00    -0.352 OA
ATOM      2  N   UNL     1      35.381 -17.560 -20.814  0.00  0.00    -0.077 NA
ATOM      3  C   UNL     1      34.782 -18.647 -21.307  0.00  0.00    +0.123 C 
ATOM      4  C   UNL     1      34.493 -17.097 -22.817  0.00  0.00    +0.192 C 
ATOM      5  C   UNL     1      34.205 -18.412 -22.567  0.00  0.00    +0.064 C 
ENDROOT
BRANCH   4   8
ATOM      6  N   UNL     1      34.300 -16.780 -25.237  0.00  0.00    -0.233 N 
ATOM      7  N   UNL     1      33.909 -15.898 -26.173  0.00  0.00    -0.180 NA
ATOM      8  C   UNL     1      34.146 -16.331 -23.959  0.00  0.00    +0.104 C 
ATOM      9  C   UNL     1      33.617 -15.068 -24.065  0.00  0.00    +0.041 C 
ATOM     10  C   UNL     1      33.492 -14.854 -25.451  0.00  0.00    +0.119 C 
ATOM     11  H   UNL     1      34.664 -17.668 -25.455  0.00  0.00    +0.175 HD
ENDBRANCH   4   8
BRANCH   3  12
ATOM     12  C   UNL     1      34.772 -19.878 -20.569  0.00  0.00    +0.021 C 
ATOM     13  C   UNL     1      33.560 -20.473 -20.219  0.00  0.00    +0.002 C 
ATOM     14  C   UNL     1      35.975 -20.480 -20.200  0.00  0.00    +0.002 C 
ATOM     15  C   UNL     1      33.551 -21.670 -19.502  0.00  0.00    +0.000 C 
ATOM     16  C   UNL     1      35.966 -21.677 -19.483  0.00  0.00    +0.000 C 
ATOM     17  C   UNL     1      34.754 -22.271 -19.134  0.00  0.00    +0.000 C 
ENDBRANCH   3  12
TORSDOF 2
ENDMDL
MODEL 3
REMARK VINA RESULT:      -9.1      2.660      6.631
REMARK  Name = 24764436
REMARK  2 active torsions:
REMARK  status: ('A' for Active; 'I' for Inactive)
REMARK    1  A    between atoms: C_3  and  C_12
REMARK    2  A    between atoms: C_4  and  C_8
REMARK                            x       y       z     vdW  Elec       q    Type
REMARK                         _______ _______ _______ _____ _____    ______ ____
ROOT
ATOM      1  O   UNL     1      35.918 -20.263 -19.880  0.00  0.00    -0.352 OA
ATOM      2  N   UNL     1      36.189 -19.345 -20.885  0.00  0.00    -0.077 NA
ATOM      3  C   UNL     1      35.048 -19.234 -21.571  0.00  0.00    +0.123 C 
ATOM      4  C   UNL     1      34.629 -20.678 -19.987  0.00  0.00    +0.192 C 
ATOM      5  C   UNL     1      34.031 -20.053 -21.049  0.00  0.00    +0.064 C 
ENDROOT
BRANCH   4   8
ATOM      6  N   UNL     1      32.712 -21.806 -18.965  0.00  0.00    -0.233 N 
ATOM      7  N   UNL     1      32.380 -22.750 -18.067  0.00  0.00    -0.180 NA
ATOM      8  C   UNL     1      34.057 -21.622 -19.097  0.00  0.00    +0.104 C 
ATOM      9  C   UNL     1      34.645 -22.505 -18.226  0.00  0.00    +0.041 C 
ATOM     10  C   UNL     1      33.565 -23.173 -17.619  0.00  0.00    +0.119 C 
ATOM     11  H   UNL     1      32.046 -21.296 -19.479  0.00  0.00    +0.175 HD
ENDBRANCH   4   8
BRANCH   3  12
ATOM     12  C   UNL     1      34.954 -18.356 -22.703  0.00  0.00    +0.021 C 
ATOM     13  C   UNL     1      35.109 -16.980 -22.533  0.00  0.00    +0.002 C 
ATOM     14  C   UNL     1      34.706 -18.878 -23.972  0.00  0.00    +0.002 C 
ATOM     15  C   UNL     1      35.017 -16.127 -23.633  0.00  0.00    +0.000 C 
ATOM     16  C   UNL     1      34.614 -18.025 -25.072  0.00  0.00    +0.000 C 
ATOM     17  C   UNL     1      34.769 -16.650 -24.902  0.00  0.00    +0.000 C 
ENDBRANCH   3  12
TORSDOF 2
ENDMDL
MODEL 4
REMARK VINA RESULT:      -8.9      1.465      1.959
REMARK  Name = 24764436
REMARK  2 active torsions:
REMARK  status: ('A' for Active; 'I' for Inactive)
REMARK    1  A    between atoms: C_3  and  C_12
REMARK    2  A    between atoms: C_4  and  C_8
REMARK                            x       y       z     vdW  Elec       q    Type
REMARK                         _______ _______ _______ _____ _____    ______ ____
ROOT
ATOM      1  O   UNL     1      34.951 -17.726 -23.749  0.00  0.00    -0.352 OA
ATOM      2  N   UNL     1      35.104 -18.954 -23.117  0.00  0.00    -0.077 NA
ATOM      3  C   UNL     1      34.647 -18.764 -21.876  0.00  0.00    +0.123 C 
ATOM      4  C   UNL     1      34.409 -16.838 -22.877  0.00  0.00    +0.192 C 
ATOM      5  C   UNL     1      34.196 -17.449 -21.669  0.00  0.00    +0.064 C 
ENDROOT
BRANCH   4   8
ATOM      6  N   UNL     1      33.562 -15.135 -24.419  0.00  0.00    -0.233 N 
ATOM      7  N   UNL     1      33.386 -13.810 -24.558  0.00  0.00    -0.180 NA
ATOM      8  C   UNL     1      34.133 -15.493 -23.233  0.00  0.00    +0.104 C 
ATOM      9  C   UNL     1      34.345 -14.322 -22.548  0.00  0.00    +0.041 C 
ATOM     10  C   UNL     1      33.866 -13.318 -23.412  0.00  0.00    +0.119 C 
ATOM     11  H   UNL     1      33.303 -15.787 -25.109  0.00  0.00    +0.175 HD
ENDBRANCH   4   8
BRANCH   3  12
ATOM     12  C   UNL     1      34.651 -19.836 -20.922  0.00  0.00    +0.021 C 
ATOM     13  C   UNL     1      33.445 -20.355 -20.450  0.00  0.00    +0.002 C 
ATOM     14  C   UNL     1      35.860 -20.360 -20.465  0.00  0.00    +0.002 C 
ATOM     15  C   UNL     1      33.448 -21.396 -19.522  0.00  0.00    +0.000 C 
ATOM     16  C   UNL     1      35.864 -21.401 -19.536  0.00  0.00    +0.000 C 
ATOM     17  C   UNL     1      34.658 -21.919 -19.065  0.00  0.00    +0.000 C 
ENDBRANCH   3  12
TORSDOF 2
ENDMDL
MODEL 5
REMARK VINA RESULT:      -8.6      5.125      8.692
REMARK  Name = 24764436
REMARK  2 active torsions:
REMARK  status: ('A' for Active; 'I' for Inactive)
REMARK    1  A    between atoms: C_3  and  C_12
REMARK    2  A    between atoms: C_4  and  C_8
REMARK                            x       y       z     vdW  Elec       q    Type
REMARK                         _______ _______ _______ _____ _____    ______ ____
ROOT
ATOM      1  O   UNL     1      34.641 -23.675 -16.846  0.00  0.00    -0.352 OA
ATOM      2  N   UNL     1      34.069 -23.077 -17.961  0.00  0.00    -0.077 NA
ATOM      3  C   UNL     1      34.899 -22.083 -18.287  0.00  0.00    +0.123 C 
ATOM      4  C   UNL     1      35.794 -23.029 -16.534  0.00  0.00    +0.192 C 
ATOM      5  C   UNL     1      36.004 -22.006 -17.420  0.00  0.00    +0.064 C 
ENDROOT
BRANCH   4   8
ATOM      6  N   UNL     1      37.902 -23.819 -15.570  0.00  0.00    -0.233 N 
ATOM      7  N   UNL     1      38.493 -24.137 -14.406  0.00  0.00    -0.180 NA
ATOM      8  C   UNL     1      36.607 -23.412 -15.436  0.00  0.00    +0.104 C 
ATOM      9  C   UNL     1      36.332 -23.466 -14.092  0.00  0.00    +0.041 C 
ATOM     10  C   UNL     1      37.530 -23.918 -13.507  0.00  0.00    +0.119 C 
ATOM     11  H   UNL     1      38.360 -23.876 -16.439  0.00  0.00    +0.175 HD
ENDBRANCH   4   8
BRANCH   3  12
ATOM     12  C   UNL     1      34.623 -21.233 -19.410  0.00  0.00    +0.021 C 
ATOM     13  C   UNL     1      35.674 -20.702 -20.158  0.00  0.00    +0.002 C 
ATOM     14  C   UNL     1      33.304 -20.938 -19.754  0.00  0.00    +0.002 C 
ATOM     15  C   UNL     1      35.405 -19.876 -21.250  0.00  0.00    +0.000 C 
ATOM     16  C   UNL     1      33.035 -20.112 -20.845  0.00  0.00    +0.000 C 
ATOM     17  C   UNL     1      34.085 -19.581 -21.593  0.00  0.00    +0.000 C 
ENDBRANCH   3  12
TORSDOF 2
ENDMDL
MODEL 6
REMARK VINA RESULT:      -8.5      8.350     10.600
REMARK  Name = 24764436
REMARK  2 active torsions:
REMARK  status: ('A' for Active; 'I' for Inactive)
REMARK    1  A    between atoms: C_3  and  C_12
REMARK    2  A    between atoms: C_4  and  C_8
REMARK                            x       y       z     vdW  Elec       q    Type
REMARK                         _______ _______ _______ _____ _____    ______ ____
ROOT
ATOM      1  O   UNL     1      36.185 -23.575 -16.226  0.00  0.00    -0.352 OA
ATOM      2  N   UNL     1      34.887 -23.136 -16.452  0.00  0.00    -0.077 NA
ATOM      3  C   UNL     1      34.164 -23.671 -15.464  0.00  0.00    +0.123 C 
ATOM      4  C   UNL     1      36.207 -24.357 -15.116  0.00  0.00    +0.192 C 
ATOM      5  C   UNL     1      34.945 -24.451 -14.593  0.00  0.00    +0.064 C 
ENDROOT
BRANCH   4   8
ATOM      6  N   UNL     1      38.013 -26.006 -15.249  0.00  0.00    -0.233 N 
ATOM      7  N   UNL     1      39.128 -26.423 -14.625  0.00  0.00    -0.180 NA
ATOM      8  C   UNL     1      37.397 -24.956 -14.631  0.00  0.00    +0.104 C 
ATOM      9  C   UNL     1      38.162 -24.667 -13.528  0.00  0.00    +0.041 C 
ATOM     10  C   UNL     1      39.215 -25.602 -13.575  0.00  0.00    +0.119 C 
ATOM     11  H   UNL     1      37.672 -26.419 -16.074  0.00  0.00    +0.175 HD
ENDBRANCH   4   8
BRANCH   3  12
ATOM     12  C   UNL     1      32.752 -23.428 -15.375  0.00  0.00    +0.021 C 
ATOM     13  C   UNL     1      32.013 -23.174 -16.530  0.00  0.00    +0.002 C 
ATOM     14  C   UNL     1      32.118 -23.446 -14.132  0.00  0.00    +0.002 C 
ATOM     15  C   UNL     1      30.640 -22.937 -16.443  0.00  0.00    +0.000 C 
ATOM     16  C   UNL     1      30.746 -23.209 -14.045  0.00  0.00    +0.000 C 
ATOM     17  C   UNL     1      30.008 -22.955 -15.200  0.00  0.00    +0.000 C 
ENDBRANCH   3  12
TORSDOF 2
ENDMDL
MODEL 7
REMARK VINA RESULT:      -8.5      2.260      6.529
REMARK  Name = 24764436
REMARK  2 active torsions:
REMARK  status: ('A' for Active; 'I' for Inactive)
REMARK    1  A    between atoms: C_3  and  C_12
REMARK    2  A    between atoms: C_4  and  C_8
REMARK                            x       y       z     vdW  Elec       q    Type
REMARK                         _______ _______ _______ _____ _____    ______ ____
ROOT
ATOM      1  O   UNL     1      35.891 -19.786 -21.114  0.00  0.00    -0.352 OA
ATOM      2  N   UNL     1      36.017 -18.604 -21.833  0.00  0.00    -0.077 NA
ATOM      3  C   UNL     1      34.818 -18.020 -21.753  0.00  0.00    +0.123 C 
ATOM      4  C   UNL     1      34.628 -19.879 -20.624  0.00  0.00    +0.192 C 
ATOM      5  C   UNL     1      33.904 -18.780 -21.003  0.00  0.00    +0.064 C 
ENDROOT
BRANCH   4   8
ATOM      6  N   UNL     1      32.891 -21.187 -19.498  0.00  0.00    -0.233 N 
ATOM      7  N   UNL     1      32.694 -22.291 -18.757  0.00  0.00    -0.180 NA
ATOM      8  C   UNL     1      34.194 -20.982 -19.844  0.00  0.00    +0.104 C 
ATOM      9  C   UNL     1      34.899 -22.022 -19.291  0.00  0.00    +0.041 C 
ATOM     10  C   UNL     1      33.924 -22.797 -18.634  0.00  0.00    +0.119 C 
ATOM     11  H   UNL     1      32.162 -20.583 -19.766  0.00  0.00    +0.175 HD
ENDBRANCH   4   8
BRANCH   3  12
ATOM     12  C   UNL     1      34.573 -16.758 -22.391  0.00  0.00    +0.021 C 
ATOM     13  C   UNL     1      34.429 -15.603 -21.621  0.00  0.00    +0.002 C 
ATOM     14  C   UNL     1      34.479 -16.685 -23.781  0.00  0.00    +0.002 C 
ATOM     15  C   UNL     1      34.190 -14.377 -22.241  0.00  0.00    +0.000 C 
ATOM     16  C   UNL     1      34.240 -15.458 -24.400  0.00  0.00    +0.000 C 
ATOM     17  C   UNL     1      34.095 -14.305 -23.631  0.00  0.00    +0.000 C 
ENDBRANCH   3  12
TORSDOF 2
ENDMDL
MODEL 8
REMARK VINA RESULT:      -8.4      2.201      6.705
REMARK  Name = 24764436
REMARK  2 active torsions:
REMARK  status: ('A' for Active; 'I' for Inactive)
REMARK    1  A    between atoms: C_3  and  C_12
REMARK    2  A    between atoms: C_4  and  C_8
REMARK                            x       y       z     vdW  Elec       q    Type
REMARK                         _______ _______ _______ _____ _____    ______ ____
ROOT
ATOM      1  O   UNL     1      35.703 -17.320 -22.753  0.00  0.00    -0.352 OA
ATOM      2  N   UNL     1      35.269 -16.070 -23.176  0.00  0.00    -0.077 NA
ATOM      3  C   UNL     1      34.327 -15.715 -22.298  0.00  0.00    +0.123 C 
ATOM      4  C   UNL     1      35.014 -17.680 -21.640  0.00  0.00    +0.192 C 
ATOM      5  C   UNL     1      34.125 -16.693 -21.308  0.00  0.00    +0.064 C 
ENDROOT
BRANCH   4   8
ATOM      6  N   UNL     1      36.433 -19.258 -20.418  0.00  0.00    -0.233 N 
ATOM      7  N   UNL     1      36.430 -20.469 -19.835  0.00  0.00    -0.180 NA
ATOM      8  C   UNL     1      35.236 -18.912 -20.974  0.00  0.00    +0.104 C 
ATOM      9  C   UNL     1      34.392 -19.970 -20.738  0.00  0.00    +0.041 C 
ATOM     10  C   UNL     1      35.181 -20.899 -20.033  0.00  0.00    +0.119 C 
ATOM     11  H   UNL     1      37.225 -18.676 -20.442  0.00  0.00    +0.175 HD
ENDBRANCH   4   8
BRANCH   3  12
ATOM     12  C   UNL     1      33.644 -14.459 -22.423  0.00  0.00    +0.021 C 
ATOM     13  C   UNL     1      32.676 -14.095 -21.486  0.00  0.00    +0.002 C 
ATOM     14  C   UNL     1      33.947 -13.601 -23.480  0.00  0.00    +0.002 C 
ATOM     15  C   UNL     1      32.012 -12.874 -21.608  0.00  0.00    +0.000 C 
ATOM     16  C   UNL     1      33.283 -12.381 -23.602  0.00  0.00    +0.000 C 
ATOM     17  C   UNL     1      32.316 -12.017 -22.666  0.00  0.00    +0.000 C 
ENDBRANCH   3  12
TORSDOF 2
ENDMDL
MODEL 9
REMARK VINA RESULT:      -8.3      1.902      6.608
REMARK  Name = 24764436
REMARK  2 active torsions:
REMARK  status: ('A' for Active; 'I' for Inactive)
REMARK    1  A    between atoms: C_3  and  C_12
REMARK    2  A    between atoms: C_4  and  C_8
REMARK                            x       y       z     vdW  Elec       q    Type
REMARK                         _______ _______ _______ _____ _____    ______ ____
ROOT
ATOM      1  O   UNL     1      35.212 -16.733 -20.601  0.00  0.00    -0.352 OA
ATOM      2  N   UNL     1      34.858 -15.671 -21.423  0.00  0.00    -0.077 NA
ATOM      3  C   UNL     1      34.487 -16.234 -22.576  0.00  0.00    +0.123 C 
ATOM      4  C   UNL     1      35.044 -17.898 -21.278  0.00  0.00    +0.192 C 
ATOM      5  C   UNL     1      34.584 -17.636 -22.541  0.00  0.00    +0.064 C 
ENDROOT
BRANCH   4   8
ATOM      6  N   UNL     1      36.527 -19.476 -20.134  0.00  0.00    -0.233 N 
ATOM      7  N   UNL     1      36.585 -20.725 -19.642  0.00  0.00    -0.180 NA
ATOM      8  C   UNL     1      35.325 -19.162 -20.698  0.00  0.00    +0.104 C 
ATOM      9  C   UNL     1      34.543 -20.283 -20.566  0.00  0.00    +0.041 C 
ATOM     10  C   UNL     1      35.371 -21.213 -19.909  0.00  0.00    +0.119 C 
ATOM     11  H   UNL     1      37.282 -18.846 -20.091  0.00  0.00    +0.175 HD
ENDBRANCH   4   8
BRANCH   3  12
ATOM     12  C   UNL     1      34.049 -15.427 -23.680  0.00  0.00    +0.021 C 
ATOM     13  C   UNL     1      33.859 -16.005 -24.935  0.00  0.00    +0.002 C 
ATOM     14  C   UNL     1      33.815 -14.064 -23.498  0.00  0.00    +0.002 C 
ATOM     15  C   UNL     1      33.435 -15.220 -26.008  0.00  0.00    +0.000 C 
ATOM     16  C   UNL     1      33.391 -13.279 -24.570  0.00  0.00    +0.000 C 
ATOM     17  C   UNL     1      33.201 -13.857 -25.825  0.00  0.00    +0.000 C 
ENDBRANCH   3  12
TORSDOF 2
ENDMDL
