MODEL 1
REMARK VINA RESULT:     -10.4      0.000      0.000
REMARK  Name = 1836
REMARK  3 active torsions:
REMARK  status: ('A' for Active; 'I' for Inactive)
REMARK    1  A    between atoms: C_1  and  C_12
REMARK    2  A    between atoms: C_6  and  O_19
REMARK    3  A    between atoms: O_19  and  C_20
REMARK                            x       y       z     vdW  Elec       q    Type
REMARK                         _______ _______ _______ _____ _____    ______ ____
ROOT
ATOM      1  C   UNL     1      34.732 -19.394 -21.127  0.00  0.00    -0.006 C 
ATOM      2  C   UNL     1      33.347 -19.330 -21.044  0.00  0.00    -0.000 C 
ATOM      3  C   UNL     1      35.433 -20.447 -20.555  0.00  0.00    -0.000 C 
ATOM      4  C   UNL     1      32.650 -20.339 -20.377  0.00  0.00    +0.037 C 
ATOM      5  C   UNL     1      34.736 -21.456 -19.888  0.00  0.00    +0.037 C 
ATOM      6  C   UNL     1      33.345 -21.401 -19.799  0.00  0.00    +0.145 C 
ENDROOT
BRANCH   1  12
ATOM      7  O   UNL     1      35.599 -19.365 -24.022  0.00  0.00    -0.274 OA
ATOM      8  O   UNL     1      35.512 -16.678 -20.054  0.00  0.00    -0.274 OA
ATOM      9  O   UNL     1      33.267 -15.425 -23.845  0.00  0.00    -0.252 OA
ATOM     10  N   UNL     1      34.415 -17.413 -23.890  0.00  0.00    -0.239 N 
ATOM     11  N   UNL     1      34.370 -16.101 -21.949  0.00  0.00    -0.239 N 
ATOM     12  C   UNL     1      35.483 -18.308 -21.846  0.00  0.00    +0.157 C 
ATOM     13  C   UNL     1      36.988 -18.539 -21.655  0.00  0.00    +0.023 C 
ATOM     14  C   UNL     1      35.193 -18.419 -23.345  0.00  0.00    +0.240 C 
ATOM     15  C   UNL     1      35.145 -16.963 -21.195  0.00  0.00    +0.240 C 
ATOM     16  C   UNL     1      33.964 -16.260 -23.265  0.00  0.00    +0.312 C 
ATOM     17  H   UNL     1      34.151 -17.529 -24.832  0.00  0.00    +0.159 HD
ATOM     18  H   UNL     1      34.072 -15.277 -21.500  0.00  0.00    +0.159 HD
ENDBRANCH   1  12
BRANCH   6  19
ATOM     19  O   UNL     1      32.666 -22.386 -19.150  0.00  0.00    -0.453 OA
BRANCH  19  20
ATOM     20  C   UNL     1      33.056 -22.691 -17.856  0.00  0.00    +0.145 C 
ATOM     21  C   UNL     1      32.086 -22.905 -16.894  0.00  0.00    +0.037 C 
ATOM     22  C   UNL     1      34.404 -22.773 -17.561  0.00  0.00    +0.037 C 
ATOM     23  C   UNL     1      32.477 -23.211 -15.591  0.00  0.00    +0.003 C 
ATOM     24  C   UNL     1      34.796 -23.078 -16.257  0.00  0.00    +0.003 C 
ATOM     25  C   UNL     1      33.833 -23.298 -15.272  0.00  0.00    +0.000 C 
ENDBRANCH  19  20
ENDBRANCH   6  19
TORSDOF 3
ENDMDL
MODEL 2
REMARK VINA RESULT:      -9.9      7.192     10.498
REMARK  Name = 1836
REMARK  3 active torsions:
REMARK  status: ('A' for Active; 'I' for Inactive)
REMARK    1  A    between atoms: C_1  and  C_12
REMARK    2  A    between atoms: C_6  and  O_19
REMARK    3  A    between atoms: O_19  and  C_20
REMARK                            x       y       z     vdW  Elec       q    Type
REMARK                         _______ _______ _______ _____ _____    ______ ____
ROOT
ATOM      1  C   UNL     1      32.749  -9.156 -22.702  0.00  0.00    -0.006 C 
ATOM      2  C   UNL     1      31.677  -9.695 -22.001  0.00  0.00    -0.000 C 
ATOM      3  C   UNL     1      33.554  -9.959 -23.499  0.00  0.00    -0.000 C 
ATOM      4  C   UNL     1      31.405 -11.060 -22.101  0.00  0.00    +0.037 C 
ATOM      5  C   UNL     1      33.282 -11.324 -23.600  0.00  0.00    +0.037 C 
ATOM      6  C   UNL     1      32.207 -11.874 -22.900  0.00  0.00    +0.145 C 
ENDROOT
BRANCH   1  12
ATOM      7  O   UNL     1      32.644  -7.096 -24.910  0.00  0.00    -0.274 OA
ATOM      8  O   UNL     1      33.359  -7.581 -20.195  0.00  0.00    -0.274 OA
ATOM      9  O   UNL     1      29.859  -5.132 -21.847  0.00  0.00    -0.252 OA
ATOM     10  N   UNL     1      31.251  -6.159 -23.356  0.00  0.00    -0.239 N 
ATOM     11  N   UNL     1      31.599  -6.399 -21.051  0.00  0.00    -0.239 N 
ATOM     12  C   UNL     1      33.042  -7.686 -22.594  0.00  0.00    +0.157 C 
ATOM     13  C   UNL     1      34.547  -7.467 -22.800  0.00  0.00    +0.023 C 
ATOM     14  C   UNL     1      32.318  -6.957 -23.729  0.00  0.00    +0.240 C 
ATOM     15  C   UNL     1      32.705  -7.220 -21.175  0.00  0.00    +0.240 C 
ATOM     16  C   UNL     1      30.833  -5.854 -22.070  0.00  0.00    +0.312 C 
ATOM     17  H   UNL     1      30.727  -5.762 -24.089  0.00  0.00    +0.159 HD
ATOM     18  H   UNL     1      31.324  -6.174 -20.133  0.00  0.00    +0.159 HD
ENDBRANCH   1  12
BRANCH   6  19
ATOM     19  O   UNL     1      31.942 -13.205 -22.999  0.00  0.00    -0.453 OA
BRANCH  19  20
ATOM     20  C   UNL     1      32.840 -14.085 -22.417  0.00  0.00    +0.145 C 
ATOM     21  C   UNL     1      33.722 -14.779 -23.226  0.00  0.00    +0.037 C 
ATOM     22  C   UNL     1      32.830 -14.247 -21.044  0.00  0.00    +0.037 C 
ATOM     23  C   UNL     1      34.625 -15.666 -22.641  0.00  0.00    +0.003 C 
ATOM     24  C   UNL     1      33.734 -15.134 -20.459  0.00  0.00    +0.003 C 
ATOM     25  C   UNL     1      34.632 -15.844 -21.257  0.00  0.00    +0.000 C 
ENDBRANCH  19  20
ENDBRANCH   6  19
TORSDOF 3
ENDMDL
MODEL 3
REMARK VINA RESULT:      -9.7      7.658      9.356
REMARK  Name = 1836
REMARK  3 active torsions:
REMARK  status: ('A' for Active; 'I' for Inactive)
REMARK    1  A    between atoms: C_1  and  C_12
REMARK    2  A    between atoms: C_6  and  O_19
REMARK    3  A    between atoms: O_19  and  C_20
REMARK                            x       y       z     vdW  Elec       q    Type
REMARK                         _______ _______ _______ _____ _____    ______ ____
ROOT
ATOM      1  C   UNL     1      34.768 -23.825 -14.437  0.00  0.00    -0.006 C 
ATOM      2  C   UNL     1      34.165 -23.113 -15.465  0.00  0.00    -0.000 C 
ATOM      3  C   UNL     1      34.052 -24.183 -13.302  0.00  0.00    -0.000 C 
ATOM      4  C   UNL     1      32.820 -22.754 -15.358  0.00  0.00    +0.037 C 
ATOM      5  C   UNL     1      32.707 -23.824 -13.195  0.00  0.00    +0.037 C 
ATOM      6  C   UNL     1      32.093 -23.109 -14.223  0.00  0.00    +0.145 C 
ENDROOT
BRANCH   1  12
ATOM      7  O   UNL     1      37.136 -22.500 -13.105  0.00  0.00    -0.274 OA
ATOM      8  O   UNL     1      35.923 -26.221 -15.872  0.00  0.00    -0.274 OA
ATOM      9  O   UNL     1      37.749 -26.822 -11.714  0.00  0.00    -0.252 OA
ATOM     10  N   UNL     1      37.395 -24.668 -12.425  0.00  0.00    -0.239 N 
ATOM     11  N   UNL     1      36.799 -26.487 -13.776  0.00  0.00    -0.239 N 
ATOM     12  C   UNL     1      36.216 -24.212 -14.552  0.00  0.00    +0.157 C 
ATOM     13  C   UNL     1      36.821 -23.502 -15.771  0.00  0.00    +0.023 C 
ATOM     14  C   UNL     1      36.961 -23.701 -13.315  0.00  0.00    +0.240 C 
ATOM     15  C   UNL     1      36.304 -25.718 -14.813  0.00  0.00    +0.240 C 
ATOM     16  C   UNL     1      37.335 -26.045 -12.577  0.00  0.00    +0.312 C 
ATOM     17  H   UNL     1      37.792 -24.340 -11.586  0.00  0.00    +0.159 HD
ATOM     18  H   UNL     1      36.769 -27.463 -13.905  0.00  0.00    +0.159 HD
ENDBRANCH   1  12
BRANCH   6  19
ATOM     19  O   UNL     1      30.781 -22.760 -14.118  0.00  0.00    -0.453 OA
BRANCH  19  20
ATOM     20  C   UNL     1      29.910 -23.232 -15.087  0.00  0.00    +0.145 C 
ATOM     21  C   UNL     1      29.789 -24.597 -15.275  0.00  0.00    +0.037 C 
ATOM     22  C   UNL     1      29.186 -22.326 -15.840  0.00  0.00    +0.037 C 
ATOM     23  C   UNL     1      28.913 -25.072 -16.250  0.00  0.00    +0.003 C 
ATOM     24  C   UNL     1      28.311 -22.802 -16.816  0.00  0.00    +0.003 C 
ATOM     25  C   UNL     1      28.174 -24.174 -17.022  0.00  0.00    +0.000 C 
ENDBRANCH  19  20
ENDBRANCH   6  19
TORSDOF 3
ENDMDL
MODEL 4
REMARK VINA RESULT:      -9.6      5.236      8.999
REMARK  Name = 1836
REMARK  3 active torsions:
REMARK  status: ('A' for Active; 'I' for Inactive)
REMARK    1  A    between atoms: C_1  and  C_12
REMARK    2  A    between atoms: C_6  and  O_19
REMARK    3  A    between atoms: O_19  and  C_20
REMARK                            x       y       z     vdW  Elec       q    Type
REMARK                         _______ _______ _______ _____ _____    ______ ____
ROOT
ATOM      1  C   UNL     1      36.090 -23.688 -15.393  0.00  0.00    -0.006 C 
ATOM      2  C   UNL     1      36.533 -22.794 -16.359  0.00  0.00    -0.000 C 
ATOM      3  C   UNL     1      34.782 -24.155 -15.401  0.00  0.00    -0.000 C 
ATOM      4  C   UNL     1      35.653 -22.361 -17.352  0.00  0.00    +0.037 C 
ATOM      5  C   UNL     1      33.902 -23.722 -16.393  0.00  0.00    +0.037 C 
ATOM      6  C   UNL     1      34.338 -22.824 -17.368  0.00  0.00    +0.145 C 
ENDROOT
BRANCH   1  12
ATOM      7  O   UNL     1      37.497 -21.998 -13.320  0.00  0.00    -0.274 OA
ATOM      8  O   UNL     1      36.833 -26.537 -14.710  0.00  0.00    -0.274 OA
ATOM      9  O   UNL     1      35.449 -25.064 -10.599  0.00  0.00    -0.252 OA
ATOM     10  N   UNL     1      36.446 -23.542 -12.000  0.00  0.00    -0.239 N 
ATOM     11  N   UNL     1      36.118 -25.760 -12.681  0.00  0.00    -0.239 N 
ATOM     12  C   UNL     1      37.037 -24.154 -14.323  0.00  0.00    +0.157 C 
ATOM     13  C   UNL     1      38.458 -24.185 -14.902  0.00  0.00    +0.023 C 
ATOM     14  C   UNL     1      37.033 -23.132 -13.183  0.00  0.00    +0.240 C 
ATOM     15  C   UNL     1      36.674 -25.590 -13.936  0.00  0.00    +0.240 C 
ATOM     16  C   UNL     1      35.963 -24.805 -11.690  0.00  0.00    +0.312 C 
ATOM     17  H   UNL     1      36.360 -22.859 -11.297  0.00  0.00    +0.159 HD
ATOM     18  H   UNL     1      35.797 -26.666 -12.465  0.00  0.00    +0.159 HD
ENDBRANCH   1  12
BRANCH   6  19
ATOM     19  O   UNL     1      33.479 -22.404 -18.337  0.00  0.00    -0.453 OA
BRANCH  19  20
ATOM     20  C   UNL     1      33.964 -21.518 -19.286  0.00  0.00    +0.145 C 
ATOM     21  C   UNL     1      33.094 -20.616 -19.870  0.00  0.00    +0.037 C 
ATOM     22  C   UNL     1      35.304 -21.561 -19.625  0.00  0.00    +0.037 C 
ATOM     23  C   UNL     1      33.580 -19.724 -20.826  0.00  0.00    +0.003 C 
ATOM     24  C   UNL     1      35.790 -20.670 -20.581  0.00  0.00    +0.003 C 
ATOM     25  C   UNL     1      34.929 -19.751 -21.182  0.00  0.00    +0.000 C 
ENDBRANCH  19  20
ENDBRANCH   6  19
TORSDOF 3
ENDMDL
MODEL 5
REMARK VINA RESULT:      -9.6      6.741      8.710
REMARK  Name = 1836
REMARK  3 active torsions:
REMARK  status: ('A' for Active; 'I' for Inactive)
REMARK    1  A    between atoms: C_1  and  C_12
REMARK    2  A    between atoms: C_6  and  O_19
REMARK    3  A    between atoms: O_19  and  C_20
REMARK                            x       y       z     vdW  Elec       q    Type
REMARK                         _______ _______ _______ _____ _____    ______ ____
ROOT
ATOM      1  C   UNL     1      31.801 -23.834 -15.031  0.00  0.00    -0.006 C 
ATOM      2  C   UNL     1      32.712 -24.200 -14.048  0.00  0.00    -0.000 C 
ATOM      3  C   UNL     1      32.232 -23.443 -16.292  0.00  0.00    -0.000 C 
ATOM      4  C   UNL     1      34.078 -24.176 -14.332  0.00  0.00    +0.037 C 
ATOM      5  C   UNL     1      33.598 -23.419 -16.576  0.00  0.00    +0.037 C 
ATOM      6  C   UNL     1      34.520 -23.786 -15.595  0.00  0.00    +0.145 C 
ENDROOT
BRANCH   1  12
ATOM      7  O   UNL     1      30.009 -21.477 -14.426  0.00  0.00    -0.274 OA
ATOM      8  O   UNL     1      29.949 -26.222 -15.100  0.00  0.00    -0.274 OA
ATOM      9  O   UNL     1      27.692 -23.377 -17.891  0.00  0.00    -0.252 OA
ATOM     10  N   UNL     1      28.892 -22.453 -16.167  0.00  0.00    -0.239 N 
ATOM     11  N   UNL     1      28.866 -24.773 -16.499  0.00  0.00    -0.239 N 
ATOM     12  C   UNL     1      30.330 -23.859 -14.725  0.00  0.00    +0.157 C 
ATOM     13  C   UNL     1      30.142 -24.071 -13.217  0.00  0.00    +0.023 C 
ATOM     14  C   UNL     1      29.733 -22.491 -15.069  0.00  0.00    +0.240 C 
ATOM     15  C   UNL     1      29.701 -25.062 -15.434  0.00  0.00    +0.240 C 
ATOM     16  C   UNL     1      28.439 -23.524 -16.922  0.00  0.00    +0.312 C 
ATOM     17  H   UNL     1      28.580 -21.562 -16.445  0.00  0.00    +0.159 HD
ATOM     18  H   UNL     1      28.535 -25.543 -17.015  0.00  0.00    +0.159 HD
ENDBRANCH   1  12
BRANCH   6  19
ATOM     19  O   UNL     1      35.853 -23.763 -15.874  0.00  0.00    -0.453 OA
BRANCH  19  20
ATOM     20  C   UNL     1      36.695 -24.488 -15.046  0.00  0.00    +0.145 C 
ATOM     21  C   UNL     1      36.734 -25.865 -15.166  0.00  0.00    +0.037 C 
ATOM     22  C   UNL     1      37.474 -23.815 -14.123  0.00  0.00    +0.037 C 
ATOM     23  C   UNL     1      37.581 -26.595 -14.333  0.00  0.00    +0.003 C 
ATOM     24  C   UNL     1      38.322 -24.546 -13.290  0.00  0.00    +0.003 C 
ATOM     25  C   UNL     1      38.376 -25.935 -13.394  0.00  0.00    +0.000 C 
ENDBRANCH  19  20
ENDBRANCH   6  19
TORSDOF 3
ENDMDL
MODEL 6
REMARK VINA RESULT:      -9.5      5.233      8.817
REMARK  Name = 1836
REMARK  3 active torsions:
REMARK  status: ('A' for Active; 'I' for Inactive)
REMARK    1  A    between atoms: C_1  and  C_12
REMARK    2  A    between atoms: C_6  and  O_19
REMARK    3  A    between atoms: O_19  and  C_20
REMARK                            x       y       z     vdW  Elec       q    Type
REMARK                         _______ _______ _______ _____ _____    ______ ____
ROOT
ATOM      1  C   UNL     1      36.216 -23.440 -15.734  0.00  0.00    -0.006 C 
ATOM      2  C   UNL     1      35.089 -23.267 -16.528  0.00  0.00    -0.000 C 
ATOM      3  C   UNL     1      37.409 -22.799 -16.042  0.00  0.00    -0.000 C 
ATOM      4  C   UNL     1      35.157 -22.437 -17.649  0.00  0.00    +0.037 C 
ATOM      5  C   UNL     1      37.477 -21.970 -17.163  0.00  0.00    +0.037 C 
ATOM      6  C   UNL     1      36.350 -21.790 -17.966  0.00  0.00    +0.145 C 
ENDROOT
BRANCH   1  12
ATOM      7  O   UNL     1      35.782 -26.430 -15.685  0.00  0.00    -0.274 OA
ATOM      8  O   UNL     1      36.688 -22.674 -12.849  0.00  0.00    -0.274 OA
ATOM      9  O   UNL     1      39.652 -26.142 -13.251  0.00  0.00    -0.252 OA
ATOM     10  N   UNL     1      37.720 -26.239 -14.486  0.00  0.00    -0.239 N 
ATOM     11  N   UNL     1      38.164 -24.401 -13.102  0.00  0.00    -0.239 N 
ATOM     12  C   UNL     1      36.144 -24.333 -14.528  0.00  0.00    +0.157 C 
ATOM     13  C   UNL     1      34.695 -24.364 -14.023  0.00  0.00    +0.023 C 
ATOM     14  C   UNL     1      36.508 -25.759 -14.950  0.00  0.00    +0.240 C 
ATOM     15  C   UNL     1      36.999 -23.724 -13.413  0.00  0.00    +0.240 C 
ATOM     16  C   UNL     1      38.588 -25.625 -13.596  0.00  0.00    +0.312 C 
ATOM     17  H   UNL     1      37.999 -27.119 -14.829  0.00  0.00    +0.159 HD
ATOM     18  H   UNL     1      38.763 -23.964 -12.454  0.00  0.00    +0.159 HD
ENDBRANCH   1  12
BRANCH   6  19
ATOM     19  O   UNL     1      36.417 -20.980 -19.057  0.00  0.00    -0.453 OA
BRANCH  19  20
ATOM     20  C   UNL     1      35.231 -20.673 -19.704  0.00  0.00    +0.145 C 
ATOM     21  C   UNL     1      35.217 -19.649 -20.634  0.00  0.00    +0.037 C 
ATOM     22  C   UNL     1      34.093 -21.398 -19.404  0.00  0.00    +0.037 C 
ATOM     23  C   UNL     1      34.024 -19.339 -21.285  0.00  0.00    +0.003 C 
ATOM     24  C   UNL     1      32.899 -21.088 -20.055  0.00  0.00    +0.003 C 
ATOM     25  C   UNL     1      32.864 -20.059 -20.996  0.00  0.00    +0.000 C 
ENDBRANCH  19  20
ENDBRANCH   6  19
TORSDOF 3
ENDMDL
MODEL 7
REMARK VINA RESULT:      -9.4      4.497      8.434
REMARK  Name = 1836
REMARK  3 active torsions:
REMARK  status: ('A' for Active; 'I' for Inactive)
REMARK    1  A    between atoms: C_1  and  C_12
REMARK    2  A    between atoms: C_6  and  O_19
REMARK    3  A    between atoms: O_19  and  C_20
REMARK                            x       y       z     vdW  Elec       q    Type
REMARK                         _______ _______ _______ _____ _____    ______ ____
ROOT
ATOM      1  C   UNL     1      32.135 -23.550 -15.849  0.00  0.00    -0.006 C 
ATOM      2  C   UNL     1      33.428 -23.667 -15.353  0.00  0.00    -0.000 C 
ATOM      3  C   UNL     1      31.908 -23.135 -17.154  0.00  0.00    -0.000 C 
ATOM      4  C   UNL     1      34.512 -23.364 -16.178  0.00  0.00    +0.037 C 
ATOM      5  C   UNL     1      32.993 -22.832 -17.979  0.00  0.00    +0.037 C 
ATOM      6  C   UNL     1      34.294 -22.947 -17.490  0.00  0.00    +0.145 C 
ENDROOT
BRANCH   1  12
ATOM      7  O   UNL     1      30.880 -21.784 -13.742  0.00  0.00    -0.274 OA
ATOM      8  O   UNL     1      30.398 -26.022 -15.929  0.00  0.00    -0.274 OA
ATOM      9  O   UNL     1      27.185 -22.775 -16.263  0.00  0.00    -0.252 OA
ATOM     10  N   UNL     1      29.065 -22.296 -15.037  0.00  0.00    -0.239 N 
ATOM     11  N   UNL     1      28.831 -24.366 -16.109  0.00  0.00    -0.239 N 
ATOM     12  C   UNL     1      30.967 -23.876 -14.961  0.00  0.00    +0.157 C 
ATOM     13  C   UNL     1      31.487 -24.585 -13.702  0.00  0.00    +0.023 C 
ATOM     14  C   UNL     1      30.314 -22.567 -14.508  0.00  0.00    +0.240 C 
ATOM     15  C   UNL     1      30.053 -24.863 -15.692  0.00  0.00    +0.240 C 
ATOM     16  C   UNL     1      28.290 -23.120 -15.838  0.00  0.00    +0.312 C 
ATOM     17  H   UNL     1      28.683 -21.414 -14.820  0.00  0.00    +0.159 HD
ATOM     18  H   UNL     1      28.281 -24.968 -16.660  0.00  0.00    +0.159 HD
ENDBRANCH   1  12
BRANCH   6  19
ATOM     19  O   UNL     1      35.351 -22.652 -18.296  0.00  0.00    -0.453 OA
BRANCH  19  20
ATOM     20  C   UNL     1      35.203 -21.610 -19.196  0.00  0.00    +0.145 C 
ATOM     21  C   UNL     1      36.328 -20.940 -19.641  0.00  0.00    +0.037 C 
ATOM     22  C   UNL     1      33.934 -21.267 -19.627  0.00  0.00    +0.037 C 
ATOM     23  C   UNL     1      36.180 -19.891 -20.547  0.00  0.00    +0.003 C 
ATOM     24  C   UNL     1      33.786 -20.217 -20.533  0.00  0.00    +0.003 C 
ATOM     25  C   UNL     1      34.908 -19.529 -20.993  0.00  0.00    +0.000 C 
ENDBRANCH  19  20
ENDBRANCH   6  19
TORSDOF 3
ENDMDL
MODEL 8
REMARK VINA RESULT:      -9.2      4.780      8.341
REMARK  Name = 1836
REMARK  3 active torsions:
REMARK  status: ('A' for Active; 'I' for Inactive)
REMARK    1  A    between atoms: C_1  and  C_12
REMARK    2  A    between atoms: C_6  and  O_19
REMARK    3  A    between atoms: O_19  and  C_20
REMARK                            x       y       z     vdW  Elec       q    Type
REMARK                         _______ _______ _______ _____ _____    ______ ____
ROOT
ATOM      1  C   UNL     1      31.693 -23.478 -15.689  0.00  0.00    -0.006 C 
ATOM      2  C   UNL     1      32.797 -23.483 -14.847  0.00  0.00    -0.000 C 
ATOM      3  C   UNL     1      31.839 -23.264 -17.054  0.00  0.00    -0.000 C 
ATOM      4  C   UNL     1      34.070 -23.270 -15.378  0.00  0.00    +0.037 C 
ATOM      5  C   UNL     1      33.112 -23.052 -17.585  0.00  0.00    +0.037 C 
ATOM      6  C   UNL     1      34.227 -23.055 -16.746  0.00  0.00    +0.145 C 
ENDROOT
BRANCH   1  12
ATOM      7  O   UNL     1      29.783 -21.400 -14.609  0.00  0.00    -0.274 OA
ATOM      8  O   UNL     1      30.160 -26.081 -15.568  0.00  0.00    -0.274 OA
ATOM      9  O   UNL     1      27.084 -23.440 -17.698  0.00  0.00    -0.252 OA
ATOM     10  N   UNL     1      28.476 -22.440 -16.172  0.00  0.00    -0.239 N 
ATOM     11  N   UNL     1      28.663 -24.727 -16.643  0.00  0.00    -0.239 N 
ATOM     12  C   UNL     1      30.322 -23.706 -15.117  0.00  0.00    +0.157 C 
ATOM     13  C   UNL     1      30.456 -24.003 -13.618  0.00  0.00    +0.023 C 
ATOM     14  C   UNL     1      29.511 -22.414 -15.254  0.00  0.00    +0.240 C 
ATOM     15  C   UNL     1      29.716 -24.950 -15.773  0.00  0.00    +0.240 C 
ATOM     16  C   UNL     1      28.017 -23.528 -16.897  0.00  0.00    +0.312 C 
ATOM     17  H   UNL     1      28.012 -21.585 -16.328  0.00  0.00    +0.159 HD
ATOM     18  H   UNL     1      28.333 -25.512 -17.137  0.00  0.00    +0.159 HD
ENDBRANCH   1  12
BRANCH   6  19
ATOM     19  O   UNL     1      35.468 -22.849 -17.266  0.00  0.00    -0.453 OA
BRANCH  19  20
ATOM     20  C   UNL     1      35.579 -21.990 -18.347  0.00  0.00    +0.145 C 
ATOM     21  C   UNL     1      34.483 -21.798 -19.169  0.00  0.00    +0.037 C 
ATOM     22  C   UNL     1      36.781 -21.346 -18.575  0.00  0.00    +0.037 C 
ATOM     23  C   UNL     1      34.593 -20.934 -20.257  0.00  0.00    +0.003 C 
ATOM     24  C   UNL     1      36.892 -20.482 -19.664  0.00  0.00    +0.003 C 
ATOM     25  C   UNL     1      35.798 -20.275 -20.505  0.00  0.00    +0.000 C 
ENDBRANCH  19  20
ENDBRANCH   6  19
TORSDOF 3
ENDMDL
MODEL 9
REMARK VINA RESULT:      -9.2      5.016      8.619
REMARK  Name = 1836
REMARK  3 active torsions:
REMARK  status: ('A' for Active; 'I' for Inactive)
REMARK    1  A    between atoms: C_1  and  C_12
REMARK    2  A    between atoms: C_6  and  O_19
REMARK    3  A    between atoms: O_19  and  C_20
REMARK                            x       y       z     vdW  Elec       q    Type
REMARK                         _______ _______ _______ _____ _____    ______ ____
ROOT
ATOM      1  C   UNL     1      36.215 -23.399 -15.787  0.00  0.00    -0.006 C 
ATOM      2  C   UNL     1      35.167 -23.401 -16.699  0.00  0.00    -0.000 C 
ATOM      3  C   UNL     1      37.323 -22.584 -15.976  0.00  0.00    -0.000 C 
ATOM      4  C   UNL     1      35.229 -22.571 -17.820  0.00  0.00    +0.037 C 
ATOM      5  C   UNL     1      37.385 -21.755 -17.097  0.00  0.00    +0.037 C 
ATOM      6  C   UNL     1      36.338 -21.750 -18.019  0.00  0.00    +0.145 C 
ENDROOT
BRANCH   1  12
ATOM      7  O   UNL     1      38.417 -25.138 -14.665  0.00  0.00    -0.274 OA
ATOM      8  O   UNL     1      33.927 -23.682 -13.832  0.00  0.00    -0.274 OA
ATOM      9  O   UNL     1      37.338 -22.704 -10.936  0.00  0.00    -0.252 OA
ATOM     10  N   UNL     1      37.853 -23.890 -12.832  0.00  0.00    -0.239 N 
ATOM     11  N   UNL     1      35.658 -23.176 -12.427  0.00  0.00    -0.239 N 
ATOM     12  C   UNL     1      36.148 -24.292 -14.580  0.00  0.00    +0.157 C 
ATOM     13  C   UNL     1      35.622 -25.668 -15.011  0.00  0.00    +0.023 C 
ATOM     14  C   UNL     1      37.568 -24.497 -14.042  0.00  0.00    +0.240 C 
ATOM     15  C   UNL     1      35.135 -23.709 -13.591  0.00  0.00    +0.240 C 
ATOM     16  C   UNL     1      36.975 -23.215 -11.997  0.00  0.00    +0.312 C 
ATOM     17  H   UNL     1      38.788 -23.943 -12.529  0.00  0.00    +0.159 HD
ATOM     18  H   UNL     1      35.022 -22.717 -11.833  0.00  0.00    +0.159 HD
ENDBRANCH   1  12
BRANCH   6  19
ATOM     19  O   UNL     1      36.399 -20.940 -19.111  0.00  0.00    -0.453 OA
BRANCH  19  20
ATOM     20  C   UNL     1      35.209 -20.627 -19.747  0.00  0.00    +0.145 C 
ATOM     21  C   UNL     1      34.061 -21.319 -19.405  0.00  0.00    +0.037 C 
ATOM     22  C   UNL     1      35.199 -19.632 -20.708  0.00  0.00    +0.037 C 
ATOM     23  C   UNL     1      32.863 -21.006 -20.045  0.00  0.00    +0.003 C 
ATOM     24  C   UNL     1      34.001 -19.319 -21.349  0.00  0.00    +0.003 C 
ATOM     25  C   UNL     1      32.832 -20.005 -21.018  0.00  0.00    +0.000 C 
ENDBRANCH  19  20
ENDBRANCH   6  19
TORSDOF 3
ENDMDL
