MODEL 1
REMARK VINA RESULT:     -10.1      0.000      0.000
REMARK  Name = 5282430
REMARK  2 active torsions:
REMARK  status: ('A' for Active; 'I' for Inactive)
REMARK    1  A    between atoms: C_17  and  S_23
REMARK    2  A    between atoms: C_18  and  S_27
REMARK                            x       y       z     vdW  Elec       q    Type
REMARK                         _______ _______ _______ _____ _____    ______ ____
ROOT
ATOM      1  O   UNL     1      33.880 -10.889 -24.950  0.00  0.00    -0.285 OA
ATOM      2  O   UNL     1      32.616 -13.685 -20.661  0.00  0.00    -0.285 OA
ATOM      3  N   UNL     1      32.397 -10.961 -21.785  0.00  0.00    -0.309 N 
ATOM      4  N   UNL     1      34.106 -13.612 -23.822  0.00  0.00    -0.309 N 
ATOM      5  C   UNL     1      33.055 -11.649 -22.772  0.00  0.00    +0.105 C 
ATOM      6  C   UNL     1      33.442 -12.925 -22.838  0.00  0.00    +0.105 C 
ATOM      7  C   UNL     1      32.750  -9.403 -23.436  0.00  0.00    +0.055 C 
ATOM      8  C   UNL     1      33.753 -15.170 -22.171  0.00  0.00    +0.055 C 
ATOM      9  C   UNL     1      32.210  -9.637 -22.164  0.00  0.00    +0.052 C 
ATOM     10  C   UNL     1      34.294 -14.935 -23.442  0.00  0.00    +0.052 C 
ATOM     11  C   UNL     1      33.321 -10.683 -23.895  0.00  0.00    +0.211 C 
ATOM     12  C   UNL     1      33.176 -13.891 -21.715  0.00  0.00    +0.211 C 
ATOM     13  C   UNL     1      32.707  -8.175 -24.061  0.00  0.00    +0.023 C 
ATOM     14  C   UNL     1      33.798 -16.397 -21.545  0.00  0.00    +0.023 C 
ATOM     15  C   UNL     1      31.598  -8.613 -21.473  0.00  0.00    +0.016 C 
ATOM     16  C   UNL     1      34.910 -15.959 -24.132  0.00  0.00    +0.016 C 
ATOM     17  C   UNL     1      32.087  -7.138 -23.363  0.00  0.00    +0.113 C 
ATOM     18  C   UNL     1      34.420 -17.434 -22.242  0.00  0.00    +0.113 C 
ATOM     19  C   UNL     1      31.539  -7.354 -22.084  0.00  0.00    +0.020 C 
ATOM     20  C   UNL     1      34.969 -17.217 -23.521  0.00  0.00    +0.020 C 
ATOM     21  H   UNL     1      32.099 -11.349 -20.931  0.00  0.00    +0.152 HD
ATOM     22  H   UNL     1      34.404 -13.224 -24.676  0.00  0.00    +0.152 HD
ENDROOT
BRANCH  17  23
ATOM     23  S   UNL     1      31.987  -5.549 -24.086  0.00  0.00    +0.042 S 
ATOM     24  O   UNL     1      30.550  -5.522 -24.863  0.00  0.00    -0.065 OA
ATOM     25  O   UNL     1      31.907  -4.572 -23.010  0.00  0.00    -0.065 OA
ATOM     26  O   UNL     1      33.044  -5.472 -25.082  0.00  0.00    -0.065 OA
ENDBRANCH  17  23
BRANCH  18  27
ATOM     27  S   UNL     1      34.517 -19.023 -21.521  0.00  0.00    +0.042 S 
ATOM     28  O   UNL     1      35.757 -18.936 -20.459  0.00  0.00    -0.065 OA
ATOM     29  O   UNL     1      33.306 -19.237 -20.743  0.00  0.00    -0.065 OA
ATOM     30  O   UNL     1      34.892 -19.945 -22.581  0.00  0.00    -0.065 OA
ENDBRANCH  18  27
TORSDOF 2
ENDMDL
MODEL 2
REMARK VINA RESULT:     -10.1      0.051      9.863
REMARK  Name = 5282430
REMARK  2 active torsions:
REMARK  status: ('A' for Active; 'I' for Inactive)
REMARK    1  A    between atoms: C_17  and  S_23
REMARK    2  A    between atoms: C_18  and  S_27
REMARK                            x       y       z     vdW  Elec       q    Type
REMARK                         _______ _______ _______ _____ _____    ______ ____
ROOT
ATOM      1  O   UNL     1      32.628 -13.733 -20.652  0.00  0.00    -0.285 OA
ATOM      2  O   UNL     1      33.887 -10.938 -24.943  0.00  0.00    -0.285 OA
ATOM      3  N   UNL     1      34.113 -13.661 -23.816  0.00  0.00    -0.309 N 
ATOM      4  N   UNL     1      32.409 -11.009 -21.776  0.00  0.00    -0.309 N 
ATOM      5  C   UNL     1      33.452 -12.973 -22.831  0.00  0.00    +0.105 C 
ATOM      6  C   UNL     1      33.065 -11.698 -22.764  0.00  0.00    +0.105 C 
ATOM      7  C   UNL     1      33.762 -15.218 -22.164  0.00  0.00    +0.055 C 
ATOM      8  C   UNL     1      32.760  -9.451 -23.428  0.00  0.00    +0.055 C 
ATOM      9  C   UNL     1      34.302 -14.984 -23.436  0.00  0.00    +0.052 C 
ATOM     10  C   UNL     1      32.222  -9.685 -22.155  0.00  0.00    +0.052 C 
ATOM     11  C   UNL     1      33.187 -13.939 -21.707  0.00  0.00    +0.211 C 
ATOM     12  C   UNL     1      33.330 -10.731 -23.887  0.00  0.00    +0.211 C 
ATOM     13  C   UNL     1      33.808 -16.446 -21.538  0.00  0.00    +0.023 C 
ATOM     14  C   UNL     1      32.716  -8.223 -24.053  0.00  0.00    +0.023 C 
ATOM     15  C   UNL     1      34.916 -16.008 -24.126  0.00  0.00    +0.016 C 
ATOM     16  C   UNL     1      31.611  -8.660 -21.463  0.00  0.00    +0.016 C 
ATOM     17  C   UNL     1      34.428 -17.483 -22.236  0.00  0.00    +0.113 C 
ATOM     18  C   UNL     1      32.098  -7.185 -23.355  0.00  0.00    +0.113 C 
ATOM     19  C   UNL     1      34.976 -17.266 -23.516  0.00  0.00    +0.020 C 
ATOM     20  C   UNL     1      31.551  -7.402 -22.074  0.00  0.00    +0.020 C 
ATOM     21  H   UNL     1      34.411 -13.272 -24.670  0.00  0.00    +0.152 HD
ATOM     22  H   UNL     1      32.111 -11.397 -20.922  0.00  0.00    +0.152 HD
ENDROOT
BRANCH  17  23
ATOM     23  S   UNL     1      34.526 -19.071 -21.515  0.00  0.00    +0.042 S 
ATOM     24  O   UNL     1      35.745 -18.975 -20.430  0.00  0.00    -0.065 OA
ATOM     25  O   UNL     1      33.302 -19.297 -20.759  0.00  0.00    -0.065 OA
ATOM     26  O   UNL     1      34.928 -19.989 -22.569  0.00  0.00    -0.065 OA
ENDBRANCH  17  23
BRANCH  18  27
ATOM     27  S   UNL     1      31.998  -5.597 -24.077  0.00  0.00    +0.042 S 
ATOM     28  O   UNL     1      30.560  -5.569 -24.853  0.00  0.00    -0.065 OA
ATOM     29  O   UNL     1      31.919  -4.620 -23.001  0.00  0.00    -0.065 OA
ATOM     30  O   UNL     1      33.053  -5.520 -25.074  0.00  0.00    -0.065 OA
ENDBRANCH  18  27
TORSDOF 2
ENDMDL
MODEL 3
REMARK VINA RESULT:     -10.1      8.075     13.904
REMARK  Name = 5282430
REMARK  2 active torsions:
REMARK  status: ('A' for Active; 'I' for Inactive)
REMARK    1  A    between atoms: C_17  and  S_23
REMARK    2  A    between atoms: C_18  and  S_27
REMARK                            x       y       z     vdW  Elec       q    Type
REMARK                         _______ _______ _______ _____ _____    ______ ____
ROOT
ATOM      1  O   UNL     1      37.917 -21.872 -16.845  0.00  0.00    -0.285 OA
ATOM      2  O   UNL     1      33.435 -21.420 -19.588  0.00  0.00    -0.285 OA
ATOM      3  N   UNL     1      34.545 -22.731 -17.183  0.00  0.00    -0.309 N 
ATOM      4  N   UNL     1      36.809 -20.568 -19.255  0.00  0.00    -0.309 N 
ATOM      5  C   UNL     1      35.619 -22.038 -17.680  0.00  0.00    +0.105 C 
ATOM      6  C   UNL     1      35.734 -21.256 -18.755  0.00  0.00    +0.105 C 
ATOM      7  C   UNL     1      36.254 -23.193 -15.719  0.00  0.00    +0.055 C 
ATOM      8  C   UNL     1      35.100 -20.106 -20.719  0.00  0.00    +0.055 C 
ATOM      9  C   UNL     1      34.906 -23.415 -16.029  0.00  0.00    +0.052 C 
ATOM     10  C   UNL     1      36.450 -19.885 -20.410  0.00  0.00    +0.052 C 
ATOM     11  C   UNL     1      36.785 -22.296 -16.763  0.00  0.00    +0.211 C 
ATOM     12  C   UNL     1      34.568 -20.998 -19.672  0.00  0.00    +0.211 C 
ATOM     13  C   UNL     1      36.880 -23.750 -14.625  0.00  0.00    +0.023 C 
ATOM     14  C   UNL     1      34.475 -19.550 -21.815  0.00  0.00    +0.023 C 
ATOM     15  C   UNL     1      34.135 -24.225 -15.221  0.00  0.00    +0.016 C 
ATOM     16  C   UNL     1      37.221 -19.078 -21.220  0.00  0.00    +0.016 C 
ATOM     17  C   UNL     1      36.101 -24.569 -13.806  0.00  0.00    +0.113 C 
ATOM     18  C   UNL     1      35.255 -18.733 -22.634  0.00  0.00    +0.113 C 
ATOM     19  C   UNL     1      34.744 -24.804 -14.101  0.00  0.00    +0.020 C 
ATOM     20  C   UNL     1      36.613 -18.500 -22.340  0.00  0.00    +0.020 C 
ATOM     21  H   UNL     1      33.647 -22.742 -17.587  0.00  0.00    +0.152 HD
ATOM     22  H   UNL     1      37.707 -20.557 -18.851  0.00  0.00    +0.152 HD
ENDROOT
BRANCH  17  23
ATOM     23  S   UNL     1      36.817 -25.313 -12.396  0.00  0.00    +0.042 S 
ATOM     24  O   UNL     1      35.675 -25.209 -11.231  0.00  0.00    -0.065 OA
ATOM     25  O   UNL     1      37.004 -26.728 -12.682  0.00  0.00    -0.065 OA
ATOM     26  O   UNL     1      37.942 -24.479 -12.005  0.00  0.00    -0.065 OA
ENDBRANCH  17  23
BRANCH  18  27
ATOM     27  S   UNL     1      34.538 -17.988 -24.043  0.00  0.00    +0.042 S 
ATOM     28  O   UNL     1      33.567 -16.811 -23.458  0.00  0.00    -0.065 OA
ATOM     29  O   UNL     1      35.600 -17.329 -24.791  0.00  0.00    -0.065 OA
ATOM     30  O   UNL     1      33.701 -18.996 -24.674  0.00  0.00    -0.065 OA
ENDBRANCH  18  27
TORSDOF 2
ENDMDL
MODEL 4
REMARK VINA RESULT:     -10.0      8.065     11.599
REMARK  Name = 5282430
REMARK  2 active torsions:
REMARK  status: ('A' for Active; 'I' for Inactive)
REMARK    1  A    between atoms: C_17  and  S_23
REMARK    2  A    between atoms: C_18  and  S_27
REMARK                            x       y       z     vdW  Elec       q    Type
REMARK                         _______ _______ _______ _____ _____    ______ ____
ROOT
ATOM      1  O   UNL     1      33.337 -21.434 -19.509  0.00  0.00    -0.285 OA
ATOM      2  O   UNL     1      37.863 -21.896 -16.841  0.00  0.00    -0.285 OA
ATOM      3  N   UNL     1      36.715 -20.578 -19.224  0.00  0.00    -0.309 N 
ATOM      4  N   UNL     1      34.487 -22.758 -17.130  0.00  0.00    -0.309 N 
ATOM      5  C   UNL     1      35.648 -21.272 -18.712  0.00  0.00    +0.105 C 
ATOM      6  C   UNL     1      35.553 -22.059 -17.639  0.00  0.00    +0.105 C 
ATOM      7  C   UNL     1      34.982 -20.110 -20.658  0.00  0.00    +0.055 C 
ATOM      8  C   UNL     1      36.221 -23.226 -15.696  0.00  0.00    +0.055 C 
ATOM      9  C   UNL     1      36.336 -19.890 -20.370  0.00  0.00    +0.052 C 
ATOM     10  C   UNL     1      34.867 -23.448 -15.986  0.00  0.00    +0.052 C 
ATOM     11  C   UNL     1      34.468 -21.009 -19.608  0.00  0.00    +0.211 C 
ATOM     12  C   UNL     1      36.733 -22.322 -16.743  0.00  0.00    +0.211 C 
ATOM     13  C   UNL     1      34.339 -19.549 -21.741  0.00  0.00    +0.023 C 
ATOM     14  C   UNL     1      36.864 -23.788 -14.615  0.00  0.00    +0.023 C 
ATOM     15  C   UNL     1      37.094 -19.077 -21.187  0.00  0.00    +0.016 C 
ATOM     16  C   UNL     1      34.110 -24.264 -15.171  0.00  0.00    +0.016 C 
ATOM     17  C   UNL     1      35.104 -18.726 -22.568  0.00  0.00    +0.113 C 
ATOM     18  C   UNL     1      36.100 -24.613 -13.789  0.00  0.00    +0.113 C 
ATOM     19  C   UNL     1      36.466 -18.492 -22.294  0.00  0.00    +0.020 C 
ATOM     20  C   UNL     1      34.738 -24.848 -14.064  0.00  0.00    +0.020 C 
ATOM     21  H   UNL     1      37.619 -20.569 -18.835  0.00  0.00    +0.152 HD
ATOM     22  H   UNL     1      33.583 -22.767 -17.519  0.00  0.00    +0.152 HD
ENDROOT
BRANCH  17  23
ATOM     23  S   UNL     1      34.364 -17.973 -23.960  0.00  0.00    +0.042 S 
ATOM     24  O   UNL     1      35.602 -17.312 -24.798  0.00  0.00    -0.065 OA
ATOM     25  O   UNL     1      33.802 -19.026 -24.794  0.00  0.00    -0.065 OA
ATOM     26  O   UNL     1      33.526 -16.894 -23.462  0.00  0.00    -0.065 OA
ENDBRANCH  17  23
BRANCH  18  27
ATOM     27  S   UNL     1      36.839 -25.364 -12.395  0.00  0.00    +0.042 S 
ATOM     28  O   UNL     1      35.731 -25.235 -11.201  0.00  0.00    -0.065 OA
ATOM     29  O   UNL     1      36.993 -26.783 -12.679  0.00  0.00    -0.065 OA
ATOM     30  O   UNL     1      37.989 -24.549 -12.037  0.00  0.00    -0.065 OA
ENDBRANCH  18  27
TORSDOF 2
ENDMDL
MODEL 5
REMARK VINA RESULT:      -9.5      1.564      9.659
REMARK  Name = 5282430
REMARK  2 active torsions:
REMARK  status: ('A' for Active; 'I' for Inactive)
REMARK    1  A    between atoms: C_17  and  S_23
REMARK    2  A    between atoms: C_18  and  S_27
REMARK                            x       y       z     vdW  Elec       q    Type
REMARK                         _______ _______ _______ _____ _____    ______ ____
ROOT
ATOM      1  O   UNL     1      34.284 -12.851 -24.450  0.00  0.00    -0.285 OA
ATOM      2  O   UNL     1      31.293 -10.224 -20.991  0.00  0.00    -0.285 OA
ATOM      3  N   UNL     1      32.393 -12.917 -21.510  0.00  0.00    -0.309 N 
ATOM      4  N   UNL     1      33.177 -10.159 -23.934  0.00  0.00    -0.309 N 
ATOM      5  C   UNL     1      32.870 -12.181 -22.565  0.00  0.00    +0.105 C 
ATOM      6  C   UNL     1      32.705 -10.894 -22.877  0.00  0.00    +0.105 C 
ATOM      7  C   UNL     1      33.621 -14.413 -22.748  0.00  0.00    +0.055 C 
ATOM      8  C   UNL     1      31.949  -8.663 -22.697  0.00  0.00    +0.055 C 
ATOM      9  C   UNL     1      32.829 -14.233 -21.606  0.00  0.00    +0.052 C 
ATOM     10  C   UNL     1      32.740  -8.844 -23.840  0.00  0.00    +0.052 C 
ATOM     11  C   UNL     1      33.690 -13.105 -23.424  0.00  0.00    +0.211 C 
ATOM     12  C   UNL     1      31.885  -9.970 -22.017  0.00  0.00    +0.211 C 
ATOM     13  C   UNL     1      34.188 -15.622 -23.092  0.00  0.00    +0.023 C 
ATOM     14  C   UNL     1      31.381  -7.455 -22.354  0.00  0.00    +0.023 C 
ATOM     15  C   UNL     1      32.581 -15.295 -20.761  0.00  0.00    +0.016 C 
ATOM     16  C   UNL     1      32.984  -7.783 -24.687  0.00  0.00    +0.016 C 
ATOM     17  C   UNL     1      33.939 -16.697 -22.237  0.00  0.00    +0.113 C 
ATOM     18  C   UNL     1      31.628  -6.380 -23.210  0.00  0.00    +0.113 C 
ATOM     19  C   UNL     1      33.145 -16.535 -21.085  0.00  0.00    +0.020 C 
ATOM     20  C   UNL     1      32.420  -6.543 -24.363  0.00  0.00    +0.020 C 
ATOM     21  H   UNL     1      31.824 -12.564 -20.789  0.00  0.00    +0.152 HD
ATOM     22  H   UNL     1      33.746 -10.513 -24.656  0.00  0.00    +0.152 HD
ENDROOT
BRANCH  17  23
ATOM     23  S   UNL     1      34.622 -18.264 -22.599  0.00  0.00    +0.042 S 
ATOM     24  O   UNL     1      36.159 -18.199 -22.048  0.00  0.00    -0.065 OA
ATOM     25  O   UNL     1      33.923 -19.255 -21.794  0.00  0.00    -0.065 OA
ATOM     26  O   UNL     1      34.664 -18.381 -24.048  0.00  0.00    -0.065 OA
ENDBRANCH  17  23
BRANCH  18  27
ATOM     27  S   UNL     1      30.947  -4.813 -22.847  0.00  0.00    +0.042 S 
ATOM     28  O   UNL     1      30.315  -4.283 -24.258  0.00  0.00    -0.065 OA
ATOM     29  O   UNL     1      29.833  -5.009 -21.930  0.00  0.00    -0.065 OA
ATOM     30  O   UNL     1      32.056  -3.943 -22.491  0.00  0.00    -0.065 OA
ENDBRANCH  18  27
TORSDOF 2
ENDMDL
MODEL 6
REMARK VINA RESULT:      -9.5      1.562      2.458
REMARK  Name = 5282430
REMARK  2 active torsions:
REMARK  status: ('A' for Active; 'I' for Inactive)
REMARK    1  A    between atoms: C_17  and  S_23
REMARK    2  A    between atoms: C_18  and  S_27
REMARK                            x       y       z     vdW  Elec       q    Type
REMARK                         _______ _______ _______ _____ _____    ______ ____
ROOT
ATOM      1  O   UNL     1      31.354 -10.243 -20.990  0.00  0.00    -0.285 OA
ATOM      2  O   UNL     1      34.299 -12.817 -24.527  0.00  0.00    -0.285 OA
ATOM      3  N   UNL     1      33.191 -10.136 -23.962  0.00  0.00    -0.309 N 
ATOM      4  N   UNL     1      32.456 -12.926 -21.559  0.00  0.00    -0.309 N 
ATOM      5  C   UNL     1      32.738 -10.885 -22.906  0.00  0.00    +0.105 C 
ATOM      6  C   UNL     1      32.913 -12.175 -22.612  0.00  0.00    +0.105 C 
ATOM      7  C   UNL     1      31.976  -8.660 -22.688  0.00  0.00    +0.055 C 
ATOM      8  C   UNL     1      33.670 -14.402 -22.833  0.00  0.00    +0.055 C 
ATOM      9  C   UNL     1      32.750  -8.824 -23.845  0.00  0.00    +0.052 C 
ATOM     10  C   UNL     1      32.895 -14.238 -21.676  0.00  0.00    +0.052 C 
ATOM     11  C   UNL     1      31.928  -9.975 -22.023  0.00  0.00    +0.211 C 
ATOM     12  C   UNL     1      33.723 -13.085 -23.495  0.00  0.00    +0.211 C 
ATOM     13  C   UNL     1      31.409  -7.458 -22.322  0.00  0.00    +0.023 C 
ATOM     14  C   UNL     1      34.235 -15.604 -23.200  0.00  0.00    +0.023 C 
ATOM     15  C   UNL     1      32.976  -7.752 -24.684  0.00  0.00    +0.016 C 
ATOM     16  C   UNL     1      32.665 -15.311 -20.840  0.00  0.00    +0.016 C 
ATOM     17  C   UNL     1      31.638  -6.373 -23.169  0.00  0.00    +0.113 C 
ATOM     18  C   UNL     1      34.005 -16.690 -22.354  0.00  0.00    +0.113 C 
ATOM     19  C   UNL     1      32.413  -6.518 -24.337  0.00  0.00    +0.020 C 
ATOM     20  C   UNL     1      33.228 -16.545 -21.187  0.00  0.00    +0.020 C 
ATOM     21  H   UNL     1      33.749 -10.479 -24.697  0.00  0.00    +0.152 HD
ATOM     22  H   UNL     1      31.897 -12.583 -20.824  0.00  0.00    +0.152 HD
ENDROOT
BRANCH  17  23
ATOM     23  S   UNL     1      30.957  -4.812 -22.777  0.00  0.00    +0.042 S 
ATOM     24  O   UNL     1      30.342  -4.248 -24.182  0.00  0.00    -0.065 OA
ATOM     25  O   UNL     1      29.833  -5.027 -21.877  0.00  0.00    -0.065 OA
ATOM     26  O   UNL     1      32.065  -3.954 -22.389  0.00  0.00    -0.065 OA
ENDBRANCH  17  23
BRANCH  18  27
ATOM     27  S   UNL     1      34.688 -18.250 -22.745  0.00  0.00    +0.042 S 
ATOM     28  O   UNL     1      36.244 -18.173 -22.251  0.00  0.00    -0.065 OA
ATOM     29  O   UNL     1      34.028 -19.249 -21.917  0.00  0.00    -0.065 OA
ATOM     30  O   UNL     1      34.677 -18.364 -24.195  0.00  0.00    -0.065 OA
ENDBRANCH  18  27
TORSDOF 2
ENDMDL
MODEL 7
REMARK VINA RESULT:      -9.3      2.319     10.007
REMARK  Name = 5282430
REMARK  2 active torsions:
REMARK  status: ('A' for Active; 'I' for Inactive)
REMARK    1  A    between atoms: C_17  and  S_23
REMARK    2  A    between atoms: C_18  and  S_27
REMARK                            x       y       z     vdW  Elec       q    Type
REMARK                         _______ _______ _______ _____ _____    ______ ____
ROOT
ATOM      1  O   UNL     1      34.136 -10.899 -25.076  0.00  0.00    -0.285 OA
ATOM      2  O   UNL     1      31.135  -8.338 -21.577  0.00  0.00    -0.285 OA
ATOM      3  N   UNL     1      32.178 -11.036 -22.184  0.00  0.00    -0.309 N 
ATOM      4  N   UNL     1      33.087  -8.203 -24.474  0.00  0.00    -0.309 N 
ATOM      5  C   UNL     1      32.697 -10.270 -23.196  0.00  0.00    +0.105 C 
ATOM      6  C   UNL     1      32.572  -8.967 -23.458  0.00  0.00    +0.105 C 
ATOM      7  C   UNL     1      33.396 -12.512 -23.455  0.00  0.00    +0.055 C 
ATOM      8  C   UNL     1      31.869  -6.727 -23.202  0.00  0.00    +0.055 C 
ATOM      9  C   UNL     1      32.582 -12.358 -22.324  0.00  0.00    +0.052 C 
ATOM     10  C   UNL     1      32.681  -6.881 -24.334  0.00  0.00    +0.052 C 
ATOM     11  C   UNL     1      33.513 -11.179 -24.075  0.00  0.00    +0.211 C 
ATOM     12  C   UNL     1      31.756  -8.058 -22.579  0.00  0.00    +0.211 C 
ATOM     13  C   UNL     1      33.939 -13.720 -23.836  0.00  0.00    +0.023 C 
ATOM     14  C   UNL     1      31.324  -5.519 -22.822  0.00  0.00    +0.023 C 
ATOM     15  C   UNL     1      32.289 -13.446 -21.529  0.00  0.00    +0.016 C 
ATOM     16  C   UNL     1      32.971  -5.794 -25.131  0.00  0.00    +0.016 C 
ATOM     17  C   UNL     1      33.643 -14.822 -23.032  0.00  0.00    +0.113 C 
ATOM     18  C   UNL     1      31.618  -4.417 -23.627  0.00  0.00    +0.113 C 
ATOM     19  C   UNL     1      32.827 -14.686 -21.892  0.00  0.00    +0.020 C 
ATOM     20  C   UNL     1      32.432  -4.553 -24.769  0.00  0.00    +0.020 C 
ATOM     21  H   UNL     1      31.602 -10.697 -21.461  0.00  0.00    +0.152 HD
ATOM     22  H   UNL     1      33.663  -8.541 -25.197  0.00  0.00    +0.152 HD
ENDROOT
BRANCH  17  23
ATOM     23  S   UNL     1      34.294 -16.391 -23.444  0.00  0.00    +0.042 S 
ATOM     24  O   UNL     1      35.917 -16.195 -23.443  0.00  0.00    -0.065 OA
ATOM     25  O   UNL     1      33.977 -17.307 -22.358  0.00  0.00    -0.065 OA
ATOM     26  O   UNL     1      33.873 -16.678 -24.806  0.00  0.00    -0.065 OA
ENDBRANCH  17  23
BRANCH  18  27
ATOM     27  S   UNL     1      30.969  -2.848 -23.215  0.00  0.00    +0.042 S 
ATOM     28  O   UNL     1      30.193  -2.339 -24.560  0.00  0.00    -0.065 OA
ATOM     29  O   UNL     1      29.956  -3.038 -22.186  0.00  0.00    -0.065 OA
ATOM     30  O   UNL     1      32.104  -1.969 -22.985  0.00  0.00    -0.065 OA
ENDBRANCH  18  27
TORSDOF 2
ENDMDL
MODEL 8
REMARK VINA RESULT:      -9.3      2.051      3.250
REMARK  Name = 5282430
REMARK  2 active torsions:
REMARK  status: ('A' for Active; 'I' for Inactive)
REMARK    1  A    between atoms: C_17  and  S_23
REMARK    2  A    between atoms: C_18  and  S_27
REMARK                            x       y       z     vdW  Elec       q    Type
REMARK                         _______ _______ _______ _____ _____    ______ ____
ROOT
ATOM      1  O   UNL     1      31.153  -8.914 -21.595  0.00  0.00    -0.285 OA
ATOM      2  O   UNL     1      34.406 -11.399 -24.920  0.00  0.00    -0.285 OA
ATOM      3  N   UNL     1      33.270  -8.727 -24.371  0.00  0.00    -0.309 N 
ATOM      4  N   UNL     1      32.283 -11.588 -22.149  0.00  0.00    -0.309 N 
ATOM      5  C   UNL     1      32.711  -9.506 -23.390  0.00  0.00    +0.105 C 
ATOM      6  C   UNL     1      32.846 -10.807 -23.126  0.00  0.00    +0.105 C 
ATOM      7  C   UNL     1      31.950  -7.281 -23.168  0.00  0.00    +0.055 C 
ATOM      8  C   UNL     1      33.603 -13.034 -23.351  0.00  0.00    +0.055 C 
ATOM      9  C   UNL     1      32.830  -7.414 -24.251  0.00  0.00    +0.052 C 
ATOM     10  C   UNL     1      32.722 -12.901 -22.270  0.00  0.00    +0.052 C 
ATOM     11  C   UNL     1      31.827  -8.618 -22.557  0.00  0.00    +0.211 C 
ATOM     12  C   UNL     1      33.731 -11.696 -23.958  0.00  0.00    +0.211 C 
ATOM     13  C   UNL     1      31.360  -6.086 -22.816  0.00  0.00    +0.023 C 
ATOM     14  C   UNL     1      34.192 -14.229 -23.704  0.00  0.00    +0.023 C 
ATOM     15  C   UNL     1      33.145  -6.317 -25.025  0.00  0.00    +0.016 C 
ATOM     16  C   UNL     1      32.404 -13.999 -21.498  0.00  0.00    +0.016 C 
ATOM     17  C   UNL     1      31.678  -4.975 -23.599  0.00  0.00    +0.113 C 
ATOM     18  C   UNL     1      33.872 -15.341 -22.923  0.00  0.00    +0.113 C 
ATOM     19  C   UNL     1      32.561  -5.089 -24.691  0.00  0.00    +0.020 C 
ATOM     20  C   UNL     1      32.988 -15.227 -21.832  0.00  0.00    +0.020 C 
ATOM     21  H   UNL     1      33.894  -9.051 -25.060  0.00  0.00    +0.152 HD
ATOM     22  H   UNL     1      31.660 -11.264 -21.460  0.00  0.00    +0.152 HD
ENDROOT
BRANCH  17  23
ATOM     23  S   UNL     1      30.975  -3.421 -23.219  0.00  0.00    +0.042 S 
ATOM     24  O   UNL     1      30.141  -2.990 -24.557  0.00  0.00    -0.065 OA
ATOM     25  O   UNL     1      30.000  -3.618 -22.156  0.00  0.00    -0.065 OA
ATOM     26  O   UNL     1      32.078  -2.488 -23.052  0.00  0.00    -0.065 OA
ENDBRANCH  17  23
BRANCH  18  27
ATOM     27  S   UNL     1      34.577 -16.894 -23.301  0.00  0.00    +0.042 S 
ATOM     28  O   UNL     1      33.908 -17.939 -22.237  0.00  0.00    -0.065 OA
ATOM     29  O   UNL     1      34.117 -17.285 -24.626  0.00  0.00    -0.065 OA
ATOM     30  O   UNL     1      35.998 -16.795 -23.008  0.00  0.00    -0.065 OA
ENDBRANCH  18  27
TORSDOF 2
ENDMDL
MODEL 9
REMARK VINA RESULT:      -9.2      8.263     14.153
REMARK  Name = 5282430
REMARK  2 active torsions:
REMARK  status: ('A' for Active; 'I' for Inactive)
REMARK    1  A    between atoms: C_17  and  S_23
REMARK    2  A    between atoms: C_18  and  S_27
REMARK                            x       y       z     vdW  Elec       q    Type
REMARK                         _______ _______ _______ _____ _____    ______ ____
ROOT
ATOM      1  O   UNL     1      33.773 -22.906 -16.424  0.00  0.00    -0.285 OA
ATOM      2  O   UNL     1      37.400 -20.842 -19.648  0.00  0.00    -0.285 OA
ATOM      3  N   UNL     1      37.154 -22.374 -17.133  0.00  0.00    -0.309 N 
ATOM      4  N   UNL     1      34.018 -21.367 -18.935  0.00  0.00    -0.309 N 
ATOM      5  C   UNL     1      35.849 -22.187 -17.508  0.00  0.00    +0.105 C 
ATOM      6  C   UNL     1      35.324 -21.560 -18.563  0.00  0.00    +0.105 C 
ATOM      7  C   UNL     1      35.929 -23.409 -15.488  0.00  0.00    +0.055 C 
ATOM      8  C   UNL     1      35.244 -20.332 -20.579  0.00  0.00    +0.055 C 
ATOM      9  C   UNL     1      37.216 -23.093 -15.946  0.00  0.00    +0.052 C 
ATOM     10  C   UNL     1      33.957 -20.646 -20.121  0.00  0.00    +0.052 C 
ATOM     11  C   UNL     1      34.982 -22.844 -16.467  0.00  0.00    +0.211 C 
ATOM     12  C   UNL     1      36.190 -20.902 -19.603  0.00  0.00    +0.211 C 
ATOM     13  C   UNL     1      35.692 -24.119 -14.331  0.00  0.00    +0.023 C 
ATOM     14  C   UNL     1      35.481 -19.620 -21.736  0.00  0.00    +0.023 C 
ATOM     15  C   UNL     1      38.323 -23.496 -15.228  0.00  0.00    +0.016 C 
ATOM     16  C   UNL     1      32.850 -20.240 -20.836  0.00  0.00    +0.016 C 
ATOM     17  C   UNL     1      36.811 -24.528 -13.605  0.00  0.00    +0.113 C 
ATOM     18  C   UNL     1      34.361 -19.210 -22.461  0.00  0.00    +0.113 C 
ATOM     19  C   UNL     1      38.112 -24.220 -14.049  0.00  0.00    +0.020 C 
ATOM     20  C   UNL     1      33.060 -19.516 -22.016  0.00  0.00    +0.020 C 
ATOM     21  H   UNL     1      37.936 -22.047 -17.634  0.00  0.00    +0.152 HD
ATOM     22  H   UNL     1      33.236 -21.694 -18.434  0.00  0.00    +0.152 HD
ENDROOT
BRANCH  17  23
ATOM     23  S   UNL     1      36.598 -25.435 -12.126  0.00  0.00    +0.042 S 
ATOM     24  O   UNL     1      37.703 -24.826 -11.087  0.00  0.00    -0.065 OA
ATOM     25  O   UNL     1      35.285 -25.112 -11.587  0.00  0.00    -0.065 OA
ATOM     26  O   UNL     1      36.962 -26.812 -12.420  0.00  0.00    -0.065 OA
ENDBRANCH  17  23
BRANCH  18  27
ATOM     27  S   UNL     1      34.574 -18.305 -23.940  0.00  0.00    +0.042 S 
ATOM     28  O   UNL     1      33.855 -16.863 -23.668  0.00  0.00    -0.065 OA
ATOM     29  O   UNL     1      35.997 -18.045 -24.106  0.00  0.00    -0.065 OA
ATOM     30  O   UNL     1      33.821 -19.000 -24.972  0.00  0.00    -0.065 OA
ENDBRANCH  18  27
TORSDOF 2
ENDMDL
