MODEL 1
REMARK VINA RESULT:      -6.7      0.000      0.000
REMARK  Name = 92109
REMARK  3 active torsions:
REMARK  status: ('A' for Active; 'I' for Inactive)
REMARK    1  A    between atoms: C_7  and  C_24
REMARK    2  A    between atoms: C_14  and  O_21
REMARK    3  A    between atoms: C_24  and  O_25
REMARK                            x       y       z     vdW  Elec       q    Type
REMARK                         _______ _______ _______ _____ _____    ______ ____
ROOT
ATOM      1  O   UNL     1      35.711 -25.349 -13.028  0.00  0.00    -0.456 OA
ATOM      2  O   UNL     1      37.267 -27.023 -13.315  0.00  0.00    -0.250 OA
ATOM      3  C   UNL     1      34.889 -23.675 -15.311  0.00  0.00    +0.017 C 
ATOM      4  C   UNL     1      35.757 -23.912 -13.057  0.00  0.00    +0.137 C 
ATOM      5  C   UNL     1      34.588 -23.296 -13.826  0.00  0.00    +0.038 C 
ATOM      6  C   UNL     1      36.955 -23.597 -13.944  0.00  0.00    +0.060 C 
ATOM      7  C   UNL     1      36.434 -23.702 -15.403  0.00  0.00    +0.103 C 
ATOM      8  C   UNL     1      37.919 -24.659 -13.421  0.00  0.00    +0.118 C 
ATOM      9  C   UNL     1      34.286 -25.038 -15.703  0.00  0.00    +0.005 C 
ATOM     10  C   UNL     1      34.104 -22.756 -16.271  0.00  0.00    +0.023 C 
ATOM     11  C   UNL     1      33.177 -23.645 -13.323  0.00  0.00    +0.004 C 
ATOM     12  C   UNL     1      32.795 -24.746 -15.607  0.00  0.00    +0.018 C 
ATOM     13  C   UNL     1      36.000 -23.383 -11.639  0.00  0.00    +0.043 C 
ATOM     14  C   UNL     1      38.399 -24.282 -11.989  0.00  0.00    +0.121 C 
ATOM     15  C   UNL     1      32.421 -24.714 -14.122  0.00  0.00    +0.004 C 
ATOM     16  C   UNL     1      32.728 -23.382 -16.259  0.00  0.00    -0.045 C 
ATOM     17  C   UNL     1      37.240 -24.034 -10.997  0.00  0.00    +0.033 C 
ATOM     18  C   UNL     1      36.975 -25.838 -13.273  0.00  0.00    +0.318 C 
ATOM     19  C   UNL     1      39.087 -24.943 -14.358  0.00  0.00    +0.014 C 
ATOM     20  C   UNL     1      31.624 -22.818 -16.761  0.00  0.00    -0.009 C 
ENDROOT
BRANCH  14  21
ATOM     21  O   UNL     1      39.236 -23.126 -12.034  0.00  0.00    -0.384 OA
ATOM     22  H   UNL     1      40.088 -23.359 -12.435  0.00  0.00    +0.210 HD
ENDBRANCH  14  21
BRANCH   7  24
ATOM     23  O   UNL     1      36.911 -22.444 -17.413  0.00  0.00    -0.250 OA
ATOM     24  C   UNL     1      36.985 -22.556 -16.199  0.00  0.00    +0.313 C 
BRANCH  24  25
ATOM     25  O   UNL     1      37.586 -21.653 -15.385  0.00  0.00    -0.480 OA
ATOM     26  H   UNL     1      38.045 -20.923 -15.751  0.00  0.00    +0.295 HD
ENDBRANCH  24  25
ENDBRANCH   7  24
TORSDOF 3
ENDMDL
MODEL 2
REMARK VINA RESULT:      -6.1      1.828      3.938
REMARK  Name = 92109
REMARK  3 active torsions:
REMARK  status: ('A' for Active; 'I' for Inactive)
REMARK    1  A    between atoms: C_7  and  C_24
REMARK    2  A    between atoms: C_14  and  O_21
REMARK    3  A    between atoms: C_24  and  O_25
REMARK                            x       y       z     vdW  Elec       q    Type
REMARK                         _______ _______ _______ _____ _____    ______ ____
ROOT
ATOM      1  O   UNL     1      37.887 -23.080 -13.434  0.00  0.00    -0.456 OA
ATOM      2  O   UNL     1      37.385 -22.335 -11.313  0.00  0.00    -0.250 OA
ATOM      3  C   UNL     1      35.800 -23.165 -15.514  0.00  0.00    +0.017 C 
ATOM      4  C   UNL     1      37.537 -24.242 -14.205  0.00  0.00    +0.137 C 
ATOM      5  C   UNL     1      37.168 -23.907 -15.650  0.00  0.00    +0.038 C 
ATOM      6  C   UNL     1      36.211 -24.697 -13.610  0.00  0.00    +0.060 C 
ATOM      7  C   UNL     1      35.125 -23.812 -14.279  0.00  0.00    +0.103 C 
ATOM      8  C   UNL     1      36.534 -24.486 -12.131  0.00  0.00    +0.118 C 
ATOM      9  C   UNL     1      35.971 -21.646 -15.320  0.00  0.00    +0.005 C 
ATOM     10  C   UNL     1      35.046 -23.174 -16.861  0.00  0.00    +0.023 C 
ATOM     11  C   UNL     1      38.238 -23.179 -16.480  0.00  0.00    +0.004 C 
ATOM     12  C   UNL     1      36.571 -21.239 -16.659  0.00  0.00    +0.018 C 
ATOM     13  C   UNL     1      38.603 -25.326 -14.003  0.00  0.00    +0.043 C 
ATOM     14  C   UNL     1      37.553 -25.562 -11.652  0.00  0.00    +0.121 C 
ATOM     15  C   UNL     1      38.042 -21.669 -16.660  0.00  0.00    +0.004 C 
ATOM     16  C   UNL     1      35.722 -22.050 -17.613  0.00  0.00    -0.045 C 
ATOM     17  C   UNL     1      38.838 -25.615 -12.509  0.00  0.00    +0.033 C 
ATOM     18  C   UNL     1      37.283 -23.168 -12.200  0.00  0.00    +0.318 C 
ATOM     19  C   UNL     1      35.302 -24.428 -11.236  0.00  0.00    +0.014 C 
ATOM     20  C   UNL     1      35.578 -21.806 -18.920  0.00  0.00    -0.009 C 
ENDROOT
BRANCH  14  21
ATOM     21  O   UNL     1      36.943 -26.852 -11.636  0.00  0.00    -0.384 OA
ATOM     22  H   UNL     1      36.532 -27.005 -10.770  0.00  0.00    +0.210 HD
ENDBRANCH  14  21
BRANCH   7  24
ATOM     23  O   UNL     1      32.784 -24.330 -14.589  0.00  0.00    -0.250 OA
ATOM     24  C   UNL     1      33.954 -24.674 -14.646  0.00  0.00    +0.313 C 
BRANCH  24  25
ATOM     25  O   UNL     1      34.370 -25.900 -15.050  0.00  0.00    -0.480 OA
ATOM     26  H   UNL     1      33.779 -26.473 -15.497  0.00  0.00    +0.295 HD
ENDBRANCH  24  25
ENDBRANCH   7  24
TORSDOF 3
ENDMDL
MODEL 3
REMARK VINA RESULT:      -5.4      9.792     12.422
REMARK  Name = 92109
REMARK  3 active torsions:
REMARK  status: ('A' for Active; 'I' for Inactive)
REMARK    1  A    between atoms: C_7  and  C_24
REMARK    2  A    between atoms: C_14  and  O_21
REMARK    3  A    between atoms: C_24  and  O_25
REMARK                            x       y       z     vdW  Elec       q    Type
REMARK                         _______ _______ _______ _____ _____    ______ ____
ROOT
ATOM      1  O   UNL     1      34.523 -15.796 -21.041  0.00  0.00    -0.456 OA
ATOM      2  O   UNL     1      35.726 -13.859 -20.719  0.00  0.00    -0.250 OA
ATOM      3  C   UNL     1      34.435 -17.067 -23.700  0.00  0.00    +0.017 C 
ATOM      4  C   UNL     1      33.321 -16.131 -21.758  0.00  0.00    +0.137 C 
ATOM      5  C   UNL     1      33.445 -17.433 -22.549  0.00  0.00    +0.038 C 
ATOM      6  C   UNL     1      33.233 -15.073 -22.850  0.00  0.00    +0.060 C 
ATOM      7  C   UNL     1      34.161 -15.571 -23.991  0.00  0.00    +0.103 C 
ATOM      8  C   UNL     1      33.651 -13.854 -22.030  0.00  0.00    +0.118 C 
ATOM      9  C   UNL     1      35.907 -17.295 -23.305  0.00  0.00    +0.005 C 
ATOM     10  C   UNL     1      34.314 -18.082 -24.857  0.00  0.00    +0.023 C 
ATOM     11  C   UNL     1      33.800 -18.694 -21.743  0.00  0.00    +0.004 C 
ATOM     12  C   UNL     1      35.943 -18.809 -23.146  0.00  0.00    +0.018 C 
ATOM     13  C   UNL     1      32.119 -16.013 -20.814  0.00  0.00    +0.043 C 
ATOM     14  C   UNL     1      32.516 -13.468 -21.036  0.00  0.00    +0.121 C 
ATOM     15  C   UNL     1      35.261 -19.154 -21.818  0.00  0.00    +0.004 C 
ATOM     16  C   UNL     1      35.138 -19.244 -24.350  0.00  0.00    -0.045 C 
ATOM     17  C   UNL     1      32.072 -14.636 -20.126  0.00  0.00    +0.033 C 
ATOM     18  C   UNL     1      34.776 -14.452 -21.204  0.00  0.00    +0.318 C 
ATOM     19  C   UNL     1      34.097 -12.669 -22.876  0.00  0.00    +0.014 C 
ATOM     20  C   UNL     1      35.158 -20.465 -24.895  0.00  0.00    -0.009 C 
ENDROOT
BRANCH  14  21
ATOM     21  O   UNL     1      31.384 -12.967 -21.746  0.00  0.00    -0.384 OA
ATOM     22  H   UNL     1      30.571 -13.239 -21.292  0.00  0.00    +0.210 HD
ENDBRANCH  14  21
BRANCH   7  24
ATOM     23  O   UNL     1      33.839 -15.819 -26.375  0.00  0.00    -0.250 OA
ATOM     24  C   UNL     1      33.473 -15.354 -25.306  0.00  0.00    +0.313 C 
BRANCH  24  25
ATOM     25  O   UNL     1      32.382 -14.563 -25.151  0.00  0.00    -0.480 OA
ATOM     26  H   UNL     1      31.955 -14.512 -24.318  0.00  0.00    +0.295 HD
ENDBRANCH  24  25
ENDBRANCH   7  24
TORSDOF 3
ENDMDL
MODEL 4
REMARK VINA RESULT:      -5.1      1.502      3.575
REMARK  Name = 92109
REMARK  3 active torsions:
REMARK  status: ('A' for Active; 'I' for Inactive)
REMARK    1  A    between atoms: C_7  and  C_24
REMARK    2  A    between atoms: C_14  and  O_21
REMARK    3  A    between atoms: C_24  and  O_25
REMARK                            x       y       z     vdW  Elec       q    Type
REMARK                         _______ _______ _______ _____ _____    ______ ____
ROOT
ATOM      1  O   UNL     1      36.540 -24.113 -15.722  0.00  0.00    -0.456 OA
ATOM      2  O   UNL     1      38.355 -22.700 -15.604  0.00  0.00    -0.250 OA
ATOM      3  C   UNL     1      34.321 -23.847 -13.799  0.00  0.00    +0.017 C 
ATOM      4  C   UNL     1      36.032 -25.175 -14.896  0.00  0.00    +0.137 C 
ATOM      5  C   UNL     1      34.516 -25.105 -14.705  0.00  0.00    +0.038 C 
ATOM      6  C   UNL     1      36.567 -24.853 -13.507  0.00  0.00    +0.060 C 
ATOM      7  C   UNL     1      35.591 -23.801 -12.915  0.00  0.00    +0.103 C 
ATOM      8  C   UNL     1      37.980 -24.421 -13.895  0.00  0.00    +0.118 C 
ATOM      9  C   UNL     1      34.168 -22.551 -14.618  0.00  0.00    +0.005 C 
ATOM     10  C   UNL     1      32.940 -23.888 -13.112  0.00  0.00    +0.023 C 
ATOM     11  C   UNL     1      33.662 -25.142 -15.983  0.00  0.00    +0.004 C 
ATOM     12  C   UNL     1      32.846 -22.801 -15.331  0.00  0.00    +0.018 C 
ATOM     13  C   UNL     1      36.601 -26.513 -15.382  0.00  0.00    +0.043 C 
ATOM     14  C   UNL     1      38.810 -25.660 -14.344  0.00  0.00    +0.121 C 
ATOM     15  C   UNL     1      33.109 -23.796 -16.465  0.00  0.00    +0.004 C 
ATOM     16  C   UNL     1      32.023 -23.395 -14.209  0.00  0.00    -0.045 C 
ATOM     17  C   UNL     1      38.138 -26.474 -15.472  0.00  0.00    +0.033 C 
ATOM     18  C   UNL     1      37.686 -23.611 -15.145  0.00  0.00    +0.318 C 
ATOM     19  C   UNL     1      38.694 -23.616 -12.816  0.00  0.00    +0.014 C 
ATOM     20  C   UNL     1      30.687 -23.463 -14.180  0.00  0.00    -0.009 C 
ENDROOT
BRANCH  14  21
ATOM     21  O   UNL     1      39.063 -26.517 -13.231  0.00  0.00    -0.384 OA
ATOM     22  H   UNL     1      39.951 -26.340 -12.881  0.00  0.00    +0.210 HD
ENDBRANCH  14  21
BRANCH   7  24
ATOM     23  O   UNL     1      34.827 -23.391 -10.657  0.00  0.00    -0.250 OA
ATOM     24  C   UNL     1      35.311 -24.150 -11.483  0.00  0.00    +0.313 C 
BRANCH  24  25
ATOM     25  O   UNL     1      35.674 -25.430 -11.223  0.00  0.00    -0.480 OA
ATOM     26  H   UNL     1      36.323 -25.611 -10.572  0.00  0.00    +0.295 HD
ENDBRANCH  24  25
ENDBRANCH   7  24
TORSDOF 3
ENDMDL
MODEL 5
REMARK VINA RESULT:      -5.0     14.563     17.281
REMARK  Name = 92109
REMARK  3 active torsions:
REMARK  status: ('A' for Active; 'I' for Inactive)
REMARK    1  A    between atoms: C_7  and  C_24
REMARK    2  A    between atoms: C_14  and  O_21
REMARK    3  A    between atoms: C_24  and  O_25
REMARK                            x       y       z     vdW  Elec       q    Type
REMARK                         _______ _______ _______ _____ _____    ______ ____
ROOT
ATOM      1  O   UNL     1      32.046  -8.674 -21.552  0.00  0.00    -0.456 OA
ATOM      2  O   UNL     1      33.614  -7.148 -20.833  0.00  0.00    -0.250 OA
ATOM      3  C   UNL     1      32.897 -11.246 -22.715  0.00  0.00    +0.017 C 
ATOM      4  C   UNL     1      31.639  -9.174 -22.838  0.00  0.00    +0.137 C 
ATOM      5  C   UNL     1      31.444 -10.690 -22.851  0.00  0.00    +0.038 C 
ATOM      6  C   UNL     1      32.868  -8.980 -23.718  0.00  0.00    +0.060 C 
ATOM      7  C   UNL     1      33.785 -10.199 -23.431  0.00  0.00    +0.103 C 
ATOM      8  C   UNL     1      33.293  -7.598 -23.224  0.00  0.00    +0.118 C 
ATOM      9  C   UNL     1      33.324 -11.423 -21.245  0.00  0.00    +0.005 C 
ATOM     10  C   UNL     1      32.958 -12.716 -23.184  0.00  0.00    +0.023 C 
ATOM     11  C   UNL     1      30.419 -11.257 -21.854  0.00  0.00    +0.004 C 
ATOM     12  C   UNL     1      32.377 -12.525 -20.789  0.00  0.00    +0.018 C 
ATOM     13  C   UNL     1      30.475  -8.328 -23.367  0.00  0.00    +0.043 C 
ATOM     14  C   UNL     1      32.289  -6.521 -23.732  0.00  0.00    +0.121 C 
ATOM     15  C   UNL     1      30.995 -11.896 -20.584  0.00  0.00    +0.004 C 
ATOM     16  C   UNL     1      32.427 -13.458 -21.978  0.00  0.00    -0.045 C 
ATOM     17  C   UNL     1      30.820  -6.827 -23.362  0.00  0.00    +0.033 C 
ATOM     18  C   UNL     1      33.054  -7.754 -21.733  0.00  0.00    +0.318 C 
ATOM     19  C   UNL     1      34.734  -7.241 -23.565  0.00  0.00    +0.014 C 
ATOM     20  C   UNL     1      32.071 -14.747 -21.967  0.00  0.00    -0.009 C 
ENDROOT
BRANCH  14  21
ATOM     21  O   UNL     1      32.396  -6.371 -25.148  0.00  0.00    -0.384 OA
ATOM     22  H   UNL     1      32.416  -5.427 -25.372  0.00  0.00    +0.210 HD
ENDBRANCH  14  21
BRANCH   7  24
ATOM     23  O   UNL     1      33.710 -11.328 -25.569  0.00  0.00    -0.250 OA
ATOM     24  C   UNL     1      34.341 -10.704 -24.729  0.00  0.00    +0.313 C 
BRANCH  24  25
ATOM     25  O   UNL     1      35.652 -10.377 -24.847  0.00  0.00    -0.480 OA
ATOM     26  H   UNL     1      35.897  -9.526 -25.154  0.00  0.00    +0.295 HD
ENDBRANCH  24  25
ENDBRANCH   7  24
TORSDOF 3
ENDMDL
MODEL 6
REMARK VINA RESULT:      -4.9      2.644      5.675
REMARK  Name = 92109
REMARK  3 active torsions:
REMARK  status: ('A' for Active; 'I' for Inactive)
REMARK    1  A    between atoms: C_7  and  C_24
REMARK    2  A    between atoms: C_14  and  O_21
REMARK    3  A    between atoms: C_24  and  O_25
REMARK                            x       y       z     vdW  Elec       q    Type
REMARK                         _______ _______ _______ _____ _____    ______ ____
ROOT
ATOM      1  O   UNL     1      32.480 -23.203 -13.695  0.00  0.00    -0.456 OA
ATOM      2  O   UNL     1      31.057 -21.404 -13.902  0.00  0.00    -0.250 OA
ATOM      3  C   UNL     1      34.766 -23.512 -15.531  0.00  0.00    +0.017 C 
ATOM      4  C   UNL     1      32.751 -24.373 -14.488  0.00  0.00    +0.137 C 
ATOM      5  C   UNL     1      34.245 -24.668 -14.619  0.00  0.00    +0.038 C 
ATOM      6  C   UNL     1      32.357 -23.964 -15.901  0.00  0.00    +0.060 C 
ATOM      7  C   UNL     1      33.575 -23.185 -16.466  0.00  0.00    +0.103 C 
ATOM      8  C   UNL     1      31.074 -23.201 -15.574  0.00  0.00    +0.118 C 
ATOM      9  C   UNL     1      35.193 -22.271 -14.723  0.00  0.00    +0.005 C 
ATOM     10  C   UNL     1      36.122 -23.892 -16.162  0.00  0.00    +0.023 C 
ATOM     11  C   UNL     1      35.020 -24.879 -13.308  0.00  0.00    +0.004 C 
ATOM     12  C   UNL     1      36.392 -22.812 -13.955  0.00  0.00    +0.018 C 
ATOM     13  C   UNL     1      31.864 -25.528 -14.008  0.00  0.00    +0.043 C 
ATOM     14  C   UNL     1      29.959 -24.198 -15.144  0.00  0.00    +0.121 C 
ATOM     15  C   UNL     1      35.859 -23.692 -12.820  0.00  0.00    +0.004 C 
ATOM     16  C   UNL     1      37.090 -23.607 -15.036  0.00  0.00    -0.045 C 
ATOM     17  C   UNL     1      30.378 -25.124 -13.979  0.00  0.00    +0.033 C 
ATOM     18  C   UNL     1      31.508 -22.458 -14.323  0.00  0.00    +0.318 C 
ATOM     19  C   UNL     1      30.611 -22.273 -16.690  0.00  0.00    +0.014 C 
ATOM     20  C   UNL     1      38.371 -23.991 -15.011  0.00  0.00    -0.009 C 
ENDROOT
BRANCH  14  21
ATOM     21  O   UNL     1      29.549 -24.995 -16.256  0.00  0.00    -0.384 OA
ATOM     22  H   UNL     1      29.548 -24.452 -17.060  0.00  0.00    +0.210 HD
ENDBRANCH  14  21
BRANCH   7  24
ATOM     23  O   UNL     1      33.503 -24.706 -18.345  0.00  0.00    -0.250 OA
ATOM     24  C   UNL     1      33.816 -23.620 -17.881  0.00  0.00    +0.313 C 
BRANCH  24  25
ATOM     25  O   UNL     1      34.437 -22.641 -18.584  0.00  0.00    -0.480 OA
ATOM     26  H   UNL     1      34.878 -22.845 -19.385  0.00  0.00    +0.295 HD
ENDBRANCH  24  25
ENDBRANCH   7  24
TORSDOF 3
ENDMDL
MODEL 7
REMARK VINA RESULT:      -4.8      1.878      5.470
REMARK  Name = 92109
REMARK  3 active torsions:
REMARK  status: ('A' for Active; 'I' for Inactive)
REMARK    1  A    between atoms: C_7  and  C_24
REMARK    2  A    between atoms: C_14  and  O_21
REMARK    3  A    between atoms: C_24  and  O_25
REMARK                            x       y       z     vdW  Elec       q    Type
REMARK                         _______ _______ _______ _____ _____    ______ ____
ROOT
ATOM      1  O   UNL     1      36.563 -23.225 -13.804  0.00  0.00    -0.456 OA
ATOM      2  O   UNL     1      35.583 -21.939 -15.444  0.00  0.00    -0.250 OA
ATOM      3  C   UNL     1      38.050 -25.668 -14.520  0.00  0.00    +0.017 C 
ATOM      4  C   UNL     1      36.311 -24.534 -13.263  0.00  0.00    +0.137 C 
ATOM      5  C   UNL     1      37.589 -25.349 -13.063  0.00  0.00    +0.038 C 
ATOM      6  C   UNL     1      35.607 -25.274 -14.393  0.00  0.00    +0.060 C 
ATOM      7  C   UNL     1      36.736 -25.779 -15.331  0.00  0.00    +0.103 C 
ATOM      8  C   UNL     1      34.689 -24.151 -14.872  0.00  0.00    +0.118 C 
ATOM      9  C   UNL     1      38.969 -24.574 -15.099  0.00  0.00    +0.005 C 
ATOM     10  C   UNL     1      39.029 -26.862 -14.527  0.00  0.00    +0.023 C 
ATOM     11  C   UNL     1      38.659 -24.732 -12.147  0.00  0.00    +0.004 C 
ATOM     12  C   UNL     1      40.193 -24.705 -14.202  0.00  0.00    +0.018 C 
ATOM     13  C   UNL     1      35.378 -24.412 -12.053  0.00  0.00    +0.043 C 
ATOM     14  C   UNL     1      33.565 -23.901 -13.823  0.00  0.00    +0.121 C 
ATOM     15  C   UNL     1      39.850 -24.069 -12.851  0.00  0.00    +0.004 C 
ATOM     16  C   UNL     1      40.332 -26.209 -14.124  0.00  0.00    -0.045 C 
ATOM     17  C   UNL     1      34.101 -23.625 -12.401  0.00  0.00    +0.033 C 
ATOM     18  C   UNL     1      35.637 -22.968 -14.791  0.00  0.00    +0.318 C 
ATOM     19  C   UNL     1      34.126 -24.372 -16.270  0.00  0.00    +0.014 C 
ATOM     20  C   UNL     1      41.440 -26.867 -13.767  0.00  0.00    -0.009 C 
ENDROOT
BRANCH  14  21
ATOM     21  O   UNL     1      32.668 -25.012 -13.782  0.00  0.00    -0.384 OA
ATOM     22  H   UNL     1      32.832 -25.530 -12.978  0.00  0.00    +0.210 HD
ENDBRANCH  14  21
BRANCH   7  24
ATOM     23  O   UNL     1      36.520 -27.619 -16.886  0.00  0.00    -0.250 OA
ATOM     24  C   UNL     1      36.430 -27.187 -15.747  0.00  0.00    +0.313 C 
BRANCH  24  25
ATOM     25  O   UNL     1      36.033 -27.924 -14.680  0.00  0.00    -0.480 OA
ATOM     26  H   UNL     1      35.409 -28.614 -14.793  0.00  0.00    +0.295 HD
ENDBRANCH  24  25
ENDBRANCH   7  24
TORSDOF 3
ENDMDL
MODEL 8
REMARK VINA RESULT:      -4.7     14.997     17.469
REMARK  Name = 92109
REMARK  3 active torsions:
REMARK  status: ('A' for Active; 'I' for Inactive)
REMARK    1  A    between atoms: C_7  and  C_24
REMARK    2  A    between atoms: C_14  and  O_21
REMARK    3  A    between atoms: C_24  and  O_25
REMARK                            x       y       z     vdW  Elec       q    Type
REMARK                         _______ _______ _______ _____ _____    ______ ____
ROOT
ATOM      1  O   UNL     1      30.645  -9.646 -21.692  0.00  0.00    -0.456 OA
ATOM      2  O   UNL     1      29.469 -11.523 -22.320  0.00  0.00    -0.250 OA
ATOM      3  C   UNL     1      32.533  -8.377 -23.568  0.00  0.00    +0.017 C 
ATOM      4  C   UNL     1      32.029  -9.368 -21.411  0.00  0.00    +0.137 C 
ATOM      5  C   UNL     1      32.511  -8.061 -22.038  0.00  0.00    +0.038 C 
ATOM      6  C   UNL     1      32.788 -10.428 -22.199  0.00  0.00    +0.060 C 
ATOM      7  C   UNL     1      32.879  -9.885 -23.650  0.00  0.00    +0.103 C 
ATOM      8  C   UNL     1      31.886 -11.626 -21.909  0.00  0.00    +0.118 C 
ATOM      9  C   UNL     1      31.184  -8.079 -24.249  0.00  0.00    +0.005 C 
ATOM     10  C   UNL     1      33.432  -7.368 -24.314  0.00  0.00    +0.023 C 
ATOM     11  C   UNL     1      31.753  -6.786 -21.635  0.00  0.00    +0.004 C 
ATOM     12  C   UNL     1      31.103  -6.565 -24.105  0.00  0.00    +0.018 C 
ATOM     13  C   UNL     1      32.287  -9.545 -19.910  0.00  0.00    +0.043 C 
ATOM     14  C   UNL     1      32.051 -12.068 -20.425  0.00  0.00    +0.121 C 
ATOM     15  C   UNL     1      30.734  -6.255 -22.651  0.00  0.00    +0.004 C 
ATOM     16  C   UNL     1      32.522  -6.168 -24.448  0.00  0.00    -0.045 C 
ATOM     17  C   UNL     1      31.813 -10.924 -19.413  0.00  0.00    +0.033 C 
ATOM     18  C   UNL     1      30.519 -10.976 -22.026  0.00  0.00    +0.318 C 
ATOM     19  C   UNL     1      32.080 -12.788 -22.876  0.00  0.00    +0.014 C 
ATOM     20  C   UNL     1      32.914  -4.947 -24.826  0.00  0.00    -0.009 C 
ENDROOT
BRANCH  14  21
ATOM     21  O   UNL     1      33.349 -12.623 -20.214  0.00  0.00    -0.384 OA
ATOM     22  H   UNL     1      33.360 -13.109 -19.374  0.00  0.00    +0.210 HD
ENDBRANCH  14  21
BRANCH   7  24
ATOM     23  O   UNL     1      35.266  -9.536 -23.820  0.00  0.00    -0.250 OA
ATOM     24  C   UNL     1      34.261 -10.132 -24.177  0.00  0.00    +0.313 C 
BRANCH  24  25
ATOM     25  O   UNL     1      34.248 -11.113 -25.112  0.00  0.00    -0.480 OA
ATOM     26  H   UNL     1      34.863 -11.818 -25.062  0.00  0.00    +0.295 HD
ENDBRANCH  24  25
ENDBRANCH   7  24
TORSDOF 3
ENDMDL
MODEL 9
REMARK VINA RESULT:      -4.6     14.612     17.413
REMARK  Name = 92109
REMARK  3 active torsions:
REMARK  status: ('A' for Active; 'I' for Inactive)
REMARK    1  A    between atoms: C_7  and  C_24
REMARK    2  A    between atoms: C_14  and  O_21
REMARK    3  A    between atoms: C_24  and  O_25
REMARK                            x       y       z     vdW  Elec       q    Type
REMARK                         _______ _______ _______ _____ _____    ______ ____
ROOT
ATOM      1  O   UNL     1      32.089  -9.271 -24.176  0.00  0.00    -0.456 OA
ATOM      2  O   UNL     1      30.229  -8.005 -24.672  0.00  0.00    -0.250 OA
ATOM      3  C   UNL     1      32.122 -10.991 -21.782  0.00  0.00    +0.017 C 
ATOM      4  C   UNL     1      33.091  -9.232 -23.145  0.00  0.00    +0.137 C 
ATOM      5  C   UNL     1      33.412 -10.615 -22.577  0.00  0.00    +0.038 C 
ATOM      6  C   UNL     1      32.398  -8.536 -21.980  0.00  0.00    +0.060 C 
ATOM      7  C   UNL     1      31.573  -9.639 -21.264  0.00  0.00    +0.103 C 
ATOM      8  C   UNL     1      31.664  -7.447 -22.761  0.00  0.00    +0.118 C 
ATOM      9  C   UNL     1      31.081 -11.714 -22.659  0.00  0.00    +0.005 C 
ATOM     10  C   UNL     1      32.425 -12.109 -20.762  0.00  0.00    +0.023 C 
ATOM     11  C   UNL     1      33.906 -11.670 -23.581  0.00  0.00    +0.004 C 
ATOM     12  C   UNL     1      31.808 -13.013 -22.978  0.00  0.00    +0.018 C 
ATOM     13  C   UNL     1      34.281  -8.394 -23.625  0.00  0.00    +0.043 C 
ATOM     14  C   UNL     1      32.682  -6.391 -23.283  0.00  0.00    +0.121 C 
ATOM     15  C   UNL     1      32.871 -12.705 -24.037  0.00  0.00    +0.004 C 
ATOM     16  C   UNL     1      32.403 -13.347 -21.628  0.00  0.00    -0.045 C 
ATOM     17  C   UNL     1      33.833  -7.003 -24.113  0.00  0.00    +0.033 C 
ATOM     18  C   UNL     1      31.197  -8.242 -23.967  0.00  0.00    +0.318 C 
ATOM     19  C   UNL     1      30.519  -6.804 -21.989  0.00  0.00    +0.014 C 
ATOM     20  C   UNL     1      32.834 -14.556 -21.249  0.00  0.00    -0.009 C 
ENDROOT
BRANCH  14  21
ATOM     21  O   UNL     1      33.230  -5.648 -22.193  0.00  0.00    -0.384 OA
ATOM     22  H   UNL     1      33.269  -4.708 -22.429  0.00  0.00    +0.210 HD
ENDBRANCH  14  21
BRANCH   7  24
ATOM     23  O   UNL     1      31.016  -9.997 -18.939  0.00  0.00    -0.250 OA
ATOM     24  C   UNL     1      31.733  -9.480 -19.781  0.00  0.00    +0.313 C 
BRANCH  24  25
ATOM     25  O   UNL     1      32.787  -8.676 -19.498  0.00  0.00    -0.480 OA
ATOM     26  H   UNL     1      32.648  -7.856 -19.066  0.00  0.00    +0.295 HD
ENDBRANCH  24  25
ENDBRANCH   7  24
TORSDOF 3
ENDMDL
