MODEL 1
REMARK VINA RESULT:      -9.8      0.000      0.000
REMARK  Name = 54727972
REMARK  5 active torsions:
REMARK  status: ('A' for Active; 'I' for Inactive)
REMARK    1  A    between atoms: C_1  and  C_7
REMARK    2  A    between atoms: C_2  and  N_14
REMARK    3  A    between atoms: C_15  and  C_17
REMARK    4  A    between atoms: C_17  and  C_23
REMARK    5  A    between atoms: C_18  and  O_20
REMARK                            x       y       z     vdW  Elec       q    Type
REMARK                         _______ _______ _______ _____ _____    ______ ____
ROOT
ATOM      1  C   UNL     1      34.827 -17.315 -21.557  0.00  0.00    +0.000 C 
ATOM      2  C   UNL     1      34.522 -14.734 -22.570  0.00  0.00    +0.051 C 
ATOM      3  C   UNL     1      34.603 -16.246 -20.689  0.00  0.00    +0.001 C 
ATOM      4  C   UNL     1      34.898 -17.092 -22.932  0.00  0.00    +0.001 C 
ATOM      5  C   UNL     1      34.451 -14.957 -21.194  0.00  0.00    +0.015 C 
ATOM      6  C   UNL     1      34.746 -15.802 -23.438  0.00  0.00    +0.015 C 
ENDROOT
BRANCH   1   7
ATOM      7  C   UNL     1      34.985 -18.653 -21.030  0.00  0.00    +0.000 C 
ATOM      8  C   UNL     1      36.262 -19.164 -20.795  0.00  0.00    +0.000 C 
ATOM      9  C   UNL     1      33.861 -19.432 -20.756  0.00  0.00    +0.000 C 
ATOM     10  C   UNL     1      36.415 -20.454 -20.288  0.00  0.00    +0.000 C 
ATOM     11  C   UNL     1      34.014 -20.722 -20.248  0.00  0.00    +0.000 C 
ATOM     12  C   UNL     1      35.291 -21.233 -20.013  0.00  0.00    +0.000 C 
ENDBRANCH   1   7
BRANCH   2  14
ATOM     13  O   UNL     1      32.039 -13.132 -23.069  0.00  0.00    -0.269 OA
ATOM     14  N   UNL     1      34.366 -13.423 -23.084  0.00  0.00    -0.280 N 
ATOM     15  C   UNL     1      33.178 -12.733 -23.292  0.00  0.00    +0.262 C 
ATOM     16  H   UNL     1      35.194 -12.947 -23.321  0.00  0.00    +0.155 HD
BRANCH  15  17
ATOM     17  C   UNL     1      33.407 -11.354 -23.854  0.00  0.00    +0.151 C 
ATOM     18  C   UNL     1      32.827 -10.300 -23.244  0.00  0.00    +0.126 C 
ATOM     19  C   UNL     1      32.940  -8.867 -23.690  0.00  0.00    +0.072 C 
BRANCH  18  20
ATOM     20  O   UNL     1      32.068 -10.468 -22.097  0.00  0.00    -0.509 OA
ATOM     21  H   UNL     1      31.243 -10.911 -22.142  0.00  0.00    +0.292 HD
ENDBRANCH  18  20
BRANCH  17  23
ATOM     22  N   UNL     1      34.876 -11.086 -25.968  0.00  0.00    -0.191 NA
ATOM     23  C   UNL     1      34.212 -11.204 -25.024  0.00  0.00    +0.108 C 
ENDBRANCH  17  23
ENDBRANCH  15  17
ENDBRANCH   2  14
TORSDOF 5
ENDMDL
MODEL 2
REMARK VINA RESULT:      -9.8      1.772      2.796
REMARK  Name = 54727972
REMARK  5 active torsions:
REMARK  status: ('A' for Active; 'I' for Inactive)
REMARK    1  A    between atoms: C_1  and  C_7
REMARK    2  A    between atoms: C_2  and  N_14
REMARK    3  A    between atoms: C_15  and  C_17
REMARK    4  A    between atoms: C_17  and  C_23
REMARK    5  A    between atoms: C_18  and  O_20
REMARK                            x       y       z     vdW  Elec       q    Type
REMARK                         _______ _______ _______ _____ _____    ______ ____
ROOT
ATOM      1  C   UNL     1      34.829 -18.789 -21.478  0.00  0.00    +0.000 C 
ATOM      2  C   UNL     1      34.457 -16.587 -23.151  0.00  0.00    +0.051 C 
ATOM      3  C   UNL     1      34.763 -17.504 -20.937  0.00  0.00    +0.001 C 
ATOM      4  C   UNL     1      34.708 -18.972 -22.856  0.00  0.00    +0.001 C 
ATOM      5  C   UNL     1      34.578 -16.404 -21.773  0.00  0.00    +0.015 C 
ATOM      6  C   UNL     1      34.522 -17.871 -23.692  0.00  0.00    +0.015 C 
ENDROOT
BRANCH   1   7
ATOM      7  C   UNL     1      35.021 -19.929 -20.610  0.00  0.00    +0.000 C 
ATOM      8  C   UNL     1      33.920 -20.658 -20.161  0.00  0.00    +0.000 C 
ATOM      9  C   UNL     1      36.309 -20.300 -20.221  0.00  0.00    +0.000 C 
ATOM     10  C   UNL     1      34.106 -21.758 -19.322  0.00  0.00    +0.000 C 
ATOM     11  C   UNL     1      36.494 -21.400 -19.384  0.00  0.00    +0.000 C 
ATOM     12  C   UNL     1      35.393 -22.130 -18.935  0.00  0.00    +0.000 C 
ENDBRANCH   1   7
BRANCH   2  14
ATOM     13  O   UNL     1      32.586 -14.260 -22.901  0.00  0.00    -0.269 OA
ATOM     14  N   UNL     1      34.268 -15.469 -24.000  0.00  0.00    -0.280 N 
ATOM     15  C   UNL     1      33.377 -14.417 -23.824  0.00  0.00    +0.262 C 
ATOM     16  H   UNL     1      34.832 -15.433 -24.805  0.00  0.00    +0.155 HD
BRANCH  15  17
ATOM     17  C   UNL     1      33.460 -13.405 -24.938  0.00  0.00    +0.151 C 
ATOM     18  C   UNL     1      33.183 -13.801 -26.197  0.00  0.00    +0.126 C 
ATOM     19  C   UNL     1      33.238 -12.923 -27.417  0.00  0.00    +0.072 C 
BRANCH  18  20
ATOM     20  O   UNL     1      32.789 -15.103 -26.465  0.00  0.00    -0.509 OA
ATOM     21  H   UNL     1      31.883 -15.337 -26.415  0.00  0.00    +0.292 HD
ENDBRANCH  18  20
BRANCH  17  23
ATOM     22  N   UNL     1      34.154 -10.971 -24.396  0.00  0.00    -0.191 NA
ATOM     23  C   UNL     1      33.845 -12.064 -24.633  0.00  0.00    +0.108 C 
ENDBRANCH  17  23
ENDBRANCH  15  17
ENDBRANCH   2  14
TORSDOF 5
ENDMDL
MODEL 3
REMARK VINA RESULT:      -9.7      6.282     10.552
REMARK  Name = 54727972
REMARK  5 active torsions:
REMARK  status: ('A' for Active; 'I' for Inactive)
REMARK    1  A    between atoms: C_1  and  C_7
REMARK    2  A    between atoms: C_2  and  N_14
REMARK    3  A    between atoms: C_15  and  C_17
REMARK    4  A    between atoms: C_17  and  C_23
REMARK    5  A    between atoms: C_18  and  O_20
REMARK                            x       y       z     vdW  Elec       q    Type
REMARK                         _______ _______ _______ _____ _____    ______ ____
ROOT
ATOM      1  C   UNL     1      35.159 -19.766 -21.135  0.00  0.00    +0.000 C 
ATOM      2  C   UNL     1      35.425 -21.482 -18.952  0.00  0.00    +0.051 C 
ATOM      3  C   UNL     1      36.423 -20.044 -20.615  0.00  0.00    +0.001 C 
ATOM      4  C   UNL     1      34.027 -20.348 -20.563  0.00  0.00    +0.001 C 
ATOM      5  C   UNL     1      36.557 -20.901 -19.524  0.00  0.00    +0.015 C 
ATOM      6  C   UNL     1      34.161 -21.205 -19.471  0.00  0.00    +0.015 C 
ENDROOT
BRANCH   1   7
ATOM      7  C   UNL     1      35.023 -18.876 -22.267  0.00  0.00    +0.000 C 
ATOM      8  C   UNL     1      34.722 -19.392 -23.528  0.00  0.00    +0.000 C 
ATOM      9  C   UNL     1      35.191 -17.502 -22.098  0.00  0.00    +0.000 C 
ATOM     10  C   UNL     1      34.591 -18.534 -24.620  0.00  0.00    +0.000 C 
ATOM     11  C   UNL     1      35.059 -16.644 -23.190  0.00  0.00    +0.000 C 
ATOM     12  C   UNL     1      34.758 -17.160 -24.451  0.00  0.00    +0.000 C 
ENDBRANCH   1   7
BRANCH   2  14
ATOM     13  O   UNL     1      37.221 -21.307 -16.560  0.00  0.00    -0.269 OA
ATOM     14  N   UNL     1      35.560 -22.354 -17.843  0.00  0.00    -0.280 N 
ATOM     15  C   UNL     1      36.419 -22.213 -16.759  0.00  0.00    +0.262 C 
ATOM     16  H   UNL     1      34.981 -23.148 -17.840  0.00  0.00    +0.155 HD
BRANCH  15  17
ATOM     17  C   UNL     1      36.281 -23.341 -15.770  0.00  0.00    +0.151 C 
ATOM     18  C   UNL     1      37.396 -23.968 -15.342  0.00  0.00    +0.126 C 
ATOM     19  C   UNL     1      37.429 -25.121 -14.375  0.00  0.00    +0.072 C 
BRANCH  18  20
ATOM     20  O   UNL     1      38.651 -23.561 -15.766  0.00  0.00    -0.509 OA
ATOM     21  H   UNL     1      39.406 -23.752 -15.245  0.00  0.00    +0.292 HD
ENDBRANCH  18  20
BRANCH  17  23
ATOM     22  N   UNL     1      33.925 -24.043 -14.961  0.00  0.00    -0.191 NA
ATOM     23  C   UNL     1      34.979 -23.726 -15.329  0.00  0.00    +0.108 C 
ENDBRANCH  17  23
ENDBRANCH  15  17
ENDBRANCH   2  14
TORSDOF 5
ENDMDL
MODEL 4
REMARK VINA RESULT:      -9.6      1.654      2.215
REMARK  Name = 54727972
REMARK  5 active torsions:
REMARK  status: ('A' for Active; 'I' for Inactive)
REMARK    1  A    between atoms: C_1  and  C_7
REMARK    2  A    between atoms: C_2  and  N_14
REMARK    3  A    between atoms: C_15  and  C_17
REMARK    4  A    between atoms: C_17  and  C_23
REMARK    5  A    between atoms: C_18  and  O_20
REMARK                            x       y       z     vdW  Elec       q    Type
REMARK                         _______ _______ _______ _____ _____    ______ ____
ROOT
ATOM      1  C   UNL     1      34.640 -18.640 -21.615  0.00  0.00    +0.000 C 
ATOM      2  C   UNL     1      34.504 -16.385 -23.251  0.00  0.00    +0.051 C 
ATOM      3  C   UNL     1      34.640 -18.784 -23.002  0.00  0.00    +0.001 C 
ATOM      4  C   UNL     1      34.572 -17.368 -21.045  0.00  0.00    +0.001 C 
ATOM      5  C   UNL     1      34.572 -17.657 -23.820  0.00  0.00    +0.015 C 
ATOM      6  C   UNL     1      34.504 -16.241 -21.864  0.00  0.00    +0.015 C 
ENDROOT
BRANCH   1   7
ATOM      7  C   UNL     1      34.710 -19.811 -20.768  0.00  0.00    +0.000 C 
ATOM      8  C   UNL     1      35.950 -20.335 -20.404  0.00  0.00    +0.000 C 
ATOM      9  C   UNL     1      33.537 -20.414 -20.314  0.00  0.00    +0.000 C 
ATOM     10  C   UNL     1      36.018 -21.465 -19.587  0.00  0.00    +0.000 C 
ATOM     11  C   UNL     1      33.605 -21.543 -19.497  0.00  0.00    +0.000 C 
ATOM     12  C   UNL     1      34.845 -22.067 -19.133  0.00  0.00    +0.000 C 
ENDBRANCH   1   7
BRANCH   2  14
ATOM     13  O   UNL     1      32.433 -14.225 -23.404  0.00  0.00    -0.269 OA
ATOM     14  N   UNL     1      34.436 -15.240 -24.082  0.00  0.00    -0.280 N 
ATOM     15  C   UNL     1      33.441 -14.270 -24.102  0.00  0.00    +0.262 C 
ATOM     16  H   UNL     1      35.177 -15.117 -24.717  0.00  0.00    +0.155 HD
BRANCH  15  17
ATOM     17  C   UNL     1      33.709 -13.195 -25.123  0.00  0.00    +0.151 C 
ATOM     18  C   UNL     1      34.028 -11.957 -24.694  0.00  0.00    +0.126 C 
ATOM     19  C   UNL     1      34.304 -10.773 -25.581  0.00  0.00    +0.072 C 
BRANCH  18  20
ATOM     20  O   UNL     1      34.149 -11.680 -23.342  0.00  0.00    -0.509 OA
ATOM     21  H   UNL     1      34.940 -11.299 -23.011  0.00  0.00    +0.292 HD
ENDBRANCH  18  20
BRANCH  17  23
ATOM     22  N   UNL     1      33.518 -13.778 -27.638  0.00  0.00    -0.191 NA
ATOM     23  C   UNL     1      33.601 -13.511 -26.512  0.00  0.00    +0.108 C 
ENDBRANCH  17  23
ENDBRANCH  15  17
ENDBRANCH   2  14
TORSDOF 5
ENDMDL
MODEL 5
REMARK VINA RESULT:      -9.4      6.128     10.240
REMARK  Name = 54727972
REMARK  5 active torsions:
REMARK  status: ('A' for Active; 'I' for Inactive)
REMARK    1  A    between atoms: C_1  and  C_7
REMARK    2  A    between atoms: C_2  and  N_14
REMARK    3  A    between atoms: C_15  and  C_17
REMARK    4  A    between atoms: C_17  and  C_23
REMARK    5  A    between atoms: C_18  and  O_20
REMARK                            x       y       z     vdW  Elec       q    Type
REMARK                         _______ _______ _______ _____ _____    ______ ____
ROOT
ATOM      1  C   UNL     1      35.251 -19.579 -21.347  0.00  0.00    +0.000 C 
ATOM      2  C   UNL     1      35.561 -21.289 -19.165  0.00  0.00    +0.051 C 
ATOM      3  C   UNL     1      36.521 -19.817 -20.821  0.00  0.00    +0.001 C 
ATOM      4  C   UNL     1      34.136 -20.197 -20.781  0.00  0.00    +0.001 C 
ATOM      5  C   UNL     1      36.676 -20.671 -19.731  0.00  0.00    +0.015 C 
ATOM      6  C   UNL     1      34.291 -21.052 -19.690  0.00  0.00    +0.015 C 
ENDROOT
BRANCH   1   7
ATOM      7  C   UNL     1      35.092 -18.691 -22.478  0.00  0.00    +0.000 C 
ATOM      8  C   UNL     1      35.249 -17.315 -22.312  0.00  0.00    +0.000 C 
ATOM      9  C   UNL     1      34.783 -19.212 -23.734  0.00  0.00    +0.000 C 
ATOM     10  C   UNL     1      35.095 -16.459 -23.403  0.00  0.00    +0.000 C 
ATOM     11  C   UNL     1      34.630 -18.356 -24.825  0.00  0.00    +0.000 C 
ATOM     12  C   UNL     1      34.787 -16.980 -24.659  0.00  0.00    +0.000 C 
ENDBRANCH   1   7
BRANCH   2  14
ATOM     13  O   UNL     1      37.182 -20.966 -16.666  0.00  0.00    -0.269 OA
ATOM     14  N   UNL     1      35.719 -22.159 -18.057  0.00  0.00    -0.280 N 
ATOM     15  C   UNL     1      36.490 -21.946 -16.921  0.00  0.00    +0.262 C 
ATOM     16  H   UNL     1      35.225 -23.008 -18.096  0.00  0.00    +0.155 HD
BRANCH  15  17
ATOM     17  C   UNL     1      36.411 -23.096 -15.952  0.00  0.00    +0.151 C 
ATOM     18  C   UNL     1      35.199 -23.596 -15.634  0.00  0.00    +0.126 C 
ATOM     19  C   UNL     1      34.948 -24.725 -14.672  0.00  0.00    +0.072 C 
BRANCH  18  20
ATOM     20  O   UNL     1      34.046 -23.093 -16.216  0.00  0.00    -0.509 OA
ATOM     21  H   UNL     1      34.104 -22.413 -16.859  0.00  0.00    +0.292 HD
ENDBRANCH  18  20
BRANCH  17  23
ATOM     22  N   UNL     1      38.588 -24.034 -14.912  0.00  0.00    -0.191 NA
ATOM     23  C   UNL     1      37.616 -23.613 -15.384  0.00  0.00    +0.108 C 
ENDBRANCH  17  23
ENDBRANCH  15  17
ENDBRANCH   2  14
TORSDOF 5
ENDMDL
MODEL 6
REMARK VINA RESULT:      -9.3      6.550     10.702
REMARK  Name = 54727972
REMARK  5 active torsions:
REMARK  status: ('A' for Active; 'I' for Inactive)
REMARK    1  A    between atoms: C_1  and  C_7
REMARK    2  A    between atoms: C_2  and  N_14
REMARK    3  A    between atoms: C_15  and  C_17
REMARK    4  A    between atoms: C_17  and  C_23
REMARK    5  A    between atoms: C_18  and  O_20
REMARK                            x       y       z     vdW  Elec       q    Type
REMARK                         _______ _______ _______ _____ _____    ______ ____
ROOT
ATOM      1  C   UNL     1      34.675 -20.100 -20.727  0.00  0.00    +0.000 C 
ATOM      2  C   UNL     1      34.445 -21.929 -18.633  0.00  0.00    +0.051 C 
ATOM      3  C   UNL     1      35.821 -20.645 -20.147  0.00  0.00    +0.001 C 
ATOM      4  C   UNL     1      33.414 -20.470 -20.259  0.00  0.00    +0.001 C 
ATOM      5  C   UNL     1      35.706 -21.558 -19.100  0.00  0.00    +0.015 C 
ATOM      6  C   UNL     1      33.299 -21.384 -19.212  0.00  0.00    +0.015 C 
ENDROOT
BRANCH   1   7
ATOM      7  C   UNL     1      34.796 -19.152 -21.812  0.00  0.00    +0.000 C 
ATOM      8  C   UNL     1      34.730 -19.593 -23.134  0.00  0.00    +0.000 C 
ATOM      9  C   UNL     1      34.978 -17.796 -21.537  0.00  0.00    +0.000 C 
ATOM     10  C   UNL     1      34.847 -18.678 -24.181  0.00  0.00    +0.000 C 
ATOM     11  C   UNL     1      35.094 -16.882 -22.585  0.00  0.00    +0.000 C 
ATOM     12  C   UNL     1      35.028 -17.323 -23.907  0.00  0.00    +0.000 C 
ENDBRANCH   1   7
BRANCH   2  14
ATOM     13  O   UNL     1      36.017 -22.171 -16.093  0.00  0.00    -0.269 OA
ATOM     14  N   UNL     1      34.328 -22.858 -17.569  0.00  0.00    -0.280 N 
ATOM     15  C   UNL     1      35.095 -22.914 -16.411  0.00  0.00    +0.262 C 
ATOM     16  H   UNL     1      33.625 -23.539 -17.661  0.00  0.00    +0.155 HD
BRANCH  15  17
ATOM     17  C   UNL     1      34.678 -24.043 -15.504  0.00  0.00    +0.151 C 
ATOM     18  C   UNL     1      33.589 -23.883 -14.725  0.00  0.00    +0.126 C 
ATOM     19  C   UNL     1      33.055 -24.902 -13.756  0.00  0.00    +0.072 C 
BRANCH  18  20
ATOM     20  O   UNL     1      32.836 -22.720 -14.782  0.00  0.00    -0.509 OA
ATOM     21  H   UNL     1      33.258 -21.886 -14.710  0.00  0.00    +0.292 HD
ENDBRANCH  18  20
BRANCH  17  23
ATOM     22  N   UNL     1      36.085 -26.216 -15.451  0.00  0.00    -0.191 NA
ATOM     23  C   UNL     1      35.456 -25.241 -15.481  0.00  0.00    +0.108 C 
ENDBRANCH  17  23
ENDBRANCH  15  17
ENDBRANCH   2  14
TORSDOF 5
ENDMDL
MODEL 7
REMARK VINA RESULT:      -9.3      2.390      8.680
REMARK  Name = 54727972
REMARK  5 active torsions:
REMARK  status: ('A' for Active; 'I' for Inactive)
REMARK    1  A    between atoms: C_1  and  C_7
REMARK    2  A    between atoms: C_2  and  N_14
REMARK    3  A    between atoms: C_15  and  C_17
REMARK    4  A    between atoms: C_17  and  C_23
REMARK    5  A    between atoms: C_18  and  O_20
REMARK                            x       y       z     vdW  Elec       q    Type
REMARK                         _______ _______ _______ _____ _____    ______ ____
ROOT
ATOM      1  C   UNL     1      32.407 -10.121 -22.895  0.00  0.00    +0.000 C 
ATOM      2  C   UNL     1      33.183 -12.765 -23.331  0.00  0.00    +0.051 C 
ATOM      3  C   UNL     1      33.410 -10.410 -23.821  0.00  0.00    +0.001 C 
ATOM      4  C   UNL     1      31.793 -11.154 -22.187  0.00  0.00    +0.001 C 
ATOM      5  C   UNL     1      33.798 -11.731 -24.039  0.00  0.00    +0.015 C 
ATOM      6  C   UNL     1      32.181 -12.476 -22.405  0.00  0.00    +0.015 C 
ENDROOT
BRANCH   1   7
ATOM      7  C   UNL     1      32.006  -8.749 -22.671  0.00  0.00    +0.000 C 
ATOM      8  C   UNL     1      31.301  -8.058 -23.656  0.00  0.00    +0.000 C 
ATOM      9  C   UNL     1      32.324  -8.118 -21.468  0.00  0.00    +0.000 C 
ATOM     10  C   UNL     1      30.914  -6.735 -23.440  0.00  0.00    +0.000 C 
ATOM     11  C   UNL     1      31.936  -6.795 -21.252  0.00  0.00    +0.000 C 
ATOM     12  C   UNL     1      31.231  -6.104 -22.237  0.00  0.00    +0.000 C 
ENDBRANCH   1   7
BRANCH   2  14
ATOM     13  O   UNL     1      34.835 -14.602 -21.635  0.00  0.00    -0.269 OA
ATOM     14  N   UNL     1      33.578 -14.107 -23.552  0.00  0.00    -0.280 N 
ATOM     15  C   UNL     1      34.349 -14.909 -22.718  0.00  0.00    +0.262 C 
ATOM     16  H   UNL     1      33.270 -14.519 -24.390  0.00  0.00    +0.155 HD
BRANCH  15  17
ATOM     17  C   UNL     1      34.563 -16.287 -23.287  0.00  0.00    +0.151 C 
ATOM     18  C   UNL     1      34.819 -17.306 -22.442  0.00  0.00    +0.126 C 
ATOM     19  C   UNL     1      35.074 -18.732 -22.849  0.00  0.00    +0.072 C 
BRANCH  18  20
ATOM     20  O   UNL     1      34.845 -17.105 -21.070  0.00  0.00    -0.509 OA
ATOM     21  H   UNL     1      34.693 -16.249 -20.720  0.00  0.00    +0.292 HD
ENDBRANCH  18  20
BRANCH  17  23
ATOM     22  N   UNL     1      34.459 -16.613 -25.853  0.00  0.00    -0.191 NA
ATOM     23  C   UNL     1      34.508 -16.473 -24.702  0.00  0.00    +0.108 C 
ENDBRANCH  17  23
ENDBRANCH  15  17
ENDBRANCH   2  14
TORSDOF 5
ENDMDL
MODEL 8
REMARK VINA RESULT:      -9.2      6.056      9.952
REMARK  Name = 54727972
REMARK  5 active torsions:
REMARK  status: ('A' for Active; 'I' for Inactive)
REMARK    1  A    between atoms: C_1  and  C_7
REMARK    2  A    between atoms: C_2  and  N_14
REMARK    3  A    between atoms: C_15  and  C_17
REMARK    4  A    between atoms: C_17  and  C_23
REMARK    5  A    between atoms: C_18  and  O_20
REMARK                            x       y       z     vdW  Elec       q    Type
REMARK                         _______ _______ _______ _____ _____    ______ ____
ROOT
ATOM      1  C   UNL     1      34.301 -19.304 -21.782  0.00  0.00    +0.000 C 
ATOM      2  C   UNL     1      33.914 -20.884 -19.516  0.00  0.00    +0.051 C 
ATOM      3  C   UNL     1      35.390 -19.922 -21.168  0.00  0.00    +0.001 C 
ATOM      4  C   UNL     1      33.018 -19.477 -21.263  0.00  0.00    +0.001 C 
ATOM      5  C   UNL     1      35.197 -20.711 -20.035  0.00  0.00    +0.015 C 
ATOM      6  C   UNL     1      32.825 -20.267 -20.130  0.00  0.00    +0.015 C 
ENDROOT
BRANCH   1   7
ATOM      7  C   UNL     1      34.503 -18.486 -22.957  0.00  0.00    +0.000 C 
ATOM      8  C   UNL     1      34.781 -17.125 -22.820  0.00  0.00    +0.000 C 
ATOM      9  C   UNL     1      34.422 -19.056 -24.227  0.00  0.00    +0.000 C 
ATOM     10  C   UNL     1      34.975 -16.335 -23.954  0.00  0.00    +0.000 C 
ATOM     11  C   UNL     1      34.618 -18.267 -25.360  0.00  0.00    +0.000 C 
ATOM     12  C   UNL     1      34.895 -16.906 -25.223  0.00  0.00    +0.000 C 
ENDBRANCH   1   7
BRANCH   2  14
ATOM     13  O   UNL     1      33.905 -23.865 -19.213  0.00  0.00    -0.269 OA
ATOM     14  N   UNL     1      33.717 -21.687 -18.365  0.00  0.00    -0.280 N 
ATOM     15  C   UNL     1      33.727 -23.075 -18.292  0.00  0.00    +0.262 C 
ATOM     16  H   UNL     1      33.557 -21.207 -17.521  0.00  0.00    +0.155 HD
BRANCH  15  17
ATOM     17  C   UNL     1      33.481 -23.576 -16.893  0.00  0.00    +0.151 C 
ATOM     18  C   UNL     1      32.264 -23.391 -16.341  0.00  0.00    +0.126 C 
ATOM     19  C   UNL     1      31.865 -23.813 -14.953  0.00  0.00    +0.072 C 
BRANCH  18  20
ATOM     20  O   UNL     1      31.241 -22.789 -17.057  0.00  0.00    -0.509 OA
ATOM     21  H   UNL     1      31.023 -23.100 -17.914  0.00  0.00    +0.292 HD
ENDBRANCH  18  20
BRANCH  17  23
ATOM     22  N   UNL     1      35.412 -24.738 -15.620  0.00  0.00    -0.191 NA
ATOM     23  C   UNL     1      34.545 -24.215 -16.185  0.00  0.00    +0.108 C 
ENDBRANCH  17  23
ENDBRANCH  15  17
ENDBRANCH   2  14
TORSDOF 5
ENDMDL
MODEL 9
REMARK VINA RESULT:      -9.0      3.185      9.118
REMARK  Name = 54727972
REMARK  5 active torsions:
REMARK  status: ('A' for Active; 'I' for Inactive)
REMARK    1  A    between atoms: C_1  and  C_7
REMARK    2  A    between atoms: C_2  and  N_14
REMARK    3  A    between atoms: C_15  and  C_17
REMARK    4  A    between atoms: C_17  and  C_23
REMARK    5  A    between atoms: C_18  and  O_20
REMARK                            x       y       z     vdW  Elec       q    Type
REMARK                         _______ _______ _______ _____ _____    ______ ____
ROOT
ATOM      1  C   UNL     1      32.316  -9.189 -23.118  0.00  0.00    +0.000 C 
ATOM      2  C   UNL     1      33.176 -11.838 -23.278  0.00  0.00    +0.051 C 
ATOM      3  C   UNL     1      31.649 -10.184 -22.403  0.00  0.00    +0.001 C 
ATOM      4  C   UNL     1      33.414  -9.519 -23.912  0.00  0.00    +0.001 C 
ATOM      5  C   UNL     1      32.078 -11.508 -22.483  0.00  0.00    +0.015 C 
ATOM      6  C   UNL     1      33.844 -10.844 -23.992  0.00  0.00    +0.015 C 
ENDROOT
BRANCH   1   7
ATOM      7  C   UNL     1      31.869  -7.816 -23.033  0.00  0.00    +0.000 C 
ATOM      8  C   UNL     1      31.738  -7.200 -21.789  0.00  0.00    +0.000 C 
ATOM      9  C   UNL     1      31.568  -7.108 -24.197  0.00  0.00    +0.000 C 
ATOM     10  C   UNL     1      31.306  -5.876 -21.707  0.00  0.00    +0.000 C 
ATOM     11  C   UNL     1      31.137  -5.784 -24.116  0.00  0.00    +0.000 C 
ATOM     12  C   UNL     1      31.007  -5.168 -22.871  0.00  0.00    +0.000 C 
ENDBRANCH   1   7
BRANCH   2  14
ATOM     13  O   UNL     1      32.607 -13.937 -25.338  0.00  0.00    -0.269 OA
ATOM     14  N   UNL     1      33.613 -13.183 -23.359  0.00  0.00    -0.280 N 
ATOM     15  C   UNL     1      33.311 -14.110 -24.349  0.00  0.00    +0.262 C 
ATOM     16  H   UNL     1      34.197 -13.496 -22.632  0.00  0.00    +0.155 HD
BRANCH  15  17
ATOM     17  C   UNL     1      33.960 -15.447 -24.099  0.00  0.00    +0.151 C 
ATOM     18  C   UNL     1      34.061 -16.321 -25.122  0.00  0.00    +0.126 C 
ATOM     19  C   UNL     1      34.661 -17.698 -25.033  0.00  0.00    +0.072 C 
BRANCH  18  20
ATOM     20  O   UNL     1      33.617 -15.987 -26.392  0.00  0.00    -0.509 OA
ATOM     21  H   UNL     1      33.149 -16.618 -26.904  0.00  0.00    +0.292 HD
ENDBRANCH  18  20
BRANCH  17  23
ATOM     22  N   UNL     1      34.819 -16.020 -21.726  0.00  0.00    -0.191 NA
ATOM     23  C   UNL     1      34.431 -15.758 -22.787  0.00  0.00    +0.108 C 
ENDBRANCH  17  23
ENDBRANCH  15  17
ENDBRANCH   2  14
TORSDOF 5
ENDMDL
