MODEL 1
REMARK VINA RESULT:      -8.6      0.000      0.000
REMARK  Name = 46937075
REMARK  8 active torsions:
REMARK  status: ('A' for Active; 'I' for Inactive)
REMARK    1  A    between atoms: C_1  and  C_4
REMARK    2  A    between atoms: C_1  and  N_8
REMARK    3  A    between atoms: C_1  and  C_17
REMARK    4  A    between atoms: C_9  and  C_11
REMARK    5  A    between atoms: C_17  and  C_18
REMARK    6  A    between atoms: C_18  and  C_19
REMARK    7  A    between atoms: C_19  and  N_20
REMARK    8  A    between atoms: N_20  and  C_22
REMARK                            x       y       z     vdW  Elec       q    Type
REMARK                         _______ _______ _______ _____ _____    ______ ____
ROOT
ATOM      1  C   UNL     1      31.739 -23.358 -16.448  0.00  0.00    +0.149 C 
ENDROOT
BRANCH   1   4
ATOM      2  O   UNL     1      29.643 -22.298 -17.071  0.00  0.00    -0.274 OA
ATOM      3  N   UNL     1      29.571 -24.199 -15.785  0.00  0.00    -0.327 N 
ATOM      4  C   UNL     1      30.225 -23.196 -16.470  0.00  0.00    +0.237 C 
ATOM      5  H   UNL     1      28.588 -24.198 -15.732  0.00  0.00    +0.145 HD
ATOM      6  H   UNL     1      30.087 -24.916 -15.349  0.00  0.00    +0.145 HD
ENDBRANCH   1   4
BRANCH   1   8
ATOM      7  O   UNL     1      33.741 -23.921 -18.427  0.00  0.00    -0.270 OA
ATOM      8  N   UNL     1      32.278 -22.434 -17.413  0.00  0.00    -0.295 N 
ATOM      9  C   UNL     1      33.249 -22.799 -18.335  0.00  0.00    +0.246 C 
ATOM     10  H   UNL     1      31.945 -21.508 -17.418  0.00  0.00    +0.150 HD
BRANCH   9  11
ATOM     11  C   UNL     1      33.721 -21.723 -19.244  0.00  0.00    +0.053 C 
ATOM     12  C   UNL     1      32.800 -20.870 -19.854  0.00  0.00    +0.005 C 
ATOM     13  C   UNL     1      35.085 -21.564 -19.487  0.00  0.00    +0.005 C 
ATOM     14  C   UNL     1      33.244 -19.860 -20.706  0.00  0.00    +0.000 C 
ATOM     15  C   UNL     1      35.529 -20.553 -20.339  0.00  0.00    +0.000 C 
ATOM     16  C   UNL     1      34.608 -19.700 -20.949  0.00  0.00    +0.000 C 
ENDBRANCH   9  11
ENDBRANCH   1   8
BRANCH   1  17
ATOM     17  C   UNL     1      32.283 -23.107 -15.038  0.00  0.00    +0.031 C 
BRANCH  17  18
ATOM     18  C   UNL     1      33.346 -24.138 -14.634  0.00  0.00    +0.026 C 
BRANCH  18  19
ATOM     19  C   UNL     1      34.765 -23.641 -14.892  0.00  0.00    +0.114 C 
BRANCH  19  20
ATOM     20  N   UNL     1      35.511 -24.645 -15.654  0.00  0.00    -0.226 NA
BRANCH  20  22
ATOM     21  N   UNL     1      36.141 -26.915 -15.168  0.00  0.00    -0.389 N 
ATOM     22  C   UNL     1      36.117 -25.555 -14.970  0.00  0.00    +0.095 C 
ATOM     23  C   UNL     1      36.907 -25.066 -13.775  0.00  0.00    +0.068 C 
ATOM     24  H   UNL     1      35.651 -27.311 -15.924  0.00  0.00    +0.157 HD
ATOM     25  H   UNL     1      36.647 -27.494 -14.551  0.00  0.00    +0.157 HD
ENDBRANCH  20  22
ENDBRANCH  19  20
ENDBRANCH  18  19
ENDBRANCH  17  18
ENDBRANCH   1  17
TORSDOF 8
ENDMDL
MODEL 2
REMARK VINA RESULT:      -8.3      6.361     10.411
REMARK  Name = 46937075
REMARK  8 active torsions:
REMARK  status: ('A' for Active; 'I' for Inactive)
REMARK    1  A    between atoms: C_1  and  C_4
REMARK    2  A    between atoms: C_1  and  N_8
REMARK    3  A    between atoms: C_1  and  C_17
REMARK    4  A    between atoms: C_9  and  C_11
REMARK    5  A    between atoms: C_17  and  C_18
REMARK    6  A    between atoms: C_18  and  C_19
REMARK    7  A    between atoms: C_19  and  N_20
REMARK    8  A    between atoms: N_20  and  C_22
REMARK                            x       y       z     vdW  Elec       q    Type
REMARK                         _______ _______ _______ _____ _____    ______ ____
ROOT
ATOM      1  C   UNL     1      34.330 -17.223 -23.583  0.00  0.00    +0.149 C 
ENDROOT
BRANCH   1   4
ATOM      2  O   UNL     1      34.894 -16.913 -25.926  0.00  0.00    -0.274 OA
ATOM      3  N   UNL     1      34.376 -19.027 -25.193  0.00  0.00    -0.327 N 
ATOM      4  C   UNL     1      34.552 -17.669 -25.022  0.00  0.00    +0.237 C 
ATOM      5  H   UNL     1      34.493 -19.429 -26.084  0.00  0.00    +0.145 HD
ATOM      6  H   UNL     1      34.134 -19.593 -24.425  0.00  0.00    +0.145 HD
ENDBRANCH   1   4
BRANCH   1   8
ATOM      7  O   UNL     1      33.349 -17.632 -20.916  0.00  0.00    -0.270 OA
ATOM      8  N   UNL     1      34.576 -18.367 -22.742  0.00  0.00    -0.295 N 
ATOM      9  C   UNL     1      34.057 -18.477 -21.459  0.00  0.00    +0.246 C 
ATOM     10  H   UNL     1      35.133 -19.099 -23.091  0.00  0.00    +0.150 HD
BRANCH   9  11
ATOM     11  C   UNL     1      34.424 -19.706 -20.711  0.00  0.00    +0.053 C 
ATOM     12  C   UNL     1      33.428 -20.509 -20.154  0.00  0.00    +0.005 C 
ATOM     13  C   UNL     1      35.766 -20.058 -20.564  0.00  0.00    +0.005 C 
ATOM     14  C   UNL     1      33.774 -21.663 -19.453  0.00  0.00    +0.000 C 
ATOM     15  C   UNL     1      36.112 -21.213 -19.863  0.00  0.00    +0.000 C 
ATOM     16  C   UNL     1      35.115 -22.016 -19.307  0.00  0.00    +0.000 C 
ENDBRANCH   9  11
ENDBRANCH   1   8
BRANCH   1  17
ATOM     17  C   UNL     1      35.247 -16.044 -23.240  0.00  0.00    +0.031 C 
BRANCH  17  18
ATOM     18  C   UNL     1      34.457 -14.796 -22.824  0.00  0.00    +0.026 C 
BRANCH  18  19
ATOM     19  C   UNL     1      33.205 -14.592 -23.670  0.00  0.00    +0.114 C 
BRANCH  19  20
ATOM     20  N   UNL     1      33.480 -13.633 -24.741  0.00  0.00    -0.226 NA
BRANCH  20  22
ATOM     21  N   UNL     1      32.484 -15.125 -26.345  0.00  0.00    -0.389 N 
ATOM     22  C   UNL     1      33.103 -13.970 -25.928  0.00  0.00    +0.095 C 
ATOM     23  C   UNL     1      33.390 -12.964 -27.022  0.00  0.00    +0.068 C 
ATOM     24  H   UNL     1      32.264 -15.828 -25.693  0.00  0.00    +0.157 HD
ATOM     25  H   UNL     1      32.261 -15.248 -27.297  0.00  0.00    +0.157 HD
ENDBRANCH  20  22
ENDBRANCH  19  20
ENDBRANCH  18  19
ENDBRANCH  17  18
ENDBRANCH   1  17
TORSDOF 8
ENDMDL
MODEL 3
REMARK VINA RESULT:      -8.3      1.177      1.404
REMARK  Name = 46937075
REMARK  8 active torsions:
REMARK  status: ('A' for Active; 'I' for Inactive)
REMARK    1  A    between atoms: C_1  and  C_4
REMARK    2  A    between atoms: C_1  and  N_8
REMARK    3  A    between atoms: C_1  and  C_17
REMARK    4  A    between atoms: C_9  and  C_11
REMARK    5  A    between atoms: C_17  and  C_18
REMARK    6  A    between atoms: C_18  and  C_19
REMARK    7  A    between atoms: C_19  and  N_20
REMARK    8  A    between atoms: N_20  and  C_22
REMARK                            x       y       z     vdW  Elec       q    Type
REMARK                         _______ _______ _______ _____ _____    ______ ____
ROOT
ATOM      1  C   UNL     1      33.153 -23.517 -16.825  0.00  0.00    +0.149 C 
ENDROOT
BRANCH   1   4
ATOM      2  O   UNL     1      30.887 -22.648 -16.961  0.00  0.00    -0.274 OA
ATOM      3  N   UNL     1      31.460 -23.940 -15.150  0.00  0.00    -0.327 N 
ATOM      4  C   UNL     1      31.727 -23.294 -16.340  0.00  0.00    +0.237 C 
ATOM      5  H   UNL     1      30.568 -23.867 -14.741  0.00  0.00    +0.145 HD
ATOM      6  H   UNL     1      32.162 -24.474 -14.711  0.00  0.00    +0.145 HD
ENDBRANCH   1   4
BRANCH   1   8
ATOM      7  O   UNL     1      33.970 -23.705 -19.570  0.00  0.00    -0.270 OA
ATOM      8  N   UNL     1      33.478 -22.422 -17.702  0.00  0.00    -0.295 N 
ATOM      9  C   UNL     1      33.866 -22.611 -19.021  0.00  0.00    +0.246 C 
ATOM     10  H   UNL     1      33.423 -21.504 -17.353  0.00  0.00    +0.150 HD
BRANCH   9  11
ATOM     11  C   UNL     1      34.194 -21.381 -19.787  0.00  0.00    +0.053 C 
ATOM     12  C   UNL     1      33.170 -20.565 -20.270  0.00  0.00    +0.005 C 
ATOM     13  C   UNL     1      35.525 -21.040 -20.023  0.00  0.00    +0.005 C 
ATOM     14  C   UNL     1      33.479 -19.410 -20.987  0.00  0.00    +0.000 C 
ATOM     15  C   UNL     1      35.835 -19.885 -20.740  0.00  0.00    +0.000 C 
ATOM     16  C   UNL     1      34.810 -19.069 -21.222  0.00  0.00    +0.000 C 
ENDBRANCH   9  11
ENDBRANCH   1   8
BRANCH   1  17
ATOM     17  C   UNL     1      34.114 -23.612 -15.635  0.00  0.00    +0.031 C 
BRANCH  17  18
ATOM     18  C   UNL     1      35.503 -23.047 -15.963  0.00  0.00    +0.026 C 
BRANCH  18  19
ATOM     19  C   UNL     1      36.605 -23.696 -15.134  0.00  0.00    +0.114 C 
BRANCH  19  20
ATOM     20  N   UNL     1      36.547 -25.151 -15.283  0.00  0.00    -0.226 NA
BRANCH  20  22
ATOM     21  N   UNL     1      37.786 -26.993 -14.356  0.00  0.00    -0.389 N 
ATOM     22  C   UNL     1      37.024 -25.850 -14.309  0.00  0.00    +0.095 C 
ATOM     23  C   UNL     1      36.693 -25.355 -12.917  0.00  0.00    +0.068 C 
ATOM     24  H   UNL     1      38.043 -27.379 -15.225  0.00  0.00    +0.157 HD
ATOM     25  H   UNL     1      38.074 -27.428 -13.520  0.00  0.00    +0.157 HD
ENDBRANCH  20  22
ENDBRANCH  19  20
ENDBRANCH  18  19
ENDBRANCH  17  18
ENDBRANCH   1  17
TORSDOF 8
ENDMDL
MODEL 4
REMARK VINA RESULT:      -8.2      4.882      7.295
REMARK  Name = 46937075
REMARK  8 active torsions:
REMARK  status: ('A' for Active; 'I' for Inactive)
REMARK    1  A    between atoms: C_1  and  C_4
REMARK    2  A    between atoms: C_1  and  N_8
REMARK    3  A    between atoms: C_1  and  C_17
REMARK    4  A    between atoms: C_9  and  C_11
REMARK    5  A    between atoms: C_17  and  C_18
REMARK    6  A    between atoms: C_18  and  C_19
REMARK    7  A    between atoms: C_19  and  N_20
REMARK    8  A    between atoms: N_20  and  C_22
REMARK                            x       y       z     vdW  Elec       q    Type
REMARK                         _______ _______ _______ _____ _____    ______ ____
ROOT
ATOM      1  C   UNL     1      34.617 -18.544 -20.982  0.00  0.00    +0.149 C 
ENDROOT
BRANCH   1   4
ATOM      2  O   UNL     1      36.523 -18.337 -22.476  0.00  0.00    -0.274 OA
ATOM      3  N   UNL     1      36.816 -19.408 -20.466  0.00  0.00    -0.327 N 
ATOM      4  C   UNL     1      36.062 -18.750 -21.416  0.00  0.00    +0.237 C 
ATOM      5  H   UNL     1      37.767 -19.597 -20.637  0.00  0.00    +0.145 HD
ATOM      6  H   UNL     1      36.404 -19.688 -19.616  0.00  0.00    +0.145 HD
ENDBRANCH   1   4
BRANCH   1   8
ATOM      7  O   UNL     1      34.928 -15.900 -19.905  0.00  0.00    -0.270 OA
ATOM      8  N   UNL     1      34.167 -17.313 -21.580  0.00  0.00    -0.295 N 
ATOM      9  C   UNL     1      34.363 -16.076 -20.982  0.00  0.00    +0.246 C 
ATOM     10  H   UNL     1      33.702 -17.351 -22.446  0.00  0.00    +0.150 HD
BRANCH   9  11
ATOM     11  C   UNL     1      33.815 -14.904 -21.713  0.00  0.00    +0.053 C 
ATOM     12  C   UNL     1      34.364 -14.527 -22.939  0.00  0.00    +0.005 C 
ATOM     13  C   UNL     1      32.750 -14.182 -21.175  0.00  0.00    +0.005 C 
ATOM     14  C   UNL     1      33.848 -13.428 -23.625  0.00  0.00    +0.000 C 
ATOM     15  C   UNL     1      32.234 -13.084 -21.861  0.00  0.00    +0.000 C 
ATOM     16  C   UNL     1      32.783 -12.706 -23.087  0.00  0.00    +0.000 C 
ENDBRANCH   9  11
ENDBRANCH   1   8
BRANCH   1  17
ATOM     17  C   UNL     1      33.756 -19.740 -21.399  0.00  0.00    +0.031 C 
BRANCH  17  18
ATOM     18  C   UNL     1      32.986 -20.343 -20.216  0.00  0.00    +0.026 C 
BRANCH  18  19
ATOM     19  C   UNL     1      33.782 -21.425 -19.495  0.00  0.00    +0.114 C 
BRANCH  19  20
ATOM     20  N   UNL     1      32.867 -22.397 -18.895  0.00  0.00    -0.226 NA
BRANCH  20  22
ATOM     21  N   UNL     1      34.402 -23.041 -17.157  0.00  0.00    -0.389 N 
ATOM     22  C   UNL     1      33.164 -22.813 -17.711  0.00  0.00    +0.095 C 
ATOM     23  C   UNL     1      31.990 -23.106 -16.800  0.00  0.00    +0.068 C 
ATOM     24  H   UNL     1      35.215 -22.874 -17.686  0.00  0.00    +0.157 HD
ATOM     25  H   UNL     1      34.475 -23.371 -16.231  0.00  0.00    +0.157 HD
ENDBRANCH  20  22
ENDBRANCH  19  20
ENDBRANCH  18  19
ENDBRANCH  17  18
ENDBRANCH   1  17
TORSDOF 8
ENDMDL
MODEL 5
REMARK VINA RESULT:      -8.0      6.849     10.725
REMARK  Name = 46937075
REMARK  8 active torsions:
REMARK  status: ('A' for Active; 'I' for Inactive)
REMARK    1  A    between atoms: C_1  and  C_4
REMARK    2  A    between atoms: C_1  and  N_8
REMARK    3  A    between atoms: C_1  and  C_17
REMARK    4  A    between atoms: C_9  and  C_11
REMARK    5  A    between atoms: C_17  and  C_18
REMARK    6  A    between atoms: C_18  and  C_19
REMARK    7  A    between atoms: C_19  and  N_20
REMARK    8  A    between atoms: N_20  and  C_22
REMARK                            x       y       z     vdW  Elec       q    Type
REMARK                         _______ _______ _______ _____ _____    ______ ____
ROOT
ATOM      1  C   UNL     1      33.861 -15.818 -23.767  0.00  0.00    +0.149 C 
ENDROOT
BRANCH   1   4
ATOM      2  O   UNL     1      34.904 -16.771 -25.745  0.00  0.00    -0.274 OA
ATOM      3  N   UNL     1      33.081 -15.401 -26.017  0.00  0.00    -0.327 N 
ATOM      4  C   UNL     1      34.036 -16.049 -25.261  0.00  0.00    +0.237 C 
ATOM      5  H   UNL     1      33.094 -15.478 -26.999  0.00  0.00    +0.145 HD
ATOM      6  H   UNL     1      32.386 -14.861 -25.575  0.00  0.00    +0.145 HD
ENDBRANCH   1   4
BRANCH   1   8
ATOM      7  O   UNL     1      33.418 -16.551 -21.027  0.00  0.00    -0.270 OA
ATOM      8  N   UNL     1      34.376 -16.983 -23.095  0.00  0.00    -0.295 N 
ATOM      9  C   UNL     1      34.108 -17.255 -21.760  0.00  0.00    +0.246 C 
ATOM     10  H   UNL     1      34.941 -17.610 -23.601  0.00  0.00    +0.150 HD
BRANCH   9  11
ATOM     11  C   UNL     1      34.736 -18.483 -21.207  0.00  0.00    +0.053 C 
ATOM     12  C   UNL     1      36.124 -18.569 -21.099  0.00  0.00    +0.005 C 
ATOM     13  C   UNL     1      33.937 -19.549 -20.795  0.00  0.00    +0.005 C 
ATOM     14  C   UNL     1      36.712 -19.721 -20.578  0.00  0.00    +0.000 C 
ATOM     15  C   UNL     1      34.525 -20.701 -20.273  0.00  0.00    +0.000 C 
ATOM     16  C   UNL     1      35.914 -20.788 -20.165  0.00  0.00    +0.000 C 
ENDBRANCH   9  11
ENDBRANCH   1   8
BRANCH   1  17
ATOM     17  C   UNL     1      34.580 -14.534 -23.336  0.00  0.00    +0.031 C 
BRANCH  17  18
ATOM     18  C   UNL     1      33.633 -13.328 -23.284  0.00  0.00    +0.026 C 
BRANCH  18  19
ATOM     19  C   UNL     1      32.309 -13.657 -22.602  0.00  0.00    +0.114 C 
BRANCH  19  20
ATOM     20  N   UNL     1      32.288 -13.082 -21.256  0.00  0.00    -0.226 NA
BRANCH  20  22
ATOM     21  N   UNL     1      30.727 -11.403 -21.986  0.00  0.00    -0.389 N 
ATOM     22  C   UNL     1      31.548 -12.040 -21.085  0.00  0.00    +0.095 C 
ATOM     23  C   UNL     1      31.591 -11.418 -19.706  0.00  0.00    +0.068 C 
ATOM     24  H   UNL     1      30.645 -11.747 -22.905  0.00  0.00    +0.157 HD
ATOM     25  H   UNL     1      30.223 -10.603 -21.713  0.00  0.00    +0.157 HD
ENDBRANCH  20  22
ENDBRANCH  19  20
ENDBRANCH  18  19
ENDBRANCH  17  18
ENDBRANCH   1  17
TORSDOF 8
ENDMDL
MODEL 6
REMARK VINA RESULT:      -8.0      6.401     10.494
REMARK  Name = 46937075
REMARK  8 active torsions:
REMARK  status: ('A' for Active; 'I' for Inactive)
REMARK    1  A    between atoms: C_1  and  C_4
REMARK    2  A    between atoms: C_1  and  N_8
REMARK    3  A    between atoms: C_1  and  C_17
REMARK    4  A    between atoms: C_9  and  C_11
REMARK    5  A    between atoms: C_17  and  C_18
REMARK    6  A    between atoms: C_18  and  C_19
REMARK    7  A    between atoms: C_19  and  N_20
REMARK    8  A    between atoms: N_20  and  C_22
REMARK                            x       y       z     vdW  Elec       q    Type
REMARK                         _______ _______ _______ _____ _____    ______ ____
ROOT
ATOM      1  C   UNL     1      34.882 -16.507 -22.232  0.00  0.00    +0.149 C 
ENDROOT
BRANCH   1   4
ATOM      2  O   UNL     1      34.915 -15.251 -20.152  0.00  0.00    -0.274 OA
ATOM      3  N   UNL     1      34.332 -14.157 -22.085  0.00  0.00    -0.327 N 
ATOM      4  C   UNL     1      34.705 -15.270 -21.362  0.00  0.00    +0.237 C 
ATOM      5  H   UNL     1      34.189 -13.297 -21.626  0.00  0.00    +0.145 HD
ATOM      6  H   UNL     1      34.210 -14.220 -23.060  0.00  0.00    +0.145 HD
ENDBRANCH   1   4
BRANCH   1   8
ATOM      7  O   UNL     1      35.203 -19.259 -22.985  0.00  0.00    -0.270 OA
ATOM      8  N   UNL     1      34.761 -17.654 -21.369  0.00  0.00    -0.295 N 
ATOM      9  C   UNL     1      34.934 -18.953 -21.825  0.00  0.00    +0.246 C 
ATOM     10  H   UNL     1      34.547 -17.510 -20.420  0.00  0.00    +0.150 HD
BRANCH   9  11
ATOM     11  C   UNL     1      34.749 -20.028 -20.816  0.00  0.00    +0.053 C 
ATOM     12  C   UNL     1      35.859 -20.685 -20.284  0.00  0.00    +0.005 C 
ATOM     13  C   UNL     1      33.466 -20.380 -20.400  0.00  0.00    +0.005 C 
ATOM     14  C   UNL     1      35.685 -21.692 -19.336  0.00  0.00    +0.000 C 
ATOM     15  C   UNL     1      33.291 -21.387 -19.451  0.00  0.00    +0.000 C 
ATOM     16  C   UNL     1      34.401 -22.044 -18.919  0.00  0.00    +0.000 C 
ENDBRANCH   9  11
ENDBRANCH   1   8
BRANCH   1  17
ATOM     17  C   UNL     1      33.847 -16.519 -23.362  0.00  0.00    +0.031 C 
BRANCH  17  18
ATOM     18  C   UNL     1      34.495 -16.382 -24.746  0.00  0.00    +0.026 C 
BRANCH  18  19
ATOM     19  C   UNL     1      33.627 -15.591 -25.718  0.00  0.00    +0.114 C 
BRANCH  19  20
ATOM     20  N   UNL     1      33.115 -14.387 -25.060  0.00  0.00    -0.226 NA
BRANCH  20  22
ATOM     21  N   UNL     1      33.808 -12.084 -25.029  0.00  0.00    -0.389 N 
ATOM     22  C   UNL     1      33.403 -13.260 -25.615  0.00  0.00    +0.095 C 
ATOM     23  C   UNL     1      33.267 -13.211 -27.122  0.00  0.00    +0.068 C 
ATOM     24  H   UNL     1      33.920 -12.034 -24.052  0.00  0.00    +0.157 HD
ATOM     25  H   UNL     1      33.986 -11.291 -25.586  0.00  0.00    +0.157 HD
ENDBRANCH  20  22
ENDBRANCH  19  20
ENDBRANCH  18  19
ENDBRANCH  17  18
ENDBRANCH   1  17
TORSDOF 8
ENDMDL
MODEL 7
REMARK VINA RESULT:      -8.0      5.161      7.509
REMARK  Name = 46937075
REMARK  8 active torsions:
REMARK  status: ('A' for Active; 'I' for Inactive)
REMARK    1  A    between atoms: C_1  and  C_4
REMARK    2  A    between atoms: C_1  and  N_8
REMARK    3  A    between atoms: C_1  and  C_17
REMARK    4  A    between atoms: C_9  and  C_11
REMARK    5  A    between atoms: C_17  and  C_18
REMARK    6  A    between atoms: C_18  and  C_19
REMARK    7  A    between atoms: C_19  and  N_20
REMARK    8  A    between atoms: N_20  and  C_22
REMARK                            x       y       z     vdW  Elec       q    Type
REMARK                         _______ _______ _______ _____ _____    ______ ____
ROOT
ATOM      1  C   UNL     1      34.724 -18.410 -21.086  0.00  0.00    +0.149 C 
ENDROOT
BRANCH   1   4
ATOM      2  O   UNL     1      37.066 -19.055 -21.020  0.00  0.00    -0.274 OA
ATOM      3  N   UNL     1      36.219 -18.196 -22.975  0.00  0.00    -0.327 N 
ATOM      4  C   UNL     1      36.126 -18.582 -21.653  0.00  0.00    +0.237 C 
ATOM      5  H   UNL     1      37.080 -18.263 -23.447  0.00  0.00    +0.145 HD
ATOM      6  H   UNL     1      35.424 -17.854 -23.445  0.00  0.00    +0.145 HD
ENDBRANCH   1   4
BRANCH   1   8
ATOM      7  O   UNL     1      34.998 -15.799 -19.923  0.00  0.00    -0.270 OA
ATOM      8  N   UNL     1      34.202 -17.175 -21.613  0.00  0.00    -0.295 N 
ATOM      9  C   UNL     1      34.385 -15.954 -20.977  0.00  0.00    +0.246 C 
ATOM     10  H   UNL     1      33.696 -17.197 -22.456  0.00  0.00    +0.150 HD
BRANCH   9  11
ATOM     11  C   UNL     1      33.761 -14.777 -21.633  0.00  0.00    +0.053 C 
ATOM     12  C   UNL     1      32.688 -14.125 -21.025  0.00  0.00    +0.005 C 
ATOM     13  C   UNL     1      34.248 -14.323 -22.858  0.00  0.00    +0.005 C 
ATOM     14  C   UNL     1      32.104 -13.019 -21.641  0.00  0.00    +0.000 C 
ATOM     15  C   UNL     1      33.665 -13.216 -23.475  0.00  0.00    +0.000 C 
ATOM     16  C   UNL     1      32.592 -12.564 -22.866  0.00  0.00    +0.000 C 
ENDBRANCH   9  11
ENDBRANCH   1   8
BRANCH   1  17
ATOM     17  C   UNL     1      33.847 -19.612 -21.451  0.00  0.00    +0.031 C 
BRANCH  17  18
ATOM     18  C   UNL     1      33.159 -20.223 -20.223  0.00  0.00    +0.026 C 
BRANCH  18  19
ATOM     19  C   UNL     1      33.608 -21.657 -19.959  0.00  0.00    +0.114 C 
BRANCH  19  20
ATOM     20  N   UNL     1      34.467 -21.697 -18.774  0.00  0.00    -0.226 NA
BRANCH  20  22
ATOM     21  N   UNL     1      36.418 -21.760 -20.180  0.00  0.00    -0.389 N 
ATOM     22  C   UNL     1      35.739 -21.725 -18.985  0.00  0.00    +0.095 C 
ATOM     23  C   UNL     1      36.614 -21.732 -17.750  0.00  0.00    +0.068 C 
ATOM     24  H   UNL     1      35.921 -21.759 -21.030  0.00  0.00    +0.157 HD
ATOM     25  H   UNL     1      37.403 -21.788 -20.187  0.00  0.00    +0.157 HD
ENDBRANCH  20  22
ENDBRANCH  19  20
ENDBRANCH  18  19
ENDBRANCH  17  18
ENDBRANCH   1  17
TORSDOF 8
ENDMDL
MODEL 8
REMARK VINA RESULT:      -7.9      9.862     13.321
REMARK  Name = 46937075
REMARK  8 active torsions:
REMARK  status: ('A' for Active; 'I' for Inactive)
REMARK    1  A    between atoms: C_1  and  C_4
REMARK    2  A    between atoms: C_1  and  N_8
REMARK    3  A    between atoms: C_1  and  C_17
REMARK    4  A    between atoms: C_9  and  C_11
REMARK    5  A    between atoms: C_17  and  C_18
REMARK    6  A    between atoms: C_18  and  C_19
REMARK    7  A    between atoms: C_19  and  N_20
REMARK    8  A    between atoms: N_20  and  C_22
REMARK                            x       y       z     vdW  Elec       q    Type
REMARK                         _______ _______ _______ _____ _____    ______ ____
ROOT
ATOM      1  C   UNL     1      33.778 -11.291 -24.441  0.00  0.00    +0.149 C 
ENDROOT
BRANCH   1   4
ATOM      2  O   UNL     1      33.750 -12.243 -26.676  0.00  0.00    -0.274 OA
ATOM      3  N   UNL     1      35.302 -10.620 -26.194  0.00  0.00    -0.327 N 
ATOM      4  C   UNL     1      34.260 -11.466 -25.874  0.00  0.00    +0.237 C 
ATOM      5  H   UNL     1      35.696 -10.644 -27.096  0.00  0.00    +0.145 HD
ATOM      6  H   UNL     1      35.651  -9.991 -25.521  0.00  0.00    +0.145 HD
ENDBRANCH   1   4
BRANCH   1   8
ATOM      7  O   UNL     1      32.077 -13.321 -23.332  0.00  0.00    -0.270 OA
ATOM      8  N   UNL     1      34.197 -12.457 -23.707  0.00  0.00    -0.295 N 
ATOM      9  C   UNL     1      33.297 -13.388 -23.206  0.00  0.00    +0.246 C 
ATOM     10  H   UNL     1      35.158 -12.600 -23.555  0.00  0.00    +0.150 HD
BRANCH   9  11
ATOM     11  C   UNL     1      33.887 -14.522 -22.448  0.00  0.00    +0.053 C 
ATOM     12  C   UNL     1      34.507 -15.570 -23.130  0.00  0.00    +0.005 C 
ATOM     13  C   UNL     1      33.821 -14.539 -21.055  0.00  0.00    +0.005 C 
ATOM     14  C   UNL     1      35.061 -16.633 -22.417  0.00  0.00    +0.000 C 
ATOM     15  C   UNL     1      34.376 -15.601 -20.343  0.00  0.00    +0.000 C 
ATOM     16  C   UNL     1      34.996 -16.649 -21.024  0.00  0.00    +0.000 C 
ENDBRANCH   9  11
ENDBRANCH   1   8
BRANCH   1  17
ATOM     17  C   UNL     1      34.337  -9.996 -23.841  0.00  0.00    +0.031 C 
BRANCH  17  18
ATOM     18  C   UNL     1      33.237  -8.967 -23.550  0.00  0.00    +0.026 C 
BRANCH  18  19
ATOM     19  C   UNL     1      31.975  -9.610 -22.985  0.00  0.00    +0.114 C 
BRANCH  19  20
ATOM     20  N   UNL     1      32.097  -9.749 -21.533  0.00  0.00    -0.226 NA
BRANCH  20  22
ATOM     21  N   UNL     1      30.497 -11.546 -21.560  0.00  0.00    -0.389 N 
ATOM     22  C   UNL     1      31.394 -10.680 -20.981  0.00  0.00    +0.095 C 
ATOM     23  C   UNL     1      31.566 -10.839 -19.486  0.00  0.00    +0.068 C 
ATOM     24  H   UNL     1      30.330 -11.506 -22.530  0.00  0.00    +0.157 HD
ATOM     25  H   UNL     1      30.022 -12.207 -21.006  0.00  0.00    +0.157 HD
ENDBRANCH  20  22
ENDBRANCH  19  20
ENDBRANCH  18  19
ENDBRANCH  17  18
ENDBRANCH   1  17
TORSDOF 8
ENDMDL
MODEL 9
REMARK VINA RESULT:      -7.9     10.563     14.065
REMARK  Name = 46937075
REMARK  8 active torsions:
REMARK  status: ('A' for Active; 'I' for Inactive)
REMARK    1  A    between atoms: C_1  and  C_4
REMARK    2  A    between atoms: C_1  and  N_8
REMARK    3  A    between atoms: C_1  and  C_17
REMARK    4  A    between atoms: C_9  and  C_11
REMARK    5  A    between atoms: C_17  and  C_18
REMARK    6  A    between atoms: C_18  and  C_19
REMARK    7  A    between atoms: C_19  and  N_20
REMARK    8  A    between atoms: N_20  and  C_22
REMARK                            x       y       z     vdW  Elec       q    Type
REMARK                         _______ _______ _______ _____ _____    ______ ____
ROOT
ATOM      1  C   UNL     1      33.583 -10.871 -24.317  0.00  0.00    +0.149 C 
ENDROOT
BRANCH   1   4
ATOM      2  O   UNL     1      35.171  -9.109 -23.788  0.00  0.00    -0.274 OA
ATOM      3  N   UNL     1      35.617 -10.490 -25.568  0.00  0.00    -0.327 N 
ATOM      4  C   UNL     1      34.846 -10.045 -24.514  0.00  0.00    +0.237 C 
ATOM      5  H   UNL     1      36.459 -10.032 -25.790  0.00  0.00    +0.145 HD
ATOM      6  H   UNL     1      35.325 -11.268 -26.098  0.00  0.00    +0.145 HD
ENDBRANCH   1   4
BRANCH   1   8
ATOM      7  O   UNL     1      33.294 -13.605 -25.145  0.00  0.00    -0.270 OA
ATOM      8  N   UNL     1      33.955 -12.042 -23.564  0.00  0.00    -0.295 N 
ATOM      9  C   UNL     1      33.776 -13.330 -24.049  0.00  0.00    +0.246 C 
ATOM     10  H   UNL     1      34.352 -11.923 -22.671  0.00  0.00    +0.150 HD
BRANCH   9  11
ATOM     11  C   UNL     1      34.186 -14.431 -23.139  0.00  0.00    +0.053 C 
ATOM     12  C   UNL     1      34.038 -14.288 -21.759  0.00  0.00    +0.005 C 
ATOM     13  C   UNL     1      34.718 -15.608 -23.665  0.00  0.00    +0.005 C 
ATOM     14  C   UNL     1      34.422 -15.323 -20.906  0.00  0.00    +0.000 C 
ATOM     15  C   UNL     1      35.101 -16.643 -22.813  0.00  0.00    +0.000 C 
ATOM     16  C   UNL     1      34.953 -16.500 -21.432  0.00  0.00    +0.000 C 
ENDBRANCH   9  11
ENDBRANCH   1   8
BRANCH   1  17
ATOM     17  C   UNL     1      32.506 -10.043 -23.607  0.00  0.00    +0.031 C 
BRANCH  17  18
ATOM     18  C   UNL     1      31.989 -10.730 -22.336  0.00  0.00    +0.026 C 
BRANCH  18  19
ATOM     19  C   UNL     1      31.788  -9.749 -21.186  0.00  0.00    +0.114 C 
BRANCH  19  20
ATOM     20  N   UNL     1      31.888  -8.375 -21.683  0.00  0.00    -0.226 NA
BRANCH  20  22
ATOM     21  N   UNL     1      32.985  -7.645 -19.670  0.00  0.00    -0.389 N 
ATOM     22  C   UNL     1      32.275  -7.483 -20.836  0.00  0.00    +0.095 C 
ATOM     23  C   UNL     1      31.887  -6.055 -21.158  0.00  0.00    +0.068 C 
ATOM     24  H   UNL     1      33.275  -8.544 -19.391  0.00  0.00    +0.157 HD
ATOM     25  H   UNL     1      33.205  -6.862 -19.114  0.00  0.00    +0.157 HD
ENDBRANCH  20  22
ENDBRANCH  19  20
ENDBRANCH  18  19
ENDBRANCH  17  18
ENDBRANCH   1  17
TORSDOF 8
ENDMDL
