MODEL 1
REMARK VINA RESULT:      -8.4      0.000      0.000
REMARK  Name = 31315
REMARK  4 active torsions:
REMARK  status: ('A' for Active; 'I' for Inactive)
REMARK    1  A    between atoms: C_3  and  C_12
REMARK    2  A    between atoms: C_3  and  C_20
REMARK    3  A    between atoms: C_17  and  O_18
REMARK    4  A    between atoms: C_25  and  O_26
REMARK                            x       y       z     vdW  Elec       q    Type
REMARK                         _______ _______ _______ _____ _____    ______ ____
ROOT
ATOM      1  O   UNL     1      35.342 -26.265 -16.212  0.00  0.00    -0.274 OA
ATOM      2  N   UNL     1      36.720 -26.097 -14.325  0.00  0.00    -0.283 N 
ATOM      3  C   UNL     1      35.401 -24.162 -14.870  0.00  0.00    +0.126 C 
ATOM      4  C   UNL     1      36.281 -23.968 -13.634  0.00  0.00    +0.006 C 
ATOM      5  C   UNL     1      35.788 -25.640 -15.259  0.00  0.00    +0.237 C 
ATOM      6  C   UNL     1      37.013 -25.126 -13.379  0.00  0.00    +0.047 C 
ATOM      7  C   UNL     1      36.435 -22.860 -12.813  0.00  0.00    -0.002 C 
ATOM      8  C   UNL     1      37.898 -25.237 -12.324  0.00  0.00    +0.014 C 
ATOM      9  C   UNL     1      37.326 -22.945 -11.738  0.00  0.00    -0.000 C 
ATOM     10  C   UNL     1      38.051 -24.125 -11.495  0.00  0.00    +0.001 C 
ATOM     11  H   UNL     1      37.119 -26.997 -14.336  0.00  0.00    +0.155 HD
ENDROOT
BRANCH   3  12
ATOM     12  C   UNL     1      35.766 -23.237 -15.983  0.00  0.00    -0.007 C 
ATOM     13  C   UNL     1      36.981 -22.554 -15.950  0.00  0.00    -0.000 C 
ATOM     14  C   UNL     1      34.893 -23.058 -17.055  0.00  0.00    -0.000 C 
ATOM     15  C   UNL     1      37.323 -21.690 -16.991  0.00  0.00    +0.036 C 
ATOM     16  C   UNL     1      35.235 -22.194 -18.096  0.00  0.00    +0.036 C 
ATOM     17  C   UNL     1      36.450 -21.510 -18.064  0.00  0.00    +0.134 C 
BRANCH  17  18
ATOM     18  O   UNL     1      36.784 -20.667 -19.078  0.00  0.00    -0.506 OA
ATOM     19  H   UNL     1      36.712 -20.951 -19.967  0.00  0.00    +0.292 HD
ENDBRANCH  17  18
ENDBRANCH   3  12
BRANCH   3  20
ATOM     20  C   UNL     1      33.946 -24.089 -14.553  0.00  0.00    -0.007 C 
ATOM     21  C   UNL     1      33.198 -22.988 -14.967  0.00  0.00    -0.000 C 
ATOM     22  C   UNL     1      33.334 -25.121 -13.842  0.00  0.00    -0.000 C 
ATOM     23  C   UNL     1      31.836 -22.919 -14.671  0.00  0.00    +0.036 C 
ATOM     24  C   UNL     1      31.973 -25.053 -13.546  0.00  0.00    +0.036 C 
ATOM     25  C   UNL     1      31.224 -23.951 -13.960  0.00  0.00    +0.134 C 
BRANCH  25  26
ATOM     26  O   UNL     1      29.896 -23.884 -13.672  0.00  0.00    -0.506 OA
ATOM     27  H   UNL     1      29.566 -23.186 -13.141  0.00  0.00    +0.292 HD
ENDBRANCH  25  26
ENDBRANCH   3  20
TORSDOF 4
ENDMDL
MODEL 2
REMARK VINA RESULT:      -6.0      1.801      5.071
REMARK  Name = 31315
REMARK  4 active torsions:
REMARK  status: ('A' for Active; 'I' for Inactive)
REMARK    1  A    between atoms: C_3  and  C_12
REMARK    2  A    between atoms: C_3  and  C_20
REMARK    3  A    between atoms: C_17  and  O_18
REMARK    4  A    between atoms: C_25  and  O_26
REMARK                            x       y       z     vdW  Elec       q    Type
REMARK                         _______ _______ _______ _____ _____    ______ ____
ROOT
ATOM      1  O   UNL     1      35.696 -26.200 -15.872  0.00  0.00    -0.274 OA
ATOM      2  N   UNL     1      33.539 -25.967 -14.988  0.00  0.00    -0.283 N 
ATOM      3  C   UNL     1      34.904 -23.988 -15.032  0.00  0.00    +0.126 C 
ATOM      4  C   UNL     1      33.517 -23.755 -14.431  0.00  0.00    +0.006 C 
ATOM      5  C   UNL     1      34.809 -25.526 -15.367  0.00  0.00    +0.237 C 
ATOM      6  C   UNL     1      32.785 -24.941 -14.439  0.00  0.00    +0.047 C 
ATOM      7  C   UNL     1      32.954 -22.600 -13.906  0.00  0.00    -0.002 C 
ATOM      8  C   UNL     1      31.496 -25.030 -13.949  0.00  0.00    +0.014 C 
ATOM      9  C   UNL     1      31.650 -22.663 -13.403  0.00  0.00    -0.000 C 
ATOM     10  C   UNL     1      30.926 -23.869 -13.426  0.00  0.00    +0.001 C 
ATOM     11  H   UNL     1      33.219 -26.892 -15.097  0.00  0.00    +0.155 HD
ENDROOT
BRANCH   3  12
ATOM     12  C   UNL     1      36.001 -23.755 -14.048  0.00  0.00    -0.007 C 
ATOM     13  C   UNL     1      35.699 -23.307 -12.763  0.00  0.00    -0.000 C 
ATOM     14  C   UNL     1      37.326 -23.986 -14.414  0.00  0.00    -0.000 C 
ATOM     15  C   UNL     1      36.725 -23.090 -11.842  0.00  0.00    +0.036 C 
ATOM     16  C   UNL     1      38.352 -23.769 -13.493  0.00  0.00    +0.036 C 
ATOM     17  C   UNL     1      38.051 -23.321 -12.207  0.00  0.00    +0.134 C 
BRANCH  17  18
ATOM     18  O   UNL     1      39.050 -23.107 -11.309  0.00  0.00    -0.506 OA
ATOM     19  H   UNL     1      38.936 -23.354 -10.413  0.00  0.00    +0.292 HD
ENDBRANCH  17  18
ENDBRANCH   3  12
BRANCH   3  20
ATOM     20  C   UNL     1      35.120 -23.211 -16.286  0.00  0.00    -0.007 C 
ATOM     21  C   UNL     1      34.125 -23.171 -17.261  0.00  0.00    -0.000 C 
ATOM     22  C   UNL     1      36.319 -22.525 -16.484  0.00  0.00    -0.000 C 
ATOM     23  C   UNL     1      34.326 -22.443 -18.434  0.00  0.00    +0.036 C 
ATOM     24  C   UNL     1      36.521 -21.797 -17.656  0.00  0.00    +0.036 C 
ATOM     25  C   UNL     1      35.524 -21.757 -18.632  0.00  0.00    +0.134 C 
BRANCH  25  26
ATOM     26  O   UNL     1      35.721 -21.047 -19.777  0.00  0.00    -0.506 OA
ATOM     27  H   UNL     1      36.548 -21.085 -20.216  0.00  0.00    +0.292 HD
ENDBRANCH  25  26
ENDBRANCH   3  20
TORSDOF 4
ENDMDL
MODEL 3
REMARK VINA RESULT:      -5.9      1.750      5.128
REMARK  Name = 31315
REMARK  4 active torsions:
REMARK  status: ('A' for Active; 'I' for Inactive)
REMARK    1  A    between atoms: C_3  and  C_12
REMARK    2  A    between atoms: C_3  and  C_20
REMARK    3  A    between atoms: C_17  and  O_18
REMARK    4  A    between atoms: C_25  and  O_26
REMARK                            x       y       z     vdW  Elec       q    Type
REMARK                         _______ _______ _______ _____ _____    ______ ____
ROOT
ATOM      1  O   UNL     1      35.143 -21.645 -13.941  0.00  0.00    -0.274 OA
ATOM      2  N   UNL     1      36.596 -23.448 -13.590  0.00  0.00    -0.283 N 
ATOM      3  C   UNL     1      34.951 -23.713 -15.324  0.00  0.00    +0.126 C 
ATOM      4  C   UNL     1      35.851 -24.937 -15.150  0.00  0.00    +0.006 C 
ATOM      5  C   UNL     1      35.543 -22.770 -14.207  0.00  0.00    +0.237 C 
ATOM      6  C   UNL     1      36.777 -24.711 -14.133  0.00  0.00    +0.047 C 
ATOM      7  C   UNL     1      35.846 -26.152 -15.821  0.00  0.00    -0.002 C 
ATOM      8  C   UNL     1      37.716 -25.651 -13.752  0.00  0.00    +0.014 C 
ATOM      9  C   UNL     1      36.786 -27.120 -15.454  0.00  0.00    -0.000 C 
ATOM     10  C   UNL     1      37.715 -26.871 -14.429  0.00  0.00    +0.001 C 
ATOM     11  H   UNL     1      37.142 -23.076 -12.860  0.00  0.00    +0.155 HD
ENDROOT
BRANCH   3  12
ATOM     12  C   UNL     1      33.519 -24.009 -15.025  0.00  0.00    -0.007 C 
ATOM     13  C   UNL     1      33.190 -24.873 -13.982  0.00  0.00    -0.000 C 
ATOM     14  C   UNL     1      32.512 -23.420 -15.789  0.00  0.00    -0.000 C 
ATOM     15  C   UNL     1      31.851 -25.149 -13.702  0.00  0.00    +0.036 C 
ATOM     16  C   UNL     1      31.174 -23.697 -15.509  0.00  0.00    +0.036 C 
ATOM     17  C   UNL     1      30.843 -24.561 -14.465  0.00  0.00    +0.134 C 
BRANCH  17  18
ATOM     18  O   UNL     1      29.538 -24.832 -14.192  0.00  0.00    -0.506 OA
ATOM     19  H   UNL     1      28.888 -24.725 -14.858  0.00  0.00    +0.292 HD
ENDBRANCH  17  18
ENDBRANCH   3  12
BRANCH   3  20
ATOM     20  C   UNL     1      35.110 -23.072 -16.661  0.00  0.00    -0.007 C 
ATOM     21  C   UNL     1      34.109 -23.208 -17.622  0.00  0.00    -0.000 C 
ATOM     22  C   UNL     1      36.260 -22.338 -16.951  0.00  0.00    -0.000 C 
ATOM     23  C   UNL     1      34.256 -22.609 -18.872  0.00  0.00    +0.036 C 
ATOM     24  C   UNL     1      36.408 -21.738 -18.201  0.00  0.00    +0.036 C 
ATOM     25  C   UNL     1      35.406 -21.874 -19.162  0.00  0.00    +0.134 C 
BRANCH  25  26
ATOM     26  O   UNL     1      35.550 -21.289 -20.383  0.00  0.00    -0.506 OA
ATOM     27  H   UNL     1      34.966 -20.605 -20.647  0.00  0.00    +0.292 HD
ENDBRANCH  25  26
ENDBRANCH   3  20
TORSDOF 4
ENDMDL
MODEL 4
REMARK VINA RESULT:      -5.7     15.331     18.136
REMARK  Name = 31315
REMARK  4 active torsions:
REMARK  status: ('A' for Active; 'I' for Inactive)
REMARK    1  A    between atoms: C_3  and  C_12
REMARK    2  A    between atoms: C_3  and  C_20
REMARK    3  A    between atoms: C_17  and  O_18
REMARK    4  A    between atoms: C_25  and  O_26
REMARK                            x       y       z     vdW  Elec       q    Type
REMARK                         _______ _______ _______ _____ _____    ______ ____
ROOT
ATOM      1  O   UNL     1      34.580  -7.126 -21.276  0.00  0.00    -0.274 OA
ATOM      2  N   UNL     1      33.196  -8.634 -20.137  0.00  0.00    -0.283 N 
ATOM      3  C   UNL     1      32.782  -8.360 -22.489  0.00  0.00    +0.126 C 
ATOM      4  C   UNL     1      31.830  -9.350 -21.817  0.00  0.00    +0.006 C 
ATOM      5  C   UNL     1      33.659  -7.931 -21.251  0.00  0.00    +0.237 C 
ATOM      6  C   UNL     1      32.130  -9.458 -20.460  0.00  0.00    +0.047 C 
ATOM      7  C   UNL     1      30.780 -10.083 -22.352  0.00  0.00    -0.002 C 
ATOM      8  C   UNL     1      31.426 -10.280 -19.600  0.00  0.00    +0.014 C 
ATOM      9  C   UNL     1      30.051 -10.922 -21.503  0.00  0.00    -0.000 C 
ATOM     10  C   UNL     1      30.373 -11.021 -20.138  0.00  0.00    +0.001 C 
ATOM     11  H   UNL     1      33.580  -8.554 -19.233  0.00  0.00    +0.155 HD
ENDROOT
BRANCH   3  12
ATOM     12  C   UNL     1      32.072  -7.168 -23.039  0.00  0.00    -0.007 C 
ATOM     13  C   UNL     1      31.924  -6.023 -22.258  0.00  0.00    -0.000 C 
ATOM     14  C   UNL     1      31.559  -7.200 -24.335  0.00  0.00    -0.000 C 
ATOM     15  C   UNL     1      31.262  -4.908 -22.772  0.00  0.00    +0.036 C 
ATOM     16  C   UNL     1      30.897  -6.085 -24.850  0.00  0.00    +0.036 C 
ATOM     17  C   UNL     1      30.748  -4.939 -24.069  0.00  0.00    +0.134 C 
BRANCH  17  18
ATOM     18  O   UNL     1      30.101  -3.853 -24.570  0.00  0.00    -0.506 OA
ATOM     19  H   UNL     1      30.108  -3.044 -24.097  0.00  0.00    +0.292 HD
ENDBRANCH  17  18
ENDBRANCH   3  12
BRANCH   3  20
ATOM     20  C   UNL     1      33.645  -9.006 -23.519  0.00  0.00    -0.007 C 
ATOM     21  C   UNL     1      33.496 -10.362 -23.802  0.00  0.00    -0.000 C 
ATOM     22  C   UNL     1      34.603  -8.252 -24.199  0.00  0.00    -0.000 C 
ATOM     23  C   UNL     1      34.302 -10.967 -24.766  0.00  0.00    +0.036 C 
ATOM     24  C   UNL     1      35.410  -8.856 -25.163  0.00  0.00    +0.036 C 
ATOM     25  C   UNL     1      35.259 -10.213 -25.446  0.00  0.00    +0.134 C 
BRANCH  25  26
ATOM     26  O   UNL     1      36.047 -10.804 -26.387  0.00  0.00    -0.506 OA
ATOM     27  H   UNL     1      36.963 -10.915 -26.228  0.00  0.00    +0.292 HD
ENDBRANCH  25  26
ENDBRANCH   3  20
TORSDOF 4
ENDMDL
