MODEL 1
REMARK VINA RESULT:      -8.3      0.000      0.000
REMARK  Name = 5340
REMARK  3 active torsions:
REMARK  status: ('A' for Active; 'I' for Inactive)
REMARK    1  A    between atoms: S_1  and  N_5
REMARK    2  A    between atoms: S_1  and  C_11
REMARK    3  A    between atoms: C_14  and  N_17
REMARK                            x       y       z     vdW  Elec       q    Type
REMARK                         _______ _______ _______ _____ _____    ______ ____
ROOT
ATOM      1  S   UNL     1      33.904 -22.867 -18.401  0.00  0.00    +0.075 S 
ATOM      2  O   UNL     1      34.952 -22.783 -17.392  0.00  0.00    -0.150 OA
ATOM      3  O   UNL     1      33.795 -24.081 -19.201  0.00  0.00    -0.150 OA
ENDROOT
BRANCH   1   5
ATOM      4  S   UNL     1      30.508 -23.800 -16.029  0.00  0.00    -0.050 S 
ATOM      5  N   UNL     1      32.395 -22.547 -17.632  0.00  0.00    -0.194 N 
ATOM      6  N   UNL     1      33.019 -23.498 -15.493  0.00  0.00    -0.221 NA
ATOM      7  C   UNL     1      32.097 -23.242 -16.409  0.00  0.00    +0.179 C 
ATOM      8  C   UNL     1      31.093 -24.427 -14.543  0.00  0.00    +0.059 C 
ATOM      9  C   UNL     1      32.444 -24.172 -14.433  0.00  0.00    +0.108 C 
ATOM     10  H   UNL     1      31.756 -21.907 -18.020  0.00  0.00    +0.176 HD
ENDBRANCH   1   5
BRANCH   1  11
ATOM     11  C   UNL     1      34.088 -21.504 -19.476  0.00  0.00    +0.125 C 
ATOM     12  C   UNL     1      32.962 -20.808 -19.917  0.00  0.00    +0.021 C 
ATOM     13  C   UNL     1      35.359 -21.113 -19.897  0.00  0.00    +0.021 C 
ATOM     14  C   UNL     1      34.379 -19.327 -21.197  0.00  0.00    +0.042 C 
ATOM     15  C   UNL     1      33.108 -19.719 -20.777  0.00  0.00    +0.015 C 
ATOM     16  C   UNL     1      35.505 -20.024 -20.756  0.00  0.00    +0.015 C 
BRANCH  14  17
ATOM     17  N   UNL     1      34.527 -18.226 -22.065  0.00  0.00    -0.357 N 
ATOM     18  H   UNL     1      33.736 -17.830 -22.498  0.00  0.00    +0.142 HD
ATOM     19  H   UNL     1      35.422 -17.851 -22.237  0.00  0.00    +0.142 HD
ENDBRANCH  14  17
ENDBRANCH   1  11
TORSDOF 3
ENDMDL
MODEL 2
REMARK VINA RESULT:      -8.2      4.162      7.590
REMARK  Name = 5340
REMARK  3 active torsions:
REMARK  status: ('A' for Active; 'I' for Inactive)
REMARK    1  A    between atoms: S_1  and  N_5
REMARK    2  A    between atoms: S_1  and  C_11
REMARK    3  A    between atoms: C_14  and  N_17
REMARK                            x       y       z     vdW  Elec       q    Type
REMARK                         _______ _______ _______ _____ _____    ______ ____
ROOT
ATOM      1  S   UNL     1      35.110 -18.809 -21.868  0.00  0.00    +0.075 S 
ATOM      2  O   UNL     1      34.602 -19.215 -23.172  0.00  0.00    -0.150 OA
ATOM      3  O   UNL     1      36.522 -18.471 -21.739  0.00  0.00    -0.150 OA
ENDROOT
BRANCH   1   5
ATOM      4  S   UNL     1      34.135 -14.718 -21.282  0.00  0.00    -0.050 S 
ATOM      5  N   UNL     1      34.149 -17.493 -21.306  0.00  0.00    -0.194 N 
ATOM      6  N   UNL     1      34.251 -16.233 -23.373  0.00  0.00    -0.221 NA
ATOM      7  C   UNL     1      34.183 -16.263 -22.051  0.00  0.00    +0.179 C 
ATOM      8  C   UNL     1      34.212 -13.960 -22.819  0.00  0.00    +0.059 C 
ATOM      9  C   UNL     1      34.267 -14.921 -23.806  0.00  0.00    +0.108 C 
ATOM     10  H   UNL     1      33.594 -17.581 -20.499  0.00  0.00    +0.176 HD
ENDBRANCH   1   5
BRANCH   1  11
ATOM     11  C   UNL     1      34.732 -20.078 -20.730  0.00  0.00    +0.125 C 
ATOM     12  C   UNL     1      33.405 -20.329 -20.381  0.00  0.00    +0.021 C 
ATOM     13  C   UNL     1      35.757 -20.839 -20.168  0.00  0.00    +0.021 C 
ATOM     14  C   UNL     1      34.127 -22.105 -18.910  0.00  0.00    +0.042 C 
ATOM     15  C   UNL     1      33.102 -21.342 -19.471  0.00  0.00    +0.015 C 
ATOM     16  C   UNL     1      35.455 -21.853 -19.259  0.00  0.00    +0.015 C 
BRANCH  14  17
ATOM     17  N   UNL     1      33.822 -23.129 -17.991  0.00  0.00    -0.357 N 
ATOM     18  H   UNL     1      33.688 -24.052 -18.309  0.00  0.00    +0.142 HD
ATOM     19  H   UNL     1      33.745 -22.923 -17.031  0.00  0.00    +0.142 HD
ENDBRANCH  14  17
ENDBRANCH   1  11
TORSDOF 3
ENDMDL
MODEL 3
REMARK VINA RESULT:      -7.9      2.059      2.687
REMARK  Name = 5340
REMARK  3 active torsions:
REMARK  status: ('A' for Active; 'I' for Inactive)
REMARK    1  A    between atoms: S_1  and  N_5
REMARK    2  A    between atoms: S_1  and  C_11
REMARK    3  A    between atoms: C_14  and  N_17
REMARK                            x       y       z     vdW  Elec       q    Type
REMARK                         _______ _______ _______ _____ _____    ______ ____
ROOT
ATOM      1  S   UNL     1      33.893 -22.567 -18.723  0.00  0.00    +0.075 S 
ATOM      2  O   UNL     1      34.016 -23.758 -19.552  0.00  0.00    -0.150 OA
ATOM      3  O   UNL     1      32.686 -22.386 -17.927  0.00  0.00    -0.150 OA
ENDROOT
BRANCH   1   5
ATOM      4  S   UNL     1      35.937 -22.458 -15.003  0.00  0.00    -0.050 S 
ATOM      5  N   UNL     1      35.276 -22.484 -17.698  0.00  0.00    -0.194 N 
ATOM      6  N   UNL     1      34.587 -24.287 -16.233  0.00  0.00    -0.221 NA
ATOM      7  C   UNL     1      35.209 -23.132 -16.416  0.00  0.00    +0.179 C 
ATOM      8  C   UNL     1      35.382 -23.799 -14.088  0.00  0.00    +0.059 C 
ATOM      9  C   UNL     1      34.688 -24.663 -14.908  0.00  0.00    +0.108 C 
ATOM     10  H   UNL     1      36.089 -22.007 -17.983  0.00  0.00    +0.176 HD
ENDBRANCH   1   5
BRANCH   1  11
ATOM     11  C   UNL     1      34.093 -21.174 -19.757  0.00  0.00    +0.125 C 
ATOM     12  C   UNL     1      35.371 -20.776 -20.150  0.00  0.00    +0.021 C 
ATOM     13  C   UNL     1      32.976 -20.459 -20.188  0.00  0.00    +0.021 C 
ATOM     14  C   UNL     1      34.415 -18.948 -21.408  0.00  0.00    +0.042 C 
ATOM     15  C   UNL     1      35.532 -19.663 -20.975  0.00  0.00    +0.015 C 
ATOM     16  C   UNL     1      33.137 -19.346 -21.014  0.00  0.00    +0.015 C 
BRANCH  14  17
ATOM     17  N   UNL     1      34.577 -17.824 -22.243  0.00  0.00    -0.357 N 
ATOM     18  H   UNL     1      33.810 -17.236 -22.433  0.00  0.00    +0.142 HD
ATOM     19  H   UNL     1      35.458 -17.625 -22.635  0.00  0.00    +0.142 HD
ENDBRANCH  14  17
ENDBRANCH   1  11
TORSDOF 3
ENDMDL
MODEL 4
REMARK VINA RESULT:      -7.8      4.405      6.123
REMARK  Name = 5340
REMARK  3 active torsions:
REMARK  status: ('A' for Active; 'I' for Inactive)
REMARK    1  A    between atoms: S_1  and  N_5
REMARK    2  A    between atoms: S_1  and  C_11
REMARK    3  A    between atoms: C_14  and  N_17
REMARK                            x       y       z     vdW  Elec       q    Type
REMARK                         _______ _______ _______ _____ _____    ______ ____
ROOT
ATOM      1  S   UNL     1      35.278 -18.466 -22.701  0.00  0.00    +0.075 S 
ATOM      2  O   UNL     1      36.634 -18.296 -22.197  0.00  0.00    -0.150 OA
ATOM      3  O   UNL     1      35.038 -19.444 -23.755  0.00  0.00    -0.150 OA
ENDROOT
BRANCH   1   5
ATOM      4  S   UNL     1      33.279 -20.946 -19.894  0.00  0.00    -0.050 S 
ATOM      5  N   UNL     1      34.247 -18.798 -21.361  0.00  0.00    -0.194 N 
ATOM      6  N   UNL     1      35.764 -20.350 -20.282  0.00  0.00    -0.221 NA
ATOM      7  C   UNL     1      34.529 -19.960 -20.561  0.00  0.00    +0.179 C 
ATOM      8  C   UNL     1      34.468 -21.961 -19.188  0.00  0.00    +0.059 C 
ATOM      9  C   UNL     1      35.725 -21.489 -19.501  0.00  0.00    +0.108 C 
ATOM     10  H   UNL     1      33.487 -18.210 -21.149  0.00  0.00    +0.176 HD
ENDBRANCH   1   5
BRANCH   1  11
ATOM     11  C   UNL     1      34.713 -16.906 -23.247  0.00  0.00    +0.125 C 
ATOM     12  C   UNL     1      34.706 -15.822 -22.370  0.00  0.00    +0.021 C 
ATOM     13  C   UNL     1      34.266 -16.746 -24.558  0.00  0.00    +0.021 C 
ATOM     14  C   UNL     1      33.808 -14.414 -24.117  0.00  0.00    +0.042 C 
ATOM     15  C   UNL     1      34.254 -14.575 -22.804  0.00  0.00    +0.015 C 
ATOM     16  C   UNL     1      33.814 -15.500 -24.993  0.00  0.00    +0.015 C 
BRANCH  14  17
ATOM     17  N   UNL     1      33.352 -13.155 -24.557  0.00  0.00    -0.357 N 
ATOM     18  H   UNL     1      33.988 -12.411 -24.664  0.00  0.00    +0.142 HD
ATOM     19  H   UNL     1      32.397 -13.020 -24.758  0.00  0.00    +0.142 HD
ENDBRANCH  14  17
ENDBRANCH   1  11
TORSDOF 3
ENDMDL
MODEL 5
REMARK VINA RESULT:      -7.6      8.128     10.572
REMARK  Name = 5340
REMARK  3 active torsions:
REMARK  status: ('A' for Active; 'I' for Inactive)
REMARK    1  A    between atoms: S_1  and  N_5
REMARK    2  A    between atoms: S_1  and  C_11
REMARK    3  A    between atoms: C_14  and  N_17
REMARK                            x       y       z     vdW  Elec       q    Type
REMARK                         _______ _______ _______ _____ _____    ______ ____
ROOT
ATOM      1  S   UNL     1      33.201 -13.556 -23.673  0.00  0.00    +0.075 S 
ATOM      2  O   UNL     1      32.625 -14.084 -24.902  0.00  0.00    -0.150 OA
ATOM      3  O   UNL     1      34.168 -12.468 -23.762  0.00  0.00    -0.150 OA
ENDROOT
BRANCH   1   5
ATOM      4  S   UNL     1      31.383 -11.378 -20.514  0.00  0.00    -0.050 S 
ATOM      5  N   UNL     1      31.909 -13.095 -22.630  0.00  0.00    -0.194 N 
ATOM      6  N   UNL     1      32.279 -10.709 -22.845  0.00  0.00    -0.221 NA
ATOM      7  C   UNL     1      31.898 -11.750 -22.119  0.00  0.00    +0.179 C 
ATOM      8  C   UNL     1      31.692  -9.717 -20.809  0.00  0.00    +0.059 C 
ATOM      9  C   UNL     1      32.161  -9.554 -22.095  0.00  0.00    +0.108 C 
ATOM     10  H   UNL     1      31.199 -13.733 -22.392  0.00  0.00    +0.176 HD
ENDBRANCH   1   5
BRANCH   1  11
ATOM     11  C   UNL     1      33.936 -14.886 -22.814  0.00  0.00    +0.125 C 
ATOM     12  C   UNL     1      34.484 -15.955 -23.523  0.00  0.00    +0.021 C 
ATOM     13  C   UNL     1      33.973 -14.882 -21.420  0.00  0.00    +0.021 C 
ATOM     14  C   UNL     1      35.109 -17.015 -21.443  0.00  0.00    +0.042 C 
ATOM     15  C   UNL     1      35.071 -17.020 -22.838  0.00  0.00    +0.015 C 
ATOM     16  C   UNL     1      34.560 -15.946 -20.734  0.00  0.00    +0.015 C 
BRANCH  14  17
ATOM     17  N   UNL     1      35.702 -18.089 -20.750  0.00  0.00    -0.357 N 
ATOM     18  H   UNL     1      35.356 -18.359 -19.868  0.00  0.00    +0.142 HD
ATOM     19  H   UNL     1      36.463 -18.572 -21.148  0.00  0.00    +0.142 HD
ENDBRANCH  14  17
ENDBRANCH   1  11
TORSDOF 3
ENDMDL
MODEL 6
REMARK VINA RESULT:      -7.6      5.453      8.730
REMARK  Name = 5340
REMARK  3 active torsions:
REMARK  status: ('A' for Active; 'I' for Inactive)
REMARK    1  A    between atoms: S_1  and  N_5
REMARK    2  A    between atoms: S_1  and  C_11
REMARK    3  A    between atoms: C_14  and  N_17
REMARK                            x       y       z     vdW  Elec       q    Type
REMARK                         _______ _______ _______ _____ _____    ______ ____
ROOT
ATOM      1  S   UNL     1      34.142 -16.427 -21.518  0.00  0.00    +0.075 S 
ATOM      2  O   UNL     1      35.055 -15.534 -20.816  0.00  0.00    -0.150 OA
ATOM      3  O   UNL     1      32.706 -16.236 -21.350  0.00  0.00    -0.150 OA
ENDROOT
BRANCH   1   5
ATOM      4  S   UNL     1      33.500 -15.498 -25.611  0.00  0.00    -0.050 S 
ATOM      5  N   UNL     1      34.537 -16.387 -23.195  0.00  0.00    -0.194 N 
ATOM      6  N   UNL     1      33.954 -14.056 -23.513  0.00  0.00    -0.221 NA
ATOM      7  C   UNL     1      34.036 -15.292 -23.982  0.00  0.00    +0.179 C 
ATOM      8  C   UNL     1      33.133 -13.824 -25.692  0.00  0.00    +0.059 C 
ATOM      9  C   UNL     1      33.440 -13.224 -24.489  0.00  0.00    +0.108 C 
ATOM     10  H   UNL     1      35.089 -17.093 -23.601  0.00  0.00    +0.176 HD
ENDBRANCH   1   5
BRANCH   1  11
ATOM     11  C   UNL     1      34.544 -18.064 -21.064  0.00  0.00    +0.125 C 
ATOM     12  C   UNL     1      33.529 -18.987 -20.814  0.00  0.00    +0.021 C 
ATOM     13  C   UNL     1      35.880 -18.448 -20.950  0.00  0.00    +0.021 C 
ATOM     14  C   UNL     1      35.185 -20.681 -20.337  0.00  0.00    +0.042 C 
ATOM     15  C   UNL     1      33.849 -20.296 -20.450  0.00  0.00    +0.015 C 
ATOM     16  C   UNL     1      36.201 -19.757 -20.586  0.00  0.00    +0.015 C 
BRANCH  14  17
ATOM     17  N   UNL     1      35.510 -22.003 -19.971  0.00  0.00    -0.357 N 
ATOM     18  H   UNL     1      36.272 -22.459 -20.396  0.00  0.00    +0.142 HD
ATOM     19  H   UNL     1      34.975 -22.470 -19.288  0.00  0.00    +0.142 HD
ENDBRANCH  14  17
ENDBRANCH   1  11
TORSDOF 3
ENDMDL
MODEL 7
REMARK VINA RESULT:      -7.6      4.338      6.071
REMARK  Name = 5340
REMARK  3 active torsions:
REMARK  status: ('A' for Active; 'I' for Inactive)
REMARK    1  A    between atoms: S_1  and  N_5
REMARK    2  A    between atoms: S_1  and  C_11
REMARK    3  A    between atoms: C_14  and  N_17
REMARK                            x       y       z     vdW  Elec       q    Type
REMARK                         _______ _______ _______ _____ _____    ______ ____
ROOT
ATOM      1  S   UNL     1      35.012 -23.637 -15.697  0.00  0.00    +0.075 S 
ATOM      2  O   UNL     1      35.503 -22.936 -16.877  0.00  0.00    -0.150 OA
ATOM      3  O   UNL     1      35.266 -25.068 -15.575  0.00  0.00    -0.150 OA
ENDROOT
BRANCH   1   5
ATOM      4  S   UNL     1      36.820 -23.376 -11.864  0.00  0.00    -0.050 S 
ATOM      5  N   UNL     1      35.614 -22.824 -14.302  0.00  0.00    -0.194 N 
ATOM      6  N   UNL     1      37.699 -24.056 -14.198  0.00  0.00    -0.221 NA
ATOM      7  C   UNL     1      36.707 -23.426 -13.586  0.00  0.00    +0.179 C 
ATOM      8  C   UNL     1      38.290 -24.256 -11.943  0.00  0.00    +0.059 C 
ATOM      9  C   UNL     1      38.597 -24.526 -13.260  0.00  0.00    +0.108 C 
ATOM     10  H   UNL     1      35.221 -21.973 -14.004  0.00  0.00    +0.176 HD
ENDBRANCH   1   5
BRANCH   1  11
ATOM     11  C   UNL     1      33.291 -23.365 -15.592  0.00  0.00    +0.125 C 
ATOM     12  C   UNL     1      32.544 -23.172 -16.755  0.00  0.00    +0.021 C 
ATOM     13  C   UNL     1      32.663 -23.337 -14.347  0.00  0.00    +0.021 C 
ATOM     14  C   UNL     1      30.540 -22.926 -15.427  0.00  0.00    +0.042 C 
ATOM     15  C   UNL     1      31.169 -22.952 -16.672  0.00  0.00    +0.015 C 
ATOM     16  C   UNL     1      31.288 -23.119 -14.264  0.00  0.00    +0.015 C 
BRANCH  14  17
ATOM     17  N   UNL     1      29.150 -22.706 -15.343  0.00  0.00    -0.357 N 
ATOM     18  H   UNL     1      28.572 -23.372 -14.905  0.00  0.00    +0.142 HD
ATOM     19  H   UNL     1      28.758 -21.886 -15.721  0.00  0.00    +0.142 HD
ENDBRANCH  14  17
ENDBRANCH   1  11
TORSDOF 3
ENDMDL
MODEL 8
REMARK VINA RESULT:      -7.5      4.240      7.674
REMARK  Name = 5340
REMARK  3 active torsions:
REMARK  status: ('A' for Active; 'I' for Inactive)
REMARK    1  A    between atoms: S_1  and  N_5
REMARK    2  A    between atoms: S_1  and  C_11
REMARK    3  A    between atoms: C_14  and  N_17
REMARK                            x       y       z     vdW  Elec       q    Type
REMARK                         _______ _______ _______ _____ _____    ______ ____
ROOT
ATOM      1  S   UNL     1      36.120 -18.705 -21.273  0.00  0.00    +0.075 S 
ATOM      2  O   UNL     1      37.527 -18.972 -21.005  0.00  0.00    -0.150 OA
ATOM      3  O   UNL     1      35.566 -17.411 -20.893  0.00  0.00    -0.150 OA
ENDROOT
BRANCH   1   5
ATOM      4  S   UNL     1      34.067 -18.253 -24.962  0.00  0.00    -0.050 S 
ATOM      5  N   UNL     1      35.831 -18.985 -22.948  0.00  0.00    -0.194 N 
ATOM      6  N   UNL     1      35.496 -16.654 -23.518  0.00  0.00    -0.221 NA
ATOM      7  C   UNL     1      35.218 -17.934 -23.715  0.00  0.00    +0.179 C 
ATOM      8  C   UNL     1      33.931 -16.568 -25.255  0.00  0.00    +0.059 C 
ATOM      9  C   UNL     1      34.762 -15.880 -24.397  0.00  0.00    +0.108 C 
ATOM     10  H   UNL     1      36.078 -19.840 -23.368  0.00  0.00    +0.176 HD
ENDBRANCH   1   5
BRANCH   1  11
ATOM     11  C   UNL     1      35.183 -19.961 -20.502  0.00  0.00    +0.125 C 
ATOM     12  C   UNL     1      35.827 -20.969 -19.786  0.00  0.00    +0.021 C 
ATOM     13  C   UNL     1      33.792 -19.957 -20.605  0.00  0.00    +0.021 C 
ATOM     14  C   UNL     1      33.688 -21.970 -19.272  0.00  0.00    +0.042 C 
ATOM     15  C   UNL     1      35.079 -21.974 -19.170  0.00  0.00    +0.015 C 
ATOM     16  C   UNL     1      33.044 -20.961 -19.990  0.00  0.00    +0.015 C 
BRANCH  14  17
ATOM     17  N   UNL     1      32.932 -22.984 -18.650  0.00  0.00    -0.357 N 
ATOM     18  H   UNL     1      33.351 -23.567 -17.976  0.00  0.00    +0.142 HD
ATOM     19  H   UNL     1      31.984 -23.108 -18.888  0.00  0.00    +0.142 HD
ENDBRANCH  14  17
ENDBRANCH   1  11
TORSDOF 3
ENDMDL
MODEL 9
REMARK VINA RESULT:      -7.4      4.847      8.222
REMARK  Name = 5340
REMARK  3 active torsions:
REMARK  status: ('A' for Active; 'I' for Inactive)
REMARK    1  A    between atoms: S_1  and  N_5
REMARK    2  A    between atoms: S_1  and  C_11
REMARK    3  A    between atoms: C_14  and  N_17
REMARK                            x       y       z     vdW  Elec       q    Type
REMARK                         _______ _______ _______ _____ _____    ______ ____
ROOT
ATOM      1  S   UNL     1      34.889 -17.228 -21.486  0.00  0.00    +0.075 S 
ATOM      2  O   UNL     1      35.562 -17.416 -22.765  0.00  0.00    -0.150 OA
ATOM      3  O   UNL     1      35.593 -16.527 -20.419  0.00  0.00    -0.150 OA
ENDROOT
BRANCH   1   5
ATOM      4  S   UNL     1      32.274 -13.915 -21.943  0.00  0.00    -0.050 S 
ATOM      5  N   UNL     1      33.378 -16.456 -21.785  0.00  0.00    -0.194 N 
ATOM      6  N   UNL     1      34.261 -14.813 -23.332  0.00  0.00    -0.221 NA
ATOM      7  C   UNL     1      33.392 -15.152 -22.391  0.00  0.00    +0.179 C 
ATOM      8  C   UNL     1      33.001 -12.857 -23.081  0.00  0.00    +0.059 C 
ATOM      9  C   UNL     1      34.035 -13.507 -23.723  0.00  0.00    +0.108 C 
ATOM     10  H   UNL     1      32.530 -16.895 -21.547  0.00  0.00    +0.176 HD
ENDBRANCH   1   5
BRANCH   1  11
ATOM     11  C   UNL     1      34.411 -18.802 -20.899  0.00  0.00    +0.125 C 
ATOM     12  C   UNL     1      35.382 -19.747 -20.568  0.00  0.00    +0.021 C 
ATOM     13  C   UNL     1      33.059 -19.114 -20.763  0.00  0.00    +0.021 C 
ATOM     14  C   UNL     1      33.648 -21.317 -19.963  0.00  0.00    +0.042 C 
ATOM     15  C   UNL     1      35.001 -21.005 -20.100  0.00  0.00    +0.015 C 
ATOM     16  C   UNL     1      32.677 -20.372 -20.295  0.00  0.00    +0.015 C 
BRANCH  14  17
ATOM     17  N   UNL     1      33.262 -22.588 -19.489  0.00  0.00    -0.357 N 
ATOM     18  H   UNL     1      33.613 -23.402 -19.919  0.00  0.00    +0.142 HD
ATOM     19  H   UNL     1      32.644 -22.661 -18.726  0.00  0.00    +0.142 HD
ENDBRANCH  14  17
ENDBRANCH   1  11
TORSDOF 3
ENDMDL
