MODEL 1
REMARK VINA RESULT:      -9.5      0.000      0.000
REMARK  Name = 21651
REMARK  9 active torsions:
REMARK  status: ('A' for Active; 'I' for Inactive)
REMARK    1  A    between atoms: C_3  and  O_18
REMARK    2  A    between atoms: C_4  and  O_23
REMARK    3  A    between atoms: C_10  and  C_14
REMARK    4  A    between atoms: C_14  and  O_15
REMARK    5  A    between atoms: O_15  and  C_16
REMARK    6  A    between atoms: O_18  and  C_19
REMARK    7  A    between atoms: C_19  and  C_20
REMARK    8  A    between atoms: O_23  and  C_24
REMARK    9  A    between atoms: C_24  and  C_25
REMARK                            x       y       z     vdW  Elec       q    Type
REMARK                         _______ _______ _______ _____ _____    ______ ____
ROOT
ATOM      1  O   UNL     1      37.046 -23.551 -15.887  0.00  0.00    -0.286 OA
ATOM      2  N   UNL     1      34.063 -23.966 -13.175  0.00  0.00    -0.311 N 
ATOM      3  C   UNL     1      33.047 -22.981 -17.133  0.00  0.00    +0.172 C 
ATOM      4  C   UNL     1      32.044 -23.132 -16.174  0.00  0.00    +0.173 C 
ATOM      5  C   UNL     1      34.715 -23.483 -15.464  0.00  0.00    +0.056 C 
ATOM      6  C   UNL     1      33.712 -23.638 -14.490  0.00  0.00    +0.055 C 
ATOM      7  C   UNL     1      34.385 -23.155 -16.782  0.00  0.00    +0.044 C 
ATOM      8  C   UNL     1      32.374 -23.460 -14.857  0.00  0.00    +0.055 C 
ATOM      9  C   UNL     1      36.139 -23.674 -15.072  0.00  0.00    +0.204 C 
ATOM     10  C   UNL     1      36.414 -24.021 -13.647  0.00  0.00    +0.129 C 
ATOM     11  C   UNL     1      35.371 -24.140 -12.816  0.00  0.00    +0.072 C 
ATOM     12  H   UNL     1      33.356 -24.074 -12.498  0.00  0.00    +0.152 HD
ENDROOT
BRANCH  10  14
ATOM     13  O   UNL     1      38.348 -23.430 -12.411  0.00  0.00    -0.245 OA
ATOM     14  C   UNL     1      37.759 -24.238 -13.113  0.00  0.00    +0.346 C 
BRANCH  14  15
ATOM     15  O   UNL     1      38.204 -25.452 -13.529  0.00  0.00    -0.445 OA
BRANCH  15  16
ATOM     16  C   UNL     1      39.624 -25.575 -13.659  0.00  0.00    +0.209 C 
ATOM     17  C   UNL     1      40.016 -25.275 -15.090  0.00  0.00    +0.051 C 
ENDBRANCH  15  16
ENDBRANCH  14  15
ENDBRANCH  10  14
BRANCH   3  18
ATOM     18  O   UNL     1      32.730 -22.661 -18.419  0.00  0.00    -0.472 OA
BRANCH  18  19
ATOM     19  C   UNL     1      33.814 -22.485 -19.329  0.00  0.00    +0.205 C 
BRANCH  19  20
ATOM     20  C   UNL     1      34.033 -20.994 -19.597  0.00  0.00    +0.044 C 
ATOM     21  C   UNL     1      35.397 -20.738 -20.243  0.00  0.00    +0.004 C 
ATOM     22  C   UNL     1      32.916 -20.441 -20.480  0.00  0.00    +0.004 C 
ENDBRANCH  19  20
ENDBRANCH  18  19
ENDBRANCH   3  18
BRANCH   4  23
ATOM     23  O   UNL     1      30.735 -22.962 -16.512  0.00  0.00    -0.472 OA
BRANCH  23  24
ATOM     24  C   UNL     1      29.817 -22.726 -15.448  0.00  0.00    +0.205 C 
BRANCH  24  25
ATOM     25  C   UNL     1      28.656 -23.722 -15.529  0.00  0.00    +0.044 C 
ATOM     26  C   UNL     1      29.048 -25.051 -14.889  0.00  0.00    +0.004 C 
ATOM     27  C   UNL     1      28.211 -23.940 -16.977  0.00  0.00    +0.004 C 
ENDBRANCH  24  25
ENDBRANCH  23  24
ENDBRANCH   4  23
TORSDOF 9
ENDMDL
MODEL 2
REMARK VINA RESULT:      -9.3      1.559      4.615
REMARK  Name = 21651
REMARK  9 active torsions:
REMARK  status: ('A' for Active; 'I' for Inactive)
REMARK    1  A    between atoms: C_3  and  O_18
REMARK    2  A    between atoms: C_4  and  O_23
REMARK    3  A    between atoms: C_10  and  C_14
REMARK    4  A    between atoms: C_14  and  O_15
REMARK    5  A    between atoms: O_15  and  C_16
REMARK    6  A    between atoms: O_18  and  C_19
REMARK    7  A    between atoms: C_19  and  C_20
REMARK    8  A    between atoms: O_23  and  C_24
REMARK    9  A    between atoms: C_24  and  C_25
REMARK                            x       y       z     vdW  Elec       q    Type
REMARK                         _______ _______ _______ _____ _____    ______ ____
ROOT
ATOM      1  O   UNL     1      34.207 -24.065 -12.466  0.00  0.00    -0.286 OA
ATOM      2  N   UNL     1      36.601 -22.888 -15.515  0.00  0.00    -0.311 N 
ATOM      3  C   UNL     1      32.491 -23.349 -16.261  0.00  0.00    +0.172 C 
ATOM      4  C   UNL     1      33.343 -22.944 -17.289  0.00  0.00    +0.173 C 
ATOM      5  C   UNL     1      34.366 -23.445 -14.747  0.00  0.00    +0.056 C 
ATOM      6  C   UNL     1      35.235 -23.038 -15.777  0.00  0.00    +0.055 C 
ATOM      7  C   UNL     1      32.998 -23.601 -14.987  0.00  0.00    +0.044 C 
ATOM      8  C   UNL     1      34.710 -22.788 -17.049  0.00  0.00    +0.055 C 
ATOM      9  C   UNL     1      34.925 -23.710 -13.393  0.00  0.00    +0.204 C 
ATOM     10  C   UNL     1      36.394 -23.523 -13.212  0.00  0.00    +0.129 C 
ATOM     11  C   UNL     1      37.114 -23.131 -14.272  0.00  0.00    +0.072 C 
ATOM     12  H   UNL     1      37.204 -22.601 -16.240  0.00  0.00    +0.152 HD
ENDROOT
BRANCH  10  14
ATOM     13  O   UNL     1      37.548 -22.845 -11.255  0.00  0.00    -0.245 OA
ATOM     14  C   UNL     1      37.088 -23.744 -11.943  0.00  0.00    +0.346 C 
BRANCH  14  15
ATOM     15  O   UNL     1      37.121 -25.079 -11.690  0.00  0.00    -0.445 OA
BRANCH  15  16
ATOM     16  C   UNL     1      38.043 -25.832 -12.484  0.00  0.00    +0.209 C 
ATOM     17  C   UNL     1      37.265 -26.704 -13.447  0.00  0.00    +0.051 C 
ENDBRANCH  15  16
ENDBRANCH  14  15
ENDBRANCH  10  14
BRANCH   3  18
ATOM     18  O   UNL     1      31.157 -23.503 -16.492  0.00  0.00    -0.472 OA
BRANCH  18  19
ATOM     19  C   UNL     1      30.265 -22.868 -15.578  0.00  0.00    +0.205 C 
BRANCH  19  20
ATOM     20  C   UNL     1      28.965 -23.669 -15.476  0.00  0.00    +0.044 C 
ATOM     21  C   UNL     1      28.288 -23.812 -16.841  0.00  0.00    +0.004 C 
ATOM     22  C   UNL     1      29.233 -25.046 -14.869  0.00  0.00    +0.004 C 
ENDBRANCH  19  20
ENDBRANCH  18  19
ENDBRANCH   3  18
BRANCH   4  23
ATOM     23  O   UNL     1      32.852 -22.697 -18.536  0.00  0.00    -0.472 OA
BRANCH  23  24
ATOM     24  C   UNL     1      33.801 -22.420 -19.563  0.00  0.00    +0.205 C 
BRANCH  24  25
ATOM     25  C   UNL     1      33.950 -20.906 -19.742  0.00  0.00    +0.044 C 
ATOM     26  C   UNL     1      32.833 -20.362 -20.629  0.00  0.00    +0.004 C 
ATOM     27  C   UNL     1      35.318 -20.547 -20.328  0.00  0.00    +0.004 C 
ENDBRANCH  24  25
ENDBRANCH  23  24
ENDBRANCH   4  23
TORSDOF 9
ENDMDL
MODEL 3
REMARK VINA RESULT:      -9.2      9.067     12.730
REMARK  Name = 21651
REMARK  9 active torsions:
REMARK  status: ('A' for Active; 'I' for Inactive)
REMARK    1  A    between atoms: C_3  and  O_18
REMARK    2  A    between atoms: C_4  and  O_23
REMARK    3  A    between atoms: C_10  and  C_14
REMARK    4  A    between atoms: C_14  and  O_15
REMARK    5  A    between atoms: O_15  and  C_16
REMARK    6  A    between atoms: O_18  and  C_19
REMARK    7  A    between atoms: C_19  and  C_20
REMARK    8  A    between atoms: O_23  and  C_24
REMARK    9  A    between atoms: C_24  and  C_25
REMARK                            x       y       z     vdW  Elec       q    Type
REMARK                         _______ _______ _______ _____ _____    ______ ____
ROOT
ATOM      1  O   UNL     1      35.291 -15.736 -23.473  0.00  0.00    -0.286 OA
ATOM      2  N   UNL     1      32.530 -15.375 -20.530  0.00  0.00    -0.311 N 
ATOM      3  C   UNL     1      33.012 -12.185 -23.224  0.00  0.00    +0.172 C 
ATOM      4  C   UNL     1      32.069 -12.093 -22.199  0.00  0.00    +0.173 C 
ATOM      5  C   UNL     1      33.628 -14.387 -22.458  0.00  0.00    +0.056 C 
ATOM      6  C   UNL     1      32.680 -14.306 -21.420  0.00  0.00    +0.055 C 
ATOM      7  C   UNL     1      33.795 -13.331 -23.357  0.00  0.00    +0.044 C 
ATOM      8  C   UNL     1      31.902 -13.149 -21.301  0.00  0.00    +0.055 C 
ATOM      9  C   UNL     1      34.455 -15.619 -22.585  0.00  0.00    +0.204 C 
ATOM     10  C   UNL     1      34.222 -16.705 -21.588  0.00  0.00    +0.129 C 
ATOM     11  C   UNL     1      33.290 -16.505 -20.647  0.00  0.00    +0.072 C 
ATOM     12  H   UNL     1      31.863 -15.312 -19.807  0.00  0.00    +0.152 HD
ENDROOT
BRANCH  10  14
ATOM     13  O   UNL     1      35.974 -18.162 -20.937  0.00  0.00    -0.245 OA
ATOM     14  C   UNL     1      34.955 -17.970 -21.584  0.00  0.00    +0.346 C 
BRANCH  14  15
ATOM     15  O   UNL     1      34.316 -18.849 -22.400  0.00  0.00    -0.445 OA
BRANCH  15  16
ATOM     16  C   UNL     1      35.056 -19.268 -23.551  0.00  0.00    +0.209 C 
ATOM     17  C   UNL     1      34.368 -18.747 -24.795  0.00  0.00    +0.051 C 
ENDBRANCH  15  16
ENDBRANCH  14  15
ENDBRANCH  10  14
BRANCH   3  18
ATOM     18  O   UNL     1      33.178 -11.157 -24.103  0.00  0.00    -0.472 OA
BRANCH  18  19
ATOM     19  C   UNL     1      34.043 -11.387 -25.212  0.00  0.00    +0.205 C 
BRANCH  19  20
ATOM     20  C   UNL     1      35.267 -10.472 -25.119  0.00  0.00    +0.044 C 
ATOM     21  C   UNL     1      35.854 -10.182 -26.502  0.00  0.00    +0.004 C 
ATOM     22  C   UNL     1      34.903  -9.166 -24.413  0.00  0.00    +0.004 C 
ENDBRANCH  19  20
ENDBRANCH  18  19
ENDBRANCH   3  18
BRANCH   4  23
ATOM     23  O   UNL     1      31.302 -10.975 -22.065  0.00  0.00    -0.472 OA
BRANCH  23  24
ATOM     24  C   UNL     1      31.632 -10.088 -20.998  0.00  0.00    +0.205 C 
BRANCH  24  25
ATOM     25  C   UNL     1      32.365  -8.861 -21.548  0.00  0.00    +0.044 C 
ATOM     26  C   UNL     1      32.552  -7.816 -20.451  0.00  0.00    +0.004 C 
ATOM     27  C   UNL     1      31.620  -8.254 -22.739  0.00  0.00    +0.004 C 
ENDBRANCH  24  25
ENDBRANCH  23  24
ENDBRANCH   4  23
TORSDOF 9
ENDMDL
MODEL 4
REMARK VINA RESULT:      -9.2      3.312      8.091
REMARK  Name = 21651
REMARK  9 active torsions:
REMARK  status: ('A' for Active; 'I' for Inactive)
REMARK    1  A    between atoms: C_3  and  O_18
REMARK    2  A    between atoms: C_4  and  O_23
REMARK    3  A    between atoms: C_10  and  C_14
REMARK    4  A    between atoms: C_14  and  O_15
REMARK    5  A    between atoms: O_15  and  C_16
REMARK    6  A    between atoms: O_18  and  C_19
REMARK    7  A    between atoms: C_19  and  C_20
REMARK    8  A    between atoms: O_23  and  C_24
REMARK    9  A    between atoms: C_24  and  C_25
REMARK                            x       y       z     vdW  Elec       q    Type
REMARK                         _______ _______ _______ _____ _____    ______ ____
ROOT
ATOM      1  O   UNL     1      32.908 -19.933 -21.397  0.00  0.00    -0.286 OA
ATOM      2  N   UNL     1      36.728 -19.954 -20.044  0.00  0.00    -0.311 N 
ATOM      3  C   UNL     1      33.949 -22.537 -18.234  0.00  0.00    +0.172 C 
ATOM      4  C   UNL     1      35.273 -22.520 -17.793  0.00  0.00    +0.173 C 
ATOM      5  C   UNL     1      34.475 -20.845 -19.870  0.00  0.00    +0.056 C 
ATOM      6  C   UNL     1      35.812 -20.819 -19.433  0.00  0.00    +0.055 C 
ATOM      7  C   UNL     1      33.545 -21.700 -19.273  0.00  0.00    +0.044 C 
ATOM      8  C   UNL     1      36.203 -21.665 -18.389  0.00  0.00    +0.055 C 
ATOM      9  C   UNL     1      34.061 -19.944 -20.982  0.00  0.00    +0.204 C 
ATOM     10  C   UNL     1      35.108 -19.059 -21.570  0.00  0.00    +0.129 C 
ATOM     11  C   UNL     1      36.347 -19.128 -21.064  0.00  0.00    +0.072 C 
ATOM     12  H   UNL     1      37.663 -19.942 -19.734  0.00  0.00    +0.152 HD
ENDROOT
BRANCH  10  14
ATOM     13  O   UNL     1      34.518 -18.466 -23.788  0.00  0.00    -0.245 OA
ATOM     14  C   UNL     1      34.854 -18.122 -22.664  0.00  0.00    +0.346 C 
BRANCH  14  15
ATOM     15  O   UNL     1      35.055 -16.856 -22.212  0.00  0.00    -0.445 OA
BRANCH  15  16
ATOM     16  C   UNL     1      33.954 -16.273 -21.508  0.00  0.00    +0.209 C 
ATOM     17  C   UNL     1      34.465 -15.133 -20.652  0.00  0.00    +0.051 C 
ENDBRANCH  15  16
ENDBRANCH  14  15
ENDBRANCH  10  14
BRANCH   3  18
ATOM     18  O   UNL     1      33.039 -23.369 -17.654  0.00  0.00    -0.472 OA
BRANCH  18  19
ATOM     19  C   UNL     1      31.928 -22.759 -17.001  0.00  0.00    +0.205 C 
BRANCH  19  20
ATOM     20  C   UNL     1      31.626 -23.491 -15.691  0.00  0.00    +0.044 C 
ATOM     21  C   UNL     1      32.839 -23.488 -14.758  0.00  0.00    +0.004 C 
ATOM     22  C   UNL     1      30.419 -22.862 -14.996  0.00  0.00    +0.004 C 
ENDBRANCH  19  20
ENDBRANCH  18  19
ENDBRANCH   3  18
BRANCH   4  23
ATOM     23  O   UNL     1      35.673 -23.335 -16.777  0.00  0.00    -0.472 OA
BRANCH  23  24
ATOM     24  C   UNL     1      36.402 -22.732 -15.711  0.00  0.00    +0.205 C 
BRANCH  24  25
ATOM     25  C   UNL     1      37.030 -23.816 -14.830  0.00  0.00    +0.044 C 
ATOM     26  C   UNL     1      36.260 -25.127 -14.967  0.00  0.00    +0.004 C 
ATOM     27  C   UNL     1      37.081 -23.381 -13.363  0.00  0.00    +0.004 C 
ENDBRANCH  24  25
ENDBRANCH  23  24
ENDBRANCH   4  23
TORSDOF 9
ENDMDL
MODEL 5
REMARK VINA RESULT:      -9.1      8.042     12.089
REMARK  Name = 21651
REMARK  9 active torsions:
REMARK  status: ('A' for Active; 'I' for Inactive)
REMARK    1  A    between atoms: C_3  and  O_18
REMARK    2  A    between atoms: C_4  and  O_23
REMARK    3  A    between atoms: C_10  and  C_14
REMARK    4  A    between atoms: C_14  and  O_15
REMARK    5  A    between atoms: O_15  and  C_16
REMARK    6  A    between atoms: O_18  and  C_19
REMARK    7  A    between atoms: C_19  and  C_20
REMARK    8  A    between atoms: O_23  and  C_24
REMARK    9  A    between atoms: C_24  and  C_25
REMARK                            x       y       z     vdW  Elec       q    Type
REMARK                         _______ _______ _______ _____ _____    ______ ____
ROOT
ATOM      1  O   UNL     1      34.889 -16.643 -20.245  0.00  0.00    -0.286 OA
ATOM      2  N   UNL     1      35.024 -16.928 -24.285  0.00  0.00    -0.311 N 
ATOM      3  C   UNL     1      33.297 -13.498 -22.577  0.00  0.00    +0.172 C 
ATOM      4  C   UNL     1      33.360 -13.627 -23.965  0.00  0.00    +0.173 C 
ATOM      5  C   UNL     1      34.378 -15.640 -22.330  0.00  0.00    +0.056 C 
ATOM      6  C   UNL     1      34.447 -15.781 -23.729  0.00  0.00    +0.055 C 
ATOM      7  C   UNL     1      33.805 -14.502 -21.754  0.00  0.00    +0.044 C 
ATOM      8  C   UNL     1      33.933 -14.763 -24.540  0.00  0.00    +0.055 C 
ATOM      9  C   UNL     1      34.926 -16.723 -21.467  0.00  0.00    +0.204 C 
ATOM     10  C   UNL     1      35.521 -17.907 -22.153  0.00  0.00    +0.129 C 
ATOM     11  C   UNL     1      35.526 -17.922 -23.492  0.00  0.00    +0.072 C 
ATOM     12  H   UNL     1      35.070 -17.020 -25.265  0.00  0.00    +0.152 HD
ENDROOT
BRANCH  10  14
ATOM     13  O   UNL     1      37.195 -19.028 -20.903  0.00  0.00    -0.245 OA
ATOM     14  C   UNL     1      36.097 -19.048 -21.442  0.00  0.00    +0.346 C 
BRANCH  14  15
ATOM     15  O   UNL     1      35.220 -20.084 -21.493  0.00  0.00    -0.445 OA
BRANCH  15  16
ATOM     16  C   UNL     1      34.534 -20.369 -20.270  0.00  0.00    +0.209 C 
ATOM     17  C   UNL     1      33.056 -20.099 -20.460  0.00  0.00    +0.051 C 
ENDBRANCH  15  16
ENDBRANCH  14  15
ENDBRANCH  10  14
BRANCH   3  18
ATOM     18  O   UNL     1      32.738 -12.391 -22.012  0.00  0.00    -0.472 OA
BRANCH  18  19
ATOM     19  C   UNL     1      31.990 -12.583 -20.813  0.00  0.00    +0.205 C 
BRANCH  19  20
ATOM     20  C   UNL     1      31.207 -11.312 -20.477  0.00  0.00    +0.044 C 
ATOM     21  C   UNL     1      31.412 -10.900 -19.017  0.00  0.00    +0.004 C 
ATOM     22  C   UNL     1      31.611 -10.173 -21.412  0.00  0.00    +0.004 C 
ENDBRANCH  19  20
ENDBRANCH  18  19
ENDBRANCH   3  18
BRANCH   4  23
ATOM     23  O   UNL     1      32.865 -12.648 -24.772  0.00  0.00    -0.472 OA
BRANCH  23  24
ATOM     24  C   UNL     1      33.761 -12.075 -25.721  0.00  0.00    +0.205 C 
BRANCH  24  25
ATOM     25  C   UNL     1      34.660 -11.043 -25.034  0.00  0.00    +0.044 C 
ATOM     26  C   UNL     1      33.813 -10.002 -24.304  0.00  0.00    +0.004 C 
ATOM     27  C   UNL     1      35.593 -10.360 -26.037  0.00  0.00    +0.004 C 
ENDBRANCH  24  25
ENDBRANCH  23  24
ENDBRANCH   4  23
TORSDOF 9
ENDMDL
MODEL 6
REMARK VINA RESULT:      -9.1      3.297      7.443
REMARK  Name = 21651
REMARK  9 active torsions:
REMARK  status: ('A' for Active; 'I' for Inactive)
REMARK    1  A    between atoms: C_3  and  O_18
REMARK    2  A    between atoms: C_4  and  O_23
REMARK    3  A    between atoms: C_10  and  C_14
REMARK    4  A    between atoms: C_14  and  O_15
REMARK    5  A    between atoms: O_15  and  C_16
REMARK    6  A    between atoms: O_18  and  C_19
REMARK    7  A    between atoms: C_19  and  C_20
REMARK    8  A    between atoms: O_23  and  C_24
REMARK    9  A    between atoms: C_24  and  C_25
REMARK                            x       y       z     vdW  Elec       q    Type
REMARK                         _______ _______ _______ _____ _____    ______ ____
ROOT
ATOM      1  O   UNL     1      36.843 -19.873 -20.547  0.00  0.00    -0.286 OA
ATOM      2  N   UNL     1      32.855 -20.590 -20.527  0.00  0.00    -0.311 N 
ATOM      3  C   UNL     1      35.258 -22.569 -17.703  0.00  0.00    +0.172 C 
ATOM      4  C   UNL     1      33.881 -22.792 -17.723  0.00  0.00    +0.173 C 
ATOM      5  C   UNL     1      35.034 -21.037 -19.553  0.00  0.00    +0.056 C 
ATOM      6  C   UNL     1      33.644 -21.255 -19.582  0.00  0.00    +0.055 C 
ATOM      7  C   UNL     1      35.840 -21.691 -18.617  0.00  0.00    +0.044 C 
ATOM      8  C   UNL     1      33.076 -22.138 -18.658  0.00  0.00    +0.055 C 
ATOM      9  C   UNL     1      35.638 -20.095 -20.536  0.00  0.00    +0.204 C 
ATOM     10  C   UNL     1      34.716 -19.434 -21.504  0.00  0.00    +0.129 C 
ATOM     11  C   UNL     1      33.411 -19.726 -21.430  0.00  0.00    +0.072 C 
ATOM     12  H   UNL     1      31.883 -20.746 -20.542  0.00  0.00    +0.152 HD
ENDROOT
BRANCH  10  14
ATOM     13  O   UNL     1      35.177 -18.740 -23.724  0.00  0.00    -0.245 OA
ATOM     14  C   UNL     1      35.160 -18.488 -22.528  0.00  0.00    +0.346 C 
BRANCH  14  15
ATOM     15  O   UNL     1      35.534 -17.331 -21.921  0.00  0.00    -0.445 OA
BRANCH  15  16
ATOM     16  C   UNL     1      34.617 -16.241 -22.060  0.00  0.00    +0.209 C 
ATOM     17  C   UNL     1      34.469 -15.548 -20.721  0.00  0.00    +0.051 C 
ENDBRANCH  15  16
ENDBRANCH  14  15
ENDBRANCH  10  14
BRANCH   3  18
ATOM     18  O   UNL     1      36.048 -23.206 -16.793  0.00  0.00    -0.472 OA
BRANCH  18  19
ATOM     19  C   UNL     1      36.170 -22.601 -15.507  0.00  0.00    +0.205 C 
BRANCH  19  20
ATOM     20  C   UNL     1      36.759 -23.605 -14.513  0.00  0.00    +0.044 C 
ATOM     21  C   UNL     1      36.275 -23.327 -13.087  0.00  0.00    +0.004 C 
ATOM     22  C   UNL     1      36.406 -25.033 -14.924  0.00  0.00    +0.004 C 
ENDBRANCH  19  20
ENDBRANCH  18  19
ENDBRANCH   3  18
BRANCH   4  23
ATOM     23  O   UNL     1      33.308 -23.650 -16.832  0.00  0.00    -0.472 OA
BRANCH  23  24
ATOM     24  C   UNL     1      31.971 -23.366 -16.428  0.00  0.00    +0.205 C 
BRANCH  24  25
ATOM     25  C   UNL     1      31.931 -23.067 -14.927  0.00  0.00    +0.044 C 
ATOM     26  C   UNL     1      32.825 -24.045 -14.166  0.00  0.00    +0.004 C 
ATOM     27  C   UNL     1      30.501 -23.123 -14.385  0.00  0.00    +0.004 C 
ENDBRANCH  24  25
ENDBRANCH  23  24
ENDBRANCH   4  23
TORSDOF 9
ENDMDL
MODEL 7
REMARK VINA RESULT:      -9.0      8.912     12.829
REMARK  Name = 21651
REMARK  9 active torsions:
REMARK  status: ('A' for Active; 'I' for Inactive)
REMARK    1  A    between atoms: C_3  and  O_18
REMARK    2  A    between atoms: C_4  and  O_23
REMARK    3  A    between atoms: C_10  and  C_14
REMARK    4  A    between atoms: C_14  and  O_15
REMARK    5  A    between atoms: O_15  and  C_16
REMARK    6  A    between atoms: O_18  and  C_19
REMARK    7  A    between atoms: C_19  and  C_20
REMARK    8  A    between atoms: O_23  and  C_24
REMARK    9  A    between atoms: C_24  and  C_25
REMARK                            x       y       z     vdW  Elec       q    Type
REMARK                         _______ _______ _______ _____ _____    ______ ____
ROOT
ATOM      1  O   UNL     1      32.410 -15.952 -20.459  0.00  0.00    -0.286 OA
ATOM      2  N   UNL     1      34.915 -15.247 -23.565  0.00  0.00    -0.311 N 
ATOM      3  C   UNL     1      32.204 -12.233 -22.456  0.00  0.00    +0.172 C 
ATOM      4  C   UNL     1      33.082 -12.022 -23.521  0.00  0.00    +0.173 C 
ATOM      5  C   UNL     1      33.129 -14.437 -22.133  0.00  0.00    +0.056 C 
ATOM      6  C   UNL     1      34.017 -14.236 -23.206  0.00  0.00    +0.055 C 
ATOM      7  C   UNL     1      32.224 -13.439 -21.759  0.00  0.00    +0.044 C 
ATOM      8  C   UNL     1      33.985 -13.019 -23.895  0.00  0.00    +0.055 C 
ATOM      9  C   UNL     1      33.164 -15.732 -21.399  0.00  0.00    +0.204 C 
ATOM     10  C   UNL     1      34.155 -16.749 -21.856  0.00  0.00    +0.129 C 
ATOM     11  C   UNL     1      34.946 -16.437 -22.891  0.00  0.00    +0.072 C 
ATOM     12  H   UNL     1      35.535 -15.100 -24.316  0.00  0.00    +0.152 HD
ENDROOT
BRANCH  10  14
ATOM     13  O   UNL     1      33.474 -18.956 -21.321  0.00  0.00    -0.245 OA
ATOM     14  C   UNL     1      34.307 -18.066 -21.237  0.00  0.00    +0.346 C 
BRANCH  14  15
ATOM     15  O   UNL     1      35.496 -18.105 -20.581  0.00  0.00    -0.445 OA
BRANCH  15  16
ATOM     16  C   UNL     1      36.426 -19.087 -21.052  0.00  0.00    +0.209 C 
ATOM     17  C   UNL     1      36.348 -20.307 -20.158  0.00  0.00    +0.051 C 
ENDBRANCH  15  16
ENDBRANCH  14  15
ENDBRANCH  10  14
BRANCH   3  18
ATOM     18  O   UNL     1      31.320 -11.263 -22.089  0.00  0.00    -0.472 OA
BRANCH  18  19
ATOM     19  C   UNL     1      30.811 -11.322 -20.758  0.00  0.00    +0.205 C 
BRANCH  19  20
ATOM     20  C   UNL     1      31.789 -10.645 -19.794  0.00  0.00    +0.044 C 
ATOM     21  C   UNL     1      31.976  -9.165 -20.136  0.00  0.00    +0.004 C 
ATOM     22  C   UNL     1      31.310 -10.801 -18.352  0.00  0.00    +0.004 C 
ENDBRANCH  19  20
ENDBRANCH  18  19
ENDBRANCH   3  18
BRANCH   4  23
ATOM     23  O   UNL     1      33.065 -10.844 -24.206  0.00  0.00    -0.472 OA
BRANCH  23  24
ATOM     24  C   UNL     1      34.197  -9.991 -24.054  0.00  0.00    +0.205 C 
BRANCH  24  25
ATOM     25  C   UNL     1      33.792  -8.714 -23.311  0.00  0.00    +0.044 C 
ATOM     26  C   UNL     1      32.366  -8.313 -23.680  0.00  0.00    +0.004 C 
ATOM     27  C   UNL     1      34.760  -7.567 -23.607  0.00  0.00    +0.004 C 
ENDBRANCH  24  25
ENDBRANCH  23  24
ENDBRANCH   4  23
TORSDOF 9
ENDMDL
MODEL 8
REMARK VINA RESULT:      -8.9      2.892      7.715
REMARK  Name = 21651
REMARK  9 active torsions:
REMARK  status: ('A' for Active; 'I' for Inactive)
REMARK    1  A    between atoms: C_3  and  O_18
REMARK    2  A    between atoms: C_4  and  O_23
REMARK    3  A    between atoms: C_10  and  C_14
REMARK    4  A    between atoms: C_14  and  O_15
REMARK    5  A    between atoms: O_15  and  C_16
REMARK    6  A    between atoms: O_18  and  C_19
REMARK    7  A    between atoms: C_19  and  C_20
REMARK    8  A    between atoms: O_23  and  C_24
REMARK    9  A    between atoms: C_24  and  C_25
REMARK                            x       y       z     vdW  Elec       q    Type
REMARK                         _______ _______ _______ _____ _____    ______ ____
ROOT
ATOM      1  O   UNL     1      32.469 -20.530 -20.671  0.00  0.00    -0.286 OA
ATOM      2  N   UNL     1      36.297 -20.937 -19.408  0.00  0.00    -0.311 N 
ATOM      3  C   UNL     1      33.284 -23.050 -17.378  0.00  0.00    +0.172 C 
ATOM      4  C   UNL     1      34.613 -23.169 -16.969  0.00  0.00    +0.173 C 
ATOM      5  C   UNL     1      33.960 -21.534 -19.128  0.00  0.00    +0.056 C 
ATOM      6  C   UNL     1      35.303 -21.646 -18.724  0.00  0.00    +0.055 C 
ATOM      7  C   UNL     1      32.952 -22.233 -18.457  0.00  0.00    +0.044 C 
ATOM      8  C   UNL     1      35.620 -22.471 -17.639  0.00  0.00    +0.055 C 
ATOM      9  C   UNL     1      33.624 -20.657 -20.283  0.00  0.00    +0.204 C 
ATOM     10  C   UNL     1      34.751 -19.942 -20.949  0.00  0.00    +0.129 C 
ATOM     11  C   UNL     1      35.988 -20.131 -20.469  0.00  0.00    +0.072 C 
ATOM     12  H   UNL     1      37.236 -21.021 -19.122  0.00  0.00    +0.152 HD
ENDROOT
BRANCH  10  14
ATOM     13  O   UNL     1      34.763 -19.385 -23.253  0.00  0.00    -0.245 OA
ATOM     14  C   UNL     1      34.579 -19.047 -22.093  0.00  0.00    +0.346 C 
BRANCH  14  15
ATOM     15  O   UNL     1      34.194 -17.826 -21.639  0.00  0.00    -0.445 OA
BRANCH  15  16
ATOM     16  C   UNL     1      35.128 -16.764 -21.861  0.00  0.00    +0.209 C 
ATOM     17  C   UNL     1      34.365 -15.473 -22.071  0.00  0.00    +0.051 C 
ENDBRANCH  15  16
ENDBRANCH  14  15
ENDBRANCH  10  14
BRANCH   3  18
ATOM     18  O   UNL     1      32.299 -23.730 -16.727  0.00  0.00    -0.472 OA
BRANCH  18  19
ATOM     19  C   UNL     1      31.099 -23.015 -16.442  0.00  0.00    +0.205 C 
BRANCH  19  20
ATOM     20  C   UNL     1      30.593 -23.378 -15.044  0.00  0.00    +0.044 C 
ATOM     21  C   UNL     1      30.310 -24.878 -14.925  0.00  0.00    +0.004 C 
ATOM     22  C   UNL     1      31.602 -22.943 -13.982  0.00  0.00    +0.004 C 
ENDBRANCH  19  20
ENDBRANCH  18  19
ENDBRANCH   3  18
BRANCH   4  23
ATOM     23  O   UNL     1      34.942 -23.966 -15.914  0.00  0.00    -0.472 OA
BRANCH  23  24
ATOM     24  C   UNL     1      36.189 -23.709 -15.273  0.00  0.00    +0.205 C 
BRANCH  24  25
ATOM     25  C   UNL     1      35.954 -23.335 -13.806  0.00  0.00    +0.044 C 
ATOM     26  C   UNL     1      37.267 -23.382 -13.027  0.00  0.00    +0.004 C 
ATOM     27  C   UNL     1      34.917 -24.255 -13.156  0.00  0.00    +0.004 C 
ENDBRANCH  24  25
ENDBRANCH  23  24
ENDBRANCH   4  23
TORSDOF 9
ENDMDL
MODEL 9
REMARK VINA RESULT:      -8.8      8.812     12.205
REMARK  Name = 21651
REMARK  9 active torsions:
REMARK  status: ('A' for Active; 'I' for Inactive)
REMARK    1  A    between atoms: C_3  and  O_18
REMARK    2  A    between atoms: C_4  and  O_23
REMARK    3  A    between atoms: C_10  and  C_14
REMARK    4  A    between atoms: C_14  and  O_15
REMARK    5  A    between atoms: O_15  and  C_16
REMARK    6  A    between atoms: O_18  and  C_19
REMARK    7  A    between atoms: C_19  and  C_20
REMARK    8  A    between atoms: O_23  and  C_24
REMARK    9  A    between atoms: C_24  and  C_25
REMARK                            x       y       z     vdW  Elec       q    Type
REMARK                         _______ _______ _______ _____ _____    ______ ____
ROOT
ATOM      1  O   UNL     1      35.468 -15.747 -24.018  0.00  0.00    -0.286 OA
ATOM      2  N   UNL     1      33.012 -15.606 -20.798  0.00  0.00    -0.311 N 
ATOM      3  C   UNL     1      33.130 -12.285 -23.372  0.00  0.00    +0.172 C 
ATOM      4  C   UNL     1      32.294 -12.270 -22.255  0.00  0.00    +0.173 C 
ATOM      5  C   UNL     1      33.881 -14.499 -22.778  0.00  0.00    +0.056 C 
ATOM      6  C   UNL     1      33.042 -14.494 -21.648  0.00  0.00    +0.055 C 
ATOM      7  C   UNL     1      33.926 -13.398 -23.638  0.00  0.00    +0.044 C 
ATOM      8  C   UNL     1      32.249 -13.369 -21.395  0.00  0.00    +0.055 C 
ATOM      9  C   UNL     1      34.723 -15.697 -23.046  0.00  0.00    +0.204 C 
ATOM     10  C   UNL     1      34.623 -16.833 -22.084  0.00  0.00    +0.129 C 
ATOM     11  C   UNL     1      33.786 -16.705 -21.045  0.00  0.00    +0.072 C 
ATOM     12  H   UNL     1      32.421 -15.597 -20.010  0.00  0.00    +0.152 HD
ENDROOT
BRANCH  10  14
ATOM     13  O   UNL     1      35.706 -18.564 -23.287  0.00  0.00    -0.245 OA
ATOM     14  C   UNL     1      35.387 -18.073 -22.214  0.00  0.00    +0.346 C 
BRANCH  14  15
ATOM     15  O   UNL     1      35.660 -18.551 -20.972  0.00  0.00    -0.445 OA
BRANCH  15  16
ATOM     16  C   UNL     1      35.350 -19.933 -20.763  0.00  0.00    +0.209 C 
ATOM     17  C   UNL     1      36.490 -20.585 -20.010  0.00  0.00    +0.051 C 
ENDBRANCH  15  16
ENDBRANCH  14  15
ENDBRANCH  10  14
BRANCH   3  18
ATOM     18  O   UNL     1      33.178 -11.214 -24.213  0.00  0.00    -0.472 OA
BRANCH  18  19
ATOM     19  C   UNL     1      34.282 -10.324 -24.065  0.00  0.00    +0.205 C 
BRANCH  19  20
ATOM     20  C   UNL     1      33.820  -9.026 -23.398  0.00  0.00    +0.044 C 
ATOM     21  C   UNL     1      34.818  -7.890 -23.637  0.00  0.00    +0.004 C 
ATOM     22  C   UNL     1      32.434  -8.630 -23.904  0.00  0.00    +0.004 C 
ENDBRANCH  19  20
ENDBRANCH  18  19
ENDBRANCH   3  18
BRANCH   4  23
ATOM     23  O   UNL     1      31.515 -11.184 -21.991  0.00  0.00    -0.472 OA
BRANCH  23  24
ATOM     24  C   UNL     1      30.595 -11.294 -20.907  0.00  0.00    +0.205 C 
BRANCH  24  25
ATOM     25  C   UNL     1      30.951 -10.282 -19.815  0.00  0.00    +0.044 C 
ATOM     26  C   UNL     1      31.983  -9.281 -20.331  0.00  0.00    +0.004 C 
ATOM     27  C   UNL     1      31.471 -10.980 -18.556  0.00  0.00    +0.004 C 
ENDBRANCH  24  25
ENDBRANCH  23  24
ENDBRANCH   4  23
TORSDOF 9
ENDMDL
