MODEL 1
REMARK VINA RESULT:      -8.1      0.000      0.000
REMARK  Name = 2475
REMARK  7 active torsions:
REMARK  status: ('A' for Active; 'I' for Inactive)
REMARK    1  A    between atoms: C_1  and  O_2
REMARK    2  A    between atoms: C_1  and  C_4
REMARK    3  A    between atoms: C_1  and  C_12
REMARK    4  A    between atoms: C_4  and  N_5
REMARK    5  A    between atoms: N_5  and  C_8
REMARK    6  A    between atoms: C_12  and  O_13
REMARK    7  A    between atoms: O_13  and  C_15
REMARK                            x       y       z     vdW  Elec       q    Type
REMARK                         _______ _______ _______ _____ _____    ______ ____
ROOT
ATOM      1  C   UNL     1      36.265 -22.410 -16.148  0.00  0.00    +0.133 C 
ENDROOT
BRANCH   1   2
ATOM      2  O   UNL     1      35.504 -23.584 -16.439  0.00  0.00    -0.383 OA
ATOM      3  H   UNL     1      35.453 -24.142 -15.647  0.00  0.00    +0.210 HD
ENDBRANCH   1   2
BRANCH   1   4
ATOM      4  C   UNL     1      37.407 -22.802 -15.207  0.00  0.00    -0.048 C 
BRANCH   4   5
ATOM      5  N   UNL     1      38.125 -23.974 -15.677  0.00  0.00    +0.388 N 
ATOM      6  H   UNL     1      37.625 -24.378 -16.470  0.00  0.00    -0.084 HD
ATOM      7  H   UNL     1      39.064 -23.693 -15.959  0.00  0.00    -0.084 HD
BRANCH   5   8
ATOM      8  C   UNL     1      38.230 -24.976 -14.612  0.00  0.00    -0.046 C 
ATOM      9  C   UNL     1      39.692 -25.421 -14.501  0.00  0.00    -0.022 C 
ATOM     10  C   UNL     1      37.774 -24.338 -13.295  0.00  0.00    -0.022 C 
ATOM     11  C   UNL     1      37.339 -26.176 -14.952  0.00  0.00    -0.022 C 
ENDBRANCH   5   8
ENDBRANCH   4   5
ENDBRANCH   1   4
BRANCH   1  12
ATOM     12  C   UNL     1      36.748 -21.801 -17.463  0.00  0.00    +0.232 C 
BRANCH  12  13
ATOM     13  O   UNL     1      35.991 -22.360 -18.533  0.00  0.00    -0.472 OA
BRANCH  13  15
ATOM     14 CL   UNL     1      33.001 -22.569 -18.299  0.00  0.00    -0.079 Cl
ATOM     15  C   UNL     1      35.282 -21.482 -19.308  0.00  0.00    +0.149 C 
ATOM     16  C   UNL     1      35.983 -20.591 -20.116  0.00  0.00    +0.034 C 
ATOM     17  C   UNL     1      33.890 -21.475 -19.292  0.00  0.00    +0.091 C 
ATOM     18  C   UNL     1      35.286 -19.685 -20.914  0.00  0.00    -0.019 C 
ATOM     19  C   UNL     1      33.892 -19.673 -20.903  0.00  0.00    -0.003 C 
ATOM     20  C   UNL     1      33.194 -20.568 -20.092  0.00  0.00    +0.014 C 
ATOM     21  C   UNL     1      36.032 -18.728 -21.782  0.00  0.00    +0.031 C 
ENDBRANCH  13  15
ENDBRANCH  12  13
ENDBRANCH   1  12
TORSDOF 7
ENDMDL
MODEL 2
REMARK VINA RESULT:      -7.6      5.460      8.935
REMARK  Name = 2475
REMARK  7 active torsions:
REMARK  status: ('A' for Active; 'I' for Inactive)
REMARK    1  A    between atoms: C_1  and  O_2
REMARK    2  A    between atoms: C_1  and  C_4
REMARK    3  A    between atoms: C_1  and  C_12
REMARK    4  A    between atoms: C_4  and  N_5
REMARK    5  A    between atoms: N_5  and  C_8
REMARK    6  A    between atoms: C_12  and  O_13
REMARK    7  A    between atoms: O_13  and  C_15
REMARK                            x       y       z     vdW  Elec       q    Type
REMARK                         _______ _______ _______ _____ _____    ______ ____
ROOT
ATOM      1  C   UNL     1      34.988 -17.298 -24.243  0.00  0.00    +0.133 C 
ENDROOT
BRANCH   1   2
ATOM      2  O   UNL     1      34.160 -17.142 -25.398  0.00  0.00    -0.383 OA
ATOM      3  H   UNL     1      33.838 -18.011 -25.685  0.00  0.00    +0.210 HD
ENDBRANCH   1   2
BRANCH   1   4
ATOM      4  C   UNL     1      34.849 -16.041 -23.382  0.00  0.00    -0.048 C 
BRANCH   4   5
ATOM      5  N   UNL     1      33.459 -15.688 -23.148  0.00  0.00    +0.388 N 
ATOM      6  H   UNL     1      33.130 -15.099 -23.914  0.00  0.00    -0.084 HD
ATOM      7  H   UNL     1      32.907 -16.544 -23.101  0.00  0.00    -0.084 HD
BRANCH   5   8
ATOM      8  C   UNL     1      33.317 -14.960 -21.884  0.00  0.00    -0.046 C 
ATOM      9  C   UNL     1      34.706 -14.787 -21.260  0.00  0.00    -0.022 C 
ATOM     10  C   UNL     1      32.698 -13.589 -22.177  0.00  0.00    -0.022 C 
ATOM     11  C   UNL     1      32.411 -15.756 -20.938  0.00  0.00    -0.022 C 
ENDBRANCH   5   8
ENDBRANCH   4   5
ENDBRANCH   1   4
BRANCH   1  12
ATOM     12  C   UNL     1      34.576 -18.577 -23.516  0.00  0.00    +0.232 C 
BRANCH  12  13
ATOM     13  O   UNL     1      34.461 -18.298 -22.124  0.00  0.00    -0.472 OA
BRANCH  13  15
ATOM     14 CL   UNL     1      37.427 -18.646 -21.777  0.00  0.00    -0.079 Cl
ATOM     15  C   UNL     1      34.836 -19.296 -21.264  0.00  0.00    +0.149 C 
ATOM     16  C   UNL     1      33.842 -20.044 -20.640  0.00  0.00    +0.034 C 
ATOM     17  C   UNL     1      36.179 -19.560 -21.015  0.00  0.00    +0.091 C 
ATOM     18  C   UNL     1      34.194 -21.065 -19.758  0.00  0.00    -0.019 C 
ATOM     19  C   UNL     1      35.539 -21.335 -19.505  0.00  0.00    -0.003 C 
ATOM     20  C   UNL     1      36.531 -20.582 -20.133  0.00  0.00    +0.014 C 
ATOM     21  C   UNL     1      33.134 -21.870 -19.086  0.00  0.00    +0.031 C 
ENDBRANCH  13  15
ENDBRANCH  12  13
ENDBRANCH   1  12
TORSDOF 7
ENDMDL
MODEL 3
REMARK VINA RESULT:      -7.6      6.617      9.465
REMARK  Name = 2475
REMARK  7 active torsions:
REMARK  status: ('A' for Active; 'I' for Inactive)
REMARK    1  A    between atoms: C_1  and  O_2
REMARK    2  A    between atoms: C_1  and  C_4
REMARK    3  A    between atoms: C_1  and  C_12
REMARK    4  A    between atoms: C_4  and  N_5
REMARK    5  A    between atoms: N_5  and  C_8
REMARK    6  A    between atoms: C_12  and  O_13
REMARK    7  A    between atoms: O_13  and  C_15
REMARK                            x       y       z     vdW  Elec       q    Type
REMARK                         _______ _______ _______ _____ _____    ______ ____
ROOT
ATOM      1  C   UNL     1      34.577 -15.540 -21.569  0.00  0.00    +0.133 C 
ENDROOT
BRANCH   1   2
ATOM      2  O   UNL     1      34.884 -15.276 -20.198  0.00  0.00    -0.383 OA
ATOM      3  H   UNL     1      34.570 -16.012 -19.649  0.00  0.00    +0.210 HD
ENDBRANCH   1   2
BRANCH   1   4
ATOM      4  C   UNL     1      34.144 -17.003 -21.689  0.00  0.00    -0.048 C 
BRANCH   4   5
ATOM      5  N   UNL     1      34.961 -17.884 -20.872  0.00  0.00    +0.388 N 
ATOM      6  H   UNL     1      35.945 -17.649 -21.005  0.00  0.00    -0.084 HD
ATOM      7  H   UNL     1      34.700 -17.761 -19.894  0.00  0.00    -0.084 HD
BRANCH   5   8
ATOM      8  C   UNL     1      34.745 -19.284 -21.248  0.00  0.00    -0.046 C 
ATOM      9  C   UNL     1      34.848 -19.403 -22.773  0.00  0.00    -0.022 C 
ATOM     10  C   UNL     1      35.826 -20.141 -20.580  0.00  0.00    -0.022 C 
ATOM     11  C   UNL     1      33.355 -19.729 -20.779  0.00  0.00    -0.022 C 
ENDBRANCH   5   8
ENDBRANCH   4   5
ENDBRANCH   1   4
BRANCH   1  12
ATOM     12  C   UNL     1      33.505 -14.553 -22.028  0.00  0.00    +0.232 C 
BRANCH  12  13
ATOM     13  O   UNL     1      33.185 -14.823 -23.390  0.00  0.00    -0.472 OA
BRANCH  13  15
ATOM     14 CL   UNL     1      32.798 -15.554 -26.280  0.00  0.00    -0.079 Cl
ATOM     15  C   UNL     1      33.392 -13.805 -24.282  0.00  0.00    +0.149 C 
ATOM     16  C   UNL     1      33.752 -12.553 -23.792  0.00  0.00    +0.034 C 
ATOM     17  C   UNL     1      33.245 -14.011 -25.651  0.00  0.00    +0.091 C 
ATOM     18  C   UNL     1      33.968 -11.498 -24.679  0.00  0.00    -0.019 C 
ATOM     19  C   UNL     1      33.822 -11.699 -26.051  0.00  0.00    -0.003 C 
ATOM     20  C   UNL     1      33.461 -12.956 -26.537  0.00  0.00    +0.014 C 
ATOM     21  C   UNL     1      34.355 -10.154 -24.159  0.00  0.00    +0.031 C 
ENDBRANCH  13  15
ENDBRANCH  12  13
ENDBRANCH   1  12
TORSDOF 7
ENDMDL
MODEL 4
REMARK VINA RESULT:      -7.6      5.492      9.840
REMARK  Name = 2475
REMARK  7 active torsions:
REMARK  status: ('A' for Active; 'I' for Inactive)
REMARK    1  A    between atoms: C_1  and  O_2
REMARK    2  A    between atoms: C_1  and  C_4
REMARK    3  A    between atoms: C_1  and  C_12
REMARK    4  A    between atoms: C_4  and  N_5
REMARK    5  A    between atoms: N_5  and  C_8
REMARK    6  A    between atoms: C_12  and  O_13
REMARK    7  A    between atoms: O_13  and  C_15
REMARK                            x       y       z     vdW  Elec       q    Type
REMARK                         _______ _______ _______ _____ _____    ______ ____
ROOT
ATOM      1  C   UNL     1      34.858 -16.044 -21.960  0.00  0.00    +0.133 C 
ENDROOT
BRANCH   1   2
ATOM      2  O   UNL     1      35.272 -16.434 -23.271  0.00  0.00    -0.383 OA
ATOM      3  H   UNL     1      35.133 -17.388 -23.384  0.00  0.00    +0.210 HD
ENDBRANCH   1   2
BRANCH   1   4
ATOM      4  C   UNL     1      34.082 -14.730 -22.074  0.00  0.00    -0.048 C 
BRANCH   4   5
ATOM      5  N   UNL     1      34.527 -13.928 -23.202  0.00  0.00    +0.388 N 
ATOM      6  H   UNL     1      35.127 -13.176 -22.862  0.00  0.00    -0.084 HD
ATOM      7  H   UNL     1      35.044 -14.526 -23.846  0.00  0.00    -0.084 HD
BRANCH   5   8
ATOM      8  C   UNL     1      33.380 -13.349 -23.908  0.00  0.00    -0.046 C 
ATOM      9  C   UNL     1      33.796 -11.992 -24.486  0.00  0.00    -0.022 C 
ATOM     10  C   UNL     1      32.973 -14.300 -25.039  0.00  0.00    -0.022 C 
ATOM     11  C   UNL     1      32.216 -13.169 -22.927  0.00  0.00    -0.022 C 
ENDBRANCH   5   8
ENDBRANCH   4   5
ENDBRANCH   1   4
BRANCH   1  12
ATOM     12  C   UNL     1      34.038 -17.178 -21.349  0.00  0.00    +0.232 C 
BRANCH  12  13
ATOM     13  O   UNL     1      34.421 -18.405 -21.962  0.00  0.00    -0.472 OA
BRANCH  13  15
ATOM     14 CL   UNL     1      37.392 -18.762 -21.672  0.00  0.00    -0.079 Cl
ATOM     15  C   UNL     1      34.809 -19.417 -21.124  0.00  0.00    +0.149 C 
ATOM     16  C   UNL     1      33.825 -20.173 -20.494  0.00  0.00    +0.034 C 
ATOM     17  C   UNL     1      36.156 -19.686 -20.902  0.00  0.00    +0.091 C 
ATOM     18  C   UNL     1      34.191 -21.208 -19.634  0.00  0.00    -0.019 C 
ATOM     19  C   UNL     1      35.540 -21.483 -19.408  0.00  0.00    -0.003 C 
ATOM     20  C   UNL     1      36.522 -20.722 -20.042  0.00  0.00    +0.014 C 
ATOM     21  C   UNL     1      33.141 -22.022 -18.956  0.00  0.00    +0.031 C 
ENDBRANCH  13  15
ENDBRANCH  12  13
ENDBRANCH   1  12
TORSDOF 7
ENDMDL
MODEL 5
REMARK VINA RESULT:      -7.5      8.208     10.995
REMARK  Name = 2475
REMARK  7 active torsions:
REMARK  status: ('A' for Active; 'I' for Inactive)
REMARK    1  A    between atoms: C_1  and  O_2
REMARK    2  A    between atoms: C_1  and  C_4
REMARK    3  A    between atoms: C_1  and  C_12
REMARK    4  A    between atoms: C_4  and  N_5
REMARK    5  A    between atoms: N_5  and  C_8
REMARK    6  A    between atoms: C_12  and  O_13
REMARK    7  A    between atoms: O_13  and  C_15
REMARK                            x       y       z     vdW  Elec       q    Type
REMARK                         _______ _______ _______ _____ _____    ______ ____
ROOT
ATOM      1  C   UNL     1      33.784 -15.679 -24.673  0.00  0.00    +0.133 C 
ENDROOT
BRANCH   1   2
ATOM      2  O   UNL     1      34.452 -16.127 -25.855  0.00  0.00    -0.383 OA
ATOM      3  H   UNL     1      34.730 -17.049 -25.739  0.00  0.00    +0.210 HD
ENDBRANCH   1   2
BRANCH   1   4
ATOM      4  C   UNL     1      34.761 -15.792 -23.500  0.00  0.00    -0.048 C 
BRANCH   4   5
ATOM      5  N   UNL     1      35.641 -16.941 -23.630  0.00  0.00    +0.388 N 
ATOM      6  H   UNL     1      35.483 -17.383 -24.536  0.00  0.00    -0.084 HD
ATOM      7  H   UNL     1      36.608 -16.624 -23.557  0.00  0.00    -0.084 HD
BRANCH   5   8
ATOM      8  C   UNL     1      35.379 -17.915 -22.566  0.00  0.00    -0.046 C 
ATOM      9  C   UNL     1      34.536 -19.056 -23.144  0.00  0.00    -0.022 C 
ATOM     10  C   UNL     1      36.721 -18.456 -22.060  0.00  0.00    -0.022 C 
ATOM     11  C   UNL     1      34.624 -17.229 -21.422  0.00  0.00    -0.022 C 
ENDBRANCH   5   8
ENDBRANCH   4   5
ENDBRANCH   1   4
BRANCH   1  12
ATOM     12  C   UNL     1      33.283 -14.255 -24.905  0.00  0.00    +0.232 C 
BRANCH  12  13
ATOM     13  O   UNL     1      34.050 -13.360 -24.105  0.00  0.00    -0.472 OA
BRANCH  13  15
ATOM     14 CL   UNL     1      34.895 -10.796 -25.427  0.00  0.00    -0.079 Cl
ATOM     15  C   UNL     1      33.411 -12.234 -23.657  0.00  0.00    +0.149 C 
ATOM     16  C   UNL     1      32.452 -12.366 -22.658  0.00  0.00    +0.034 C 
ATOM     17  C   UNL     1      33.710 -10.983 -24.188  0.00  0.00    +0.091 C 
ATOM     18  C   UNL     1      31.785 -11.236 -22.184  0.00  0.00    -0.019 C 
ATOM     19  C   UNL     1      32.081  -9.980 -22.712  0.00  0.00    -0.003 C 
ATOM     20  C   UNL     1      33.043  -9.853 -23.714  0.00  0.00    +0.014 C 
ATOM     21  C   UNL     1      30.756 -11.371 -21.113  0.00  0.00    +0.031 C 
ENDBRANCH  13  15
ENDBRANCH  12  13
ENDBRANCH   1  12
TORSDOF 7
ENDMDL
MODEL 6
REMARK VINA RESULT:      -7.5      7.051      9.630
REMARK  Name = 2475
REMARK  7 active torsions:
REMARK  status: ('A' for Active; 'I' for Inactive)
REMARK    1  A    between atoms: C_1  and  O_2
REMARK    2  A    between atoms: C_1  and  C_4
REMARK    3  A    between atoms: C_1  and  C_12
REMARK    4  A    between atoms: C_4  and  N_5
REMARK    5  A    between atoms: N_5  and  C_8
REMARK    6  A    between atoms: C_12  and  O_13
REMARK    7  A    between atoms: O_13  and  C_15
REMARK                            x       y       z     vdW  Elec       q    Type
REMARK                         _______ _______ _______ _____ _____    ______ ____
ROOT
ATOM      1  C   UNL     1      34.259 -15.524 -21.163  0.00  0.00    +0.133 C 
ENDROOT
BRANCH   1   2
ATOM      2  O   UNL     1      34.972 -15.527 -19.924  0.00  0.00    -0.383 OA
ATOM      3  H   UNL     1      35.663 -14.846 -19.947  0.00  0.00    +0.210 HD
ENDBRANCH   1   2
BRANCH   1   4
ATOM      4  C   UNL     1      34.328 -16.931 -21.759  0.00  0.00    -0.048 C 
BRANCH   4   5
ATOM      5  N   UNL     1      35.009 -17.865 -20.878  0.00  0.00    +0.388 N 
ATOM      6  H   UNL     1      36.015 -17.696 -20.922  0.00  0.00    -0.084 HD
ATOM      7  H   UNL     1      34.671 -17.725 -19.926  0.00  0.00    -0.084 HD
BRANCH   5   8
ATOM      8  C   UNL     1      34.734 -19.248 -21.281  0.00  0.00    -0.046 C 
ATOM      9  C   UNL     1      33.314 -19.614 -20.835  0.00  0.00    -0.022 C 
ATOM     10  C   UNL     1      34.847 -19.343 -22.806  0.00  0.00    -0.022 C 
ATOM     11  C   UNL     1      35.752 -20.183 -20.618  0.00  0.00    -0.022 C 
ENDBRANCH   5   8
ENDBRANCH   4   5
ENDBRANCH   1   4
BRANCH   1  12
ATOM     12  C   UNL     1      32.831 -15.048 -20.903  0.00  0.00    +0.232 C 
BRANCH  12  13
ATOM     13  O   UNL     1      32.363 -14.349 -22.052  0.00  0.00    -0.472 OA
BRANCH  13  15
ATOM     14 CL   UNL     1      33.256 -12.744 -24.433  0.00  0.00    -0.079 Cl
ATOM     15  C   UNL     1      32.218 -12.992 -21.930  0.00  0.00    +0.149 C 
ATOM     16  C   UNL     1      31.684 -12.484 -20.750  0.00  0.00    +0.034 C 
ATOM     17  C   UNL     1      32.593 -12.136 -22.961  0.00  0.00    +0.091 C 
ATOM     18  C   UNL     1      31.525 -11.107 -20.599  0.00  0.00    -0.019 C 
ATOM     19  C   UNL     1      31.899 -10.244 -21.628  0.00  0.00    -0.003 C 
ATOM     20  C   UNL     1      32.434 -10.759 -22.809  0.00  0.00    +0.014 C 
ATOM     21  C   UNL     1      30.953 -10.556 -19.335  0.00  0.00    +0.031 C 
ENDBRANCH  13  15
ENDBRANCH  12  13
ENDBRANCH   1  12
TORSDOF 7
ENDMDL
MODEL 7
REMARK VINA RESULT:      -7.4      7.273     11.570
REMARK  Name = 2475
REMARK  7 active torsions:
REMARK  status: ('A' for Active; 'I' for Inactive)
REMARK    1  A    between atoms: C_1  and  O_2
REMARK    2  A    between atoms: C_1  and  C_4
REMARK    3  A    between atoms: C_1  and  C_12
REMARK    4  A    between atoms: C_4  and  N_5
REMARK    5  A    between atoms: N_5  and  C_8
REMARK    6  A    between atoms: C_12  and  O_13
REMARK    7  A    between atoms: O_13  and  C_15
REMARK                            x       y       z     vdW  Elec       q    Type
REMARK                         _______ _______ _______ _____ _____    ______ ____
ROOT
ATOM      1  C   UNL     1      32.948 -13.990 -22.597  0.00  0.00    +0.133 C 
ENDROOT
BRANCH   1   2
ATOM      2  O   UNL     1      32.387 -13.018 -21.712  0.00  0.00    -0.383 OA
ATOM      3  H   UNL     1      31.979 -13.467 -20.955  0.00  0.00    +0.210 HD
ENDBRANCH   1   2
BRANCH   1   4
ATOM      4  C   UNL     1      33.340 -13.283 -23.897  0.00  0.00    -0.048 C 
BRANCH   4   5
ATOM      5  N   UNL     1      34.264 -12.186 -23.665  0.00  0.00    +0.388 N 
ATOM      6  H   UNL     1      34.145 -11.843 -22.711  0.00  0.00    -0.084 HD
ATOM      7  H   UNL     1      35.217 -12.524 -23.801  0.00  0.00    -0.084 HD
BRANCH   5   8
ATOM      8  C   UNL     1      34.011 -11.091 -24.607  0.00  0.00    -0.046 C 
ATOM      9  C   UNL     1      35.288 -10.255 -24.739  0.00  0.00    -0.022 C 
ATOM     10  C   UNL     1      33.636 -11.694 -25.966  0.00  0.00    -0.022 C 
ATOM     11  C   UNL     1      32.864 -10.222 -24.081  0.00  0.00    -0.022 C 
ENDBRANCH   5   8
ENDBRANCH   4   5
ENDBRANCH   1   4
BRANCH   1  12
ATOM     12  C   UNL     1      34.125 -14.666 -21.898  0.00  0.00    +0.232 C 
BRANCH  12  13
ATOM     13  O   UNL     1      34.991 -15.218 -22.885  0.00  0.00    -0.472 OA
BRANCH  13  15
ATOM     14 CL   UNL     1      34.249 -16.171 -25.638  0.00  0.00    -0.079 Cl
ATOM     15  C   UNL     1      34.955 -16.578 -23.042  0.00  0.00    +0.149 C 
ATOM     16  C   UNL     1      35.257 -17.382 -21.947  0.00  0.00    +0.034 C 
ATOM     17  C   UNL     1      34.626 -17.149 -24.268  0.00  0.00    +0.091 C 
ATOM     18  C   UNL     1      35.230 -18.770 -22.079  0.00  0.00    -0.019 C 
ATOM     19  C   UNL     1      34.900 -19.348 -23.305  0.00  0.00    -0.003 C 
ATOM     20  C   UNL     1      34.599 -18.537 -24.399  0.00  0.00    +0.014 C 
ATOM     21  C   UNL     1      35.552 -19.638 -20.909  0.00  0.00    +0.031 C 
ENDBRANCH  13  15
ENDBRANCH  12  13
ENDBRANCH   1  12
TORSDOF 7
ENDMDL
MODEL 8
REMARK VINA RESULT:      -7.4      7.516     10.291
REMARK  Name = 2475
REMARK  7 active torsions:
REMARK  status: ('A' for Active; 'I' for Inactive)
REMARK    1  A    between atoms: C_1  and  O_2
REMARK    2  A    between atoms: C_1  and  C_4
REMARK    3  A    between atoms: C_1  and  C_12
REMARK    4  A    between atoms: C_4  and  N_5
REMARK    5  A    between atoms: N_5  and  C_8
REMARK    6  A    between atoms: C_12  and  O_13
REMARK    7  A    between atoms: O_13  and  C_15
REMARK                            x       y       z     vdW  Elec       q    Type
REMARK                         _______ _______ _______ _____ _____    ______ ____
ROOT
ATOM      1  C   UNL     1      33.612 -15.385 -22.403  0.00  0.00    +0.133 C 
ENDROOT
BRANCH   1   2
ATOM      2  O   UNL     1      34.889 -15.055 -22.954  0.00  0.00    -0.383 OA
ATOM      3  H   UNL     1      35.381 -14.505 -22.324  0.00  0.00    +0.210 HD
ENDBRANCH   1   2
BRANCH   1   4
ATOM      4  C   UNL     1      33.811 -16.488 -21.362  0.00  0.00    -0.048 C 
BRANCH   4   5
ATOM      5  N   UNL     1      35.168 -17.007 -21.367  0.00  0.00    +0.388 N 
ATOM      6  H   UNL     1      35.708 -16.527 -22.088  0.00  0.00    -0.084 HD
ATOM      7  H   UNL     1      35.585 -16.845 -20.450  0.00  0.00    -0.084 HD
BRANCH   5   8
ATOM      8  C   UNL     1      35.170 -18.447 -21.641  0.00  0.00    -0.046 C 
ATOM      9  C   UNL     1      35.283 -18.657 -23.154  0.00  0.00    -0.022 C 
ATOM     10  C   UNL     1      36.374 -19.077 -20.932  0.00  0.00    -0.022 C 
ATOM     11  C   UNL     1      33.869 -19.066 -21.119  0.00  0.00    -0.022 C 
ENDBRANCH   5   8
ENDBRANCH   4   5
ENDBRANCH   1   4
BRANCH   1  12
ATOM     12  C   UNL     1      32.986 -14.116 -21.826  0.00  0.00    +0.232 C 
BRANCH  12  13
ATOM     13  O   UNL     1      32.295 -13.430 -22.866  0.00  0.00    -0.472 OA
BRANCH  13  15
ATOM     14 CL   UNL     1      30.779 -11.381 -21.273  0.00  0.00    -0.079 Cl
ATOM     15  C   UNL     1      32.659 -12.129 -23.091  0.00  0.00    +0.149 C 
ATOM     16  C   UNL     1      33.671 -11.871 -24.011  0.00  0.00    +0.034 C 
ATOM     17  C   UNL     1      32.034 -11.084 -22.417  0.00  0.00    +0.091 C 
ATOM     18  C   UNL     1      34.062 -10.556 -24.260  0.00  0.00    -0.019 C 
ATOM     19  C   UNL     1      33.440  -9.504 -23.588  0.00  0.00    -0.003 C 
ATOM     20  C   UNL     1      32.426  -9.768 -22.667  0.00  0.00    +0.014 C 
ATOM     21  C   UNL     1      35.146 -10.273 -25.245  0.00  0.00    +0.031 C 
ENDBRANCH  13  15
ENDBRANCH  12  13
ENDBRANCH   1  12
TORSDOF 7
ENDMDL
MODEL 9
REMARK VINA RESULT:      -7.4      7.476     10.272
REMARK  Name = 2475
REMARK  7 active torsions:
REMARK  status: ('A' for Active; 'I' for Inactive)
REMARK    1  A    between atoms: C_1  and  O_2
REMARK    2  A    between atoms: C_1  and  C_4
REMARK    3  A    between atoms: C_1  and  C_12
REMARK    4  A    between atoms: C_4  and  N_5
REMARK    5  A    between atoms: N_5  and  C_8
REMARK    6  A    between atoms: C_12  and  O_13
REMARK    7  A    between atoms: O_13  and  C_15
REMARK                            x       y       z     vdW  Elec       q    Type
REMARK                         _______ _______ _______ _____ _____    ______ ____
ROOT
ATOM      1  C   UNL     1      33.970 -15.982 -24.617  0.00  0.00    +0.133 C 
ENDROOT
BRANCH   1   2
ATOM      2  O   UNL     1      34.530 -16.445 -25.848  0.00  0.00    -0.383 OA
ATOM      3  H   UNL     1      34.116 -15.974 -26.589  0.00  0.00    +0.210 HD
ENDBRANCH   1   2
BRANCH   1   4
ATOM      4  C   UNL     1      35.025 -16.145 -23.521  0.00  0.00    -0.048 C 
BRANCH   4   5
ATOM      5  N   UNL     1      35.620 -17.470 -23.526  0.00  0.00    +0.388 N 
ATOM      6  H   UNL     1      35.160 -18.042 -24.236  0.00  0.00    -0.084 HD
ATOM      7  H   UNL     1      36.614 -17.383 -23.735  0.00  0.00    -0.084 HD
BRANCH   5   8
ATOM      8  C   UNL     1      35.464 -18.110 -22.216  0.00  0.00    -0.046 C 
ATOM      9  C   UNL     1      34.997 -17.055 -21.208  0.00  0.00    -0.022 C 
ATOM     10  C   UNL     1      34.416 -19.221 -22.338  0.00  0.00    -0.022 C 
ATOM     11  C   UNL     1      36.808 -18.700 -21.775  0.00  0.00    -0.022 C 
ENDBRANCH   5   8
ENDBRANCH   4   5
ENDBRANCH   1   4
BRANCH   1  12
ATOM     12  C   UNL     1      33.508 -14.538 -24.803  0.00  0.00    +0.232 C 
BRANCH  12  13
ATOM     13  O   UNL     1      34.099 -13.732 -23.787  0.00  0.00    -0.472 OA
BRANCH  13  15
ATOM     14 CL   UNL     1      32.336 -14.711 -21.557  0.00  0.00    -0.079 Cl
ATOM     15  C   UNL     1      33.299 -12.780 -23.215  0.00  0.00    +0.149 C 
ATOM     16  C   UNL     1      33.366 -11.477 -23.698  0.00  0.00    +0.034 C 
ATOM     17  C   UNL     1      32.436 -13.102 -22.171  0.00  0.00    +0.091 C 
ATOM     18  C   UNL     1      32.563 -10.486 -23.132  0.00  0.00    -0.019 C 
ATOM     19  C   UNL     1      31.696 -10.803 -22.087  0.00  0.00    -0.003 C 
ATOM     20  C   UNL     1      31.632 -12.111 -21.607  0.00  0.00    +0.014 C 
ATOM     21  C   UNL     1      32.631  -9.087 -23.646  0.00  0.00    +0.031 C 
ENDBRANCH  13  15
ENDBRANCH  12  13
ENDBRANCH   1  12
TORSDOF 7
ENDMDL
