MODEL 1
REMARK VINA RESULT:      -7.5      0.000      0.000
REMARK  Name = 75019
REMARK  6 active torsions:
REMARK  status: ('A' for Active; 'I' for Inactive)
REMARK    1  A    between atoms: C_1  and  C_11
REMARK    2  A    between atoms: C_4  and  O_7
REMARK    3  A    between atoms: C_5  and  O_9
REMARK    4  A    between atoms: C_11  and  C_12
REMARK    5  A    between atoms: C_12  and  C_14
REMARK    6  A    between atoms: C_14  and  O_15
REMARK                            x       y       z     vdW  Elec       q    Type
REMARK                         _______ _______ _______ _____ _____    ______ ____
ROOT
ATOM      1  C   UNL     1      34.842 -18.623 -22.529  0.00  0.00    -0.018 C 
ATOM      2  C   UNL     1      35.026 -17.245 -22.414  0.00  0.00    +0.036 C 
ATOM      3  C   UNL     1      34.545 -19.185 -23.771  0.00  0.00    -0.001 C 
ATOM      4  C   UNL     1      34.915 -16.430 -23.539  0.00  0.00    +0.172 C 
ATOM      5  C   UNL     1      34.618 -16.991 -24.781  0.00  0.00    +0.172 C 
ATOM      6  C   UNL     1      34.434 -18.369 -24.896  0.00  0.00    +0.040 C 
ENDROOT
BRANCH   4   7
ATOM      7  O   UNL     1      35.097 -15.086 -23.413  0.00  0.00    -0.468 OA
ATOM      8  C   UNL     1      34.178 -14.381 -22.580  0.00  0.00    +0.253 C 
ENDBRANCH   4   7
BRANCH   5   9
ATOM      9  O   UNL     1      34.508 -16.205 -25.887  0.00  0.00    -0.468 OA
ATOM     10  C   UNL     1      33.261 -15.542 -26.089  0.00  0.00    +0.253 C 
ENDBRANCH   5   9
BRANCH   1  11
ATOM     11  C   UNL     1      34.963 -19.495 -21.326  0.00  0.00    +0.038 C 
BRANCH  11  12
ATOM     12  C   UNL     1      33.613 -19.963 -20.765  0.00  0.00    +0.114 C 
BRANCH  12  14
ATOM     13  O   UNL     1      32.848 -21.868 -19.492  0.00  0.00    -0.250 OA
ATOM     14  C   UNL     1      33.773 -21.145 -19.841  0.00  0.00    +0.314 C 
BRANCH  14  15
ATOM     15  O   UNL     1      35.048 -21.310 -19.411  0.00  0.00    -0.480 OA
ATOM     16  H   UNL     1      35.509 -22.102 -19.604  0.00  0.00    +0.295 HD
ENDBRANCH  14  15
ENDBRANCH  12  14
ENDBRANCH  11  12
ENDBRANCH   1  11
TORSDOF 6
ENDMDL
MODEL 2
REMARK VINA RESULT:      -7.4      6.550      9.384
REMARK  Name = 75019
REMARK  6 active torsions:
REMARK  status: ('A' for Active; 'I' for Inactive)
REMARK    1  A    between atoms: C_1  and  C_11
REMARK    2  A    between atoms: C_4  and  O_7
REMARK    3  A    between atoms: C_5  and  O_9
REMARK    4  A    between atoms: C_11  and  C_12
REMARK    5  A    between atoms: C_12  and  C_14
REMARK    6  A    between atoms: C_14  and  O_15
REMARK                            x       y       z     vdW  Elec       q    Type
REMARK                         _______ _______ _______ _____ _____    ______ ____
ROOT
ATOM      1  C   UNL     1      31.619 -23.122 -15.572  0.00  0.00    -0.018 C 
ATOM      2  C   UNL     1      32.071 -23.155 -16.892  0.00  0.00    +0.036 C 
ATOM      3  C   UNL     1      32.528 -23.243 -14.520  0.00  0.00    -0.001 C 
ATOM      4  C   UNL     1      33.431 -23.308 -17.160  0.00  0.00    +0.172 C 
ATOM      5  C   UNL     1      34.340 -23.428 -16.109  0.00  0.00    +0.172 C 
ATOM      6  C   UNL     1      33.888 -23.395 -14.790  0.00  0.00    +0.040 C 
ENDROOT
BRANCH   4   7
ATOM      7  O   UNL     1      33.860 -23.338 -18.452  0.00  0.00    -0.468 OA
ATOM      8  C   UNL     1      33.937 -22.090 -19.139  0.00  0.00    +0.253 C 
ENDBRANCH   4   7
BRANCH   5   9
ATOM      9  O   UNL     1      35.670 -23.577 -16.358  0.00  0.00    -0.468 OA
ATOM     10  C   UNL     1      36.509 -22.452 -16.097  0.00  0.00    +0.253 C 
ENDBRANCH   5   9
BRANCH   1  11
ATOM     11  C   UNL     1      30.165 -22.957 -15.285  0.00  0.00    +0.038 C 
BRANCH  11  12
ATOM     12  C   UNL     1      29.276 -23.985 -15.998  0.00  0.00    +0.114 C 
BRANCH  12  14
ATOM     13  O   UNL     1      27.526 -23.937 -17.663  0.00  0.00    -0.250 OA
ATOM     14  C   UNL     1      28.334 -23.325 -16.974  0.00  0.00    +0.314 C 
BRANCH  14  15
ATOM     15  O   UNL     1      28.493 -21.980 -17.033  0.00  0.00    -0.480 OA
ATOM     16  H   UNL     1      28.565 -21.482 -16.244  0.00  0.00    +0.295 HD
ENDBRANCH  14  15
ENDBRANCH  12  14
ENDBRANCH  11  12
ENDBRANCH   1  11
TORSDOF 6
ENDMDL
MODEL 3
REMARK VINA RESULT:      -7.3      1.725      6.741
REMARK  Name = 75019
REMARK  6 active torsions:
REMARK  status: ('A' for Active; 'I' for Inactive)
REMARK    1  A    between atoms: C_1  and  C_11
REMARK    2  A    between atoms: C_4  and  O_7
REMARK    3  A    between atoms: C_5  and  O_9
REMARK    4  A    between atoms: C_11  and  C_12
REMARK    5  A    between atoms: C_12  and  C_14
REMARK    6  A    between atoms: C_14  and  O_15
REMARK                            x       y       z     vdW  Elec       q    Type
REMARK                         _______ _______ _______ _____ _____    ______ ____
ROOT
ATOM      1  C   UNL     1      34.576 -19.671 -20.954  0.00  0.00    -0.018 C 
ATOM      2  C   UNL     1      35.678 -20.291 -20.367  0.00  0.00    +0.036 C 
ATOM      3  C   UNL     1      33.291 -20.159 -20.714  0.00  0.00    -0.001 C 
ATOM      4  C   UNL     1      35.497 -21.399 -19.540  0.00  0.00    +0.172 C 
ATOM      5  C   UNL     1      34.213 -21.888 -19.300  0.00  0.00    +0.172 C 
ATOM      6  C   UNL     1      33.110 -21.267 -19.886  0.00  0.00    +0.040 C 
ENDROOT
BRANCH   4   7
ATOM      7  O   UNL     1      36.582 -21.997 -18.972  0.00  0.00    -0.468 OA
ATOM      8  C   UNL     1      36.887 -21.641 -17.625  0.00  0.00    +0.253 C 
ENDBRANCH   4   7
BRANCH   5   9
ATOM      9  O   UNL     1      34.023 -22.969 -18.493  0.00  0.00    -0.468 OA
ATOM     10  C   UNL     1      32.931 -22.910 -17.577  0.00  0.00    +0.253 C 
ENDBRANCH   5   9
BRANCH   1  11
ATOM     11  C   UNL     1      34.769 -18.485 -21.837  0.00  0.00    +0.038 C 
BRANCH  11  12
ATOM     12  C   UNL     1      35.019 -18.845 -23.307  0.00  0.00    +0.114 C 
BRANCH  12  14
ATOM     13  O   UNL     1      34.619 -17.567 -25.318  0.00  0.00    -0.250 OA
ATOM     14  C   UNL     1      35.073 -17.616 -24.181  0.00  0.00    +0.314 C 
BRANCH  14  15
ATOM     15  O   UNL     1      35.702 -16.574 -23.586  0.00  0.00    -0.480 OA
ATOM     16  H   UNL     1      35.218 -15.977 -23.050  0.00  0.00    +0.295 HD
ENDBRANCH  14  15
ENDBRANCH  12  14
ENDBRANCH  11  12
ENDBRANCH   1  11
TORSDOF 6
ENDMDL
MODEL 4
REMARK VINA RESULT:      -7.2      1.175      1.576
REMARK  Name = 75019
REMARK  6 active torsions:
REMARK  status: ('A' for Active; 'I' for Inactive)
REMARK    1  A    between atoms: C_1  and  C_11
REMARK    2  A    between atoms: C_4  and  O_7
REMARK    3  A    between atoms: C_5  and  O_9
REMARK    4  A    between atoms: C_11  and  C_12
REMARK    5  A    between atoms: C_12  and  C_14
REMARK    6  A    between atoms: C_14  and  O_15
REMARK                            x       y       z     vdW  Elec       q    Type
REMARK                         _______ _______ _______ _____ _____    ______ ____
ROOT
ATOM      1  C   UNL     1      34.923 -19.118 -21.545  0.00  0.00    -0.018 C 
ATOM      2  C   UNL     1      34.898 -17.809 -21.064  0.00  0.00    +0.036 C 
ATOM      3  C   UNL     1      34.913 -19.356 -22.920  0.00  0.00    -0.001 C 
ATOM      4  C   UNL     1      34.862 -16.738 -21.957  0.00  0.00    +0.172 C 
ATOM      5  C   UNL     1      34.853 -16.976 -23.331  0.00  0.00    +0.172 C 
ATOM      6  C   UNL     1      34.878 -18.285 -23.812  0.00  0.00    +0.040 C 
ENDROOT
BRANCH   4   7
ATOM      7  O   UNL     1      34.838 -15.464 -21.475  0.00  0.00    -0.468 OA
ATOM      8  C   UNL     1      33.623 -15.022 -20.871  0.00  0.00    +0.253 C 
ENDBRANCH   4   7
BRANCH   5   9
ATOM      9  O   UNL     1      34.820 -15.939 -24.213  0.00  0.00    -0.468 OA
ATOM     10  C   UNL     1      33.854 -16.009 -25.261  0.00  0.00    +0.253 C 
ENDBRANCH   5   9
BRANCH   1  11
ATOM     11  C   UNL     1      34.962 -20.263 -20.590  0.00  0.00    +0.038 C 
BRANCH  11  12
ATOM     12  C   UNL     1      33.579 -20.690 -20.083  0.00  0.00    +0.114 C 
BRANCH  12  14
ATOM     13  O   UNL     1      34.635 -22.687 -19.227  0.00  0.00    -0.250 OA
ATOM     14  C   UNL     1      33.652 -21.957 -19.266  0.00  0.00    +0.314 C 
BRANCH  14  15
ATOM     15  O   UNL     1      32.502 -22.221 -18.599  0.00  0.00    -0.480 OA
ATOM     16  H   UNL     1      31.898 -21.530 -18.413  0.00  0.00    +0.295 HD
ENDBRANCH  14  15
ENDBRANCH  12  14
ENDBRANCH  11  12
ENDBRANCH   1  11
TORSDOF 6
ENDMDL
MODEL 5
REMARK VINA RESULT:      -7.1      1.874      5.790
REMARK  Name = 75019
REMARK  6 active torsions:
REMARK  status: ('A' for Active; 'I' for Inactive)
REMARK    1  A    between atoms: C_1  and  C_11
REMARK    2  A    between atoms: C_4  and  O_7
REMARK    3  A    between atoms: C_5  and  O_9
REMARK    4  A    between atoms: C_11  and  C_12
REMARK    5  A    between atoms: C_12  and  C_14
REMARK    6  A    between atoms: C_14  and  O_15
REMARK                            x       y       z     vdW  Elec       q    Type
REMARK                         _______ _______ _______ _____ _____    ______ ____
ROOT
ATOM      1  C   UNL     1      34.676 -17.430 -23.954  0.00  0.00    -0.018 C 
ATOM      2  C   UNL     1      34.787 -16.673 -22.787  0.00  0.00    +0.036 C 
ATOM      3  C   UNL     1      34.855 -18.813 -23.907  0.00  0.00    -0.001 C 
ATOM      4  C   UNL     1      35.077 -17.298 -21.575  0.00  0.00    +0.172 C 
ATOM      5  C   UNL     1      35.255 -18.680 -21.528  0.00  0.00    +0.172 C 
ATOM      6  C   UNL     1      35.144 -19.437 -22.694  0.00  0.00    +0.040 C 
ENDROOT
BRANCH   4   7
ATOM      7  O   UNL     1      35.182 -16.548 -20.443  0.00  0.00    -0.468 OA
ATOM      8  C   UNL     1      34.538 -15.275 -20.446  0.00  0.00    +0.253 C 
ENDBRANCH   4   7
BRANCH   5   9
ATOM      9  O   UNL     1      35.538 -19.302 -20.350  0.00  0.00    -0.468 OA
ATOM     10  C   UNL     1      35.126 -20.662 -20.219  0.00  0.00    +0.253 C 
ENDBRANCH   5   9
BRANCH   1  11
ATOM     11  C   UNL     1      34.364 -16.762 -25.249  0.00  0.00    +0.038 C 
BRANCH  11  12
ATOM     12  C   UNL     1      33.728 -15.375 -25.091  0.00  0.00    +0.114 C 
BRANCH  12  14
ATOM     13  O   UNL     1      32.879 -13.849 -26.761  0.00  0.00    -0.250 OA
ATOM     14  C   UNL     1      32.926 -14.987 -26.310  0.00  0.00    +0.314 C 
BRANCH  14  15
ATOM     15  O   UNL     1      32.237 -16.027 -26.840  0.00  0.00    -0.480 OA
ATOM     16  H   UNL     1      31.527 -16.410 -26.364  0.00  0.00    +0.295 HD
ENDBRANCH  14  15
ENDBRANCH  12  14
ENDBRANCH  11  12
ENDBRANCH   1  11
TORSDOF 6
ENDMDL
MODEL 6
REMARK VINA RESULT:      -6.9      8.156      9.868
REMARK  Name = 75019
REMARK  6 active torsions:
REMARK  status: ('A' for Active; 'I' for Inactive)
REMARK    1  A    between atoms: C_1  and  C_11
REMARK    2  A    between atoms: C_4  and  O_7
REMARK    3  A    between atoms: C_5  and  O_9
REMARK    4  A    between atoms: C_11  and  C_12
REMARK    5  A    between atoms: C_12  and  C_14
REMARK    6  A    between atoms: C_14  and  O_15
REMARK                            x       y       z     vdW  Elec       q    Type
REMARK                         _______ _______ _______ _____ _____    ______ ____
ROOT
ATOM      1  C   UNL     1      31.808 -23.150 -15.561  0.00  0.00    -0.018 C 
ATOM      2  C   UNL     1      32.770 -23.273 -14.558  0.00  0.00    +0.036 C 
ATOM      3  C   UNL     1      32.198 -23.094 -16.899  0.00  0.00    -0.001 C 
ATOM      4  C   UNL     1      34.122 -23.340 -14.893  0.00  0.00    +0.172 C 
ATOM      5  C   UNL     1      34.513 -23.284 -16.231  0.00  0.00    +0.172 C 
ATOM      6  C   UNL     1      33.551 -23.161 -17.233  0.00  0.00    +0.040 C 
ENDROOT
BRANCH   4   7
ATOM      7  O   UNL     1      35.052 -23.460 -13.905  0.00  0.00    -0.468 OA
ATOM      8  C   UNL     1      34.695 -24.251 -12.772  0.00  0.00    +0.253 C 
ENDBRANCH   4   7
BRANCH   5   9
ATOM      9  O   UNL     1      35.830 -23.350 -16.570  0.00  0.00    -0.468 OA
ATOM     10  C   UNL     1      36.472 -22.125 -16.919  0.00  0.00    +0.253 C 
ENDBRANCH   5   9
BRANCH   1  11
ATOM     11  C   UNL     1      30.362 -23.079 -15.203  0.00  0.00    +0.038 C 
BRANCH  11  12
ATOM     12  C   UNL     1      29.468 -23.974 -16.071  0.00  0.00    +0.114 C 
BRANCH  12  14
ATOM     13  O   UNL     1      28.380 -21.944 -16.802  0.00  0.00    -0.250 OA
ATOM     14  C   UNL     1      28.453 -23.166 -16.843  0.00  0.00    +0.314 C 
BRANCH  14  15
ATOM     15  O   UNL     1      27.607 -23.937 -17.568  0.00  0.00    -0.480 OA
ATOM     16  H   UNL     1      26.834 -24.288 -17.171  0.00  0.00    +0.295 HD
ENDBRANCH  14  15
ENDBRANCH  12  14
ENDBRANCH  11  12
ENDBRANCH   1  11
TORSDOF 6
ENDMDL
MODEL 7
REMARK VINA RESULT:      -6.9      2.197      7.001
REMARK  Name = 75019
REMARK  6 active torsions:
REMARK  status: ('A' for Active; 'I' for Inactive)
REMARK    1  A    between atoms: C_1  and  C_11
REMARK    2  A    between atoms: C_4  and  O_7
REMARK    3  A    between atoms: C_5  and  O_9
REMARK    4  A    between atoms: C_11  and  C_12
REMARK    5  A    between atoms: C_12  and  C_14
REMARK    6  A    between atoms: C_14  and  O_15
REMARK                            x       y       z     vdW  Elec       q    Type
REMARK                         _______ _______ _______ _____ _____    ______ ____
ROOT
ATOM      1  C   UNL     1      34.871 -20.186 -20.713  0.00  0.00    -0.018 C 
ATOM      2  C   UNL     1      34.223 -21.236 -20.063  0.00  0.00    +0.036 C 
ATOM      3  C   UNL     1      36.189 -19.868 -20.383  0.00  0.00    -0.001 C 
ATOM      4  C   UNL     1      34.893 -21.969 -19.084  0.00  0.00    +0.172 C 
ATOM      5  C   UNL     1      36.210 -21.652 -18.754  0.00  0.00    +0.172 C 
ATOM      6  C   UNL     1      36.858 -20.602 -19.404  0.00  0.00    +0.040 C 
ENDROOT
BRANCH   4   7
ATOM      7  O   UNL     1      34.249 -22.993 -18.456  0.00  0.00    -0.468 OA
ATOM      8  C   UNL     1      33.001 -22.690 -17.834  0.00  0.00    +0.253 C 
ENDBRANCH   4   7
BRANCH   5   9
ATOM      9  O   UNL     1      36.875 -22.362 -17.800  0.00  0.00    -0.468 OA
ATOM     10  C   UNL     1      37.214 -21.672 -16.598  0.00  0.00    +0.253 C 
ENDBRANCH   5   9
BRANCH   1  11
ATOM     11  C   UNL     1      34.156 -19.403 -21.761  0.00  0.00    +0.038 C 
BRANCH  11  12
ATOM     12  C   UNL     1      35.093 -18.661 -22.723  0.00  0.00    +0.114 C 
BRANCH  12  14
ATOM     13  O   UNL     1      34.314 -16.621 -21.689  0.00  0.00    -0.250 OA
ATOM     14  C   UNL     1      35.019 -17.166 -22.530  0.00  0.00    +0.314 C 
BRANCH  14  15
ATOM     15  O   UNL     1      35.796 -16.482 -23.405  0.00  0.00    -0.480 OA
ATOM     16  H   UNL     1      35.957 -16.830 -24.259  0.00  0.00    +0.295 HD
ENDBRANCH  14  15
ENDBRANCH  12  14
ENDBRANCH  11  12
ENDBRANCH   1  11
TORSDOF 6
ENDMDL
MODEL 8
REMARK VINA RESULT:      -6.8      1.595      2.224
REMARK  Name = 75019
REMARK  6 active torsions:
REMARK  status: ('A' for Active; 'I' for Inactive)
REMARK    1  A    between atoms: C_1  and  C_11
REMARK    2  A    between atoms: C_4  and  O_7
REMARK    3  A    between atoms: C_5  and  O_9
REMARK    4  A    between atoms: C_11  and  C_12
REMARK    5  A    between atoms: C_12  and  C_14
REMARK    6  A    between atoms: C_14  and  O_15
REMARK                            x       y       z     vdW  Elec       q    Type
REMARK                         _______ _______ _______ _____ _____    ______ ____
ROOT
ATOM      1  C   UNL     1      34.937 -17.168 -23.718  0.00  0.00    -0.018 C 
ATOM      2  C   UNL     1      34.622 -16.057 -22.935  0.00  0.00    +0.036 C 
ATOM      3  C   UNL     1      34.552 -17.208 -25.058  0.00  0.00    -0.001 C 
ATOM      4  C   UNL     1      33.922 -14.987 -23.491  0.00  0.00    +0.172 C 
ATOM      5  C   UNL     1      33.537 -15.026 -24.831  0.00  0.00    +0.172 C 
ATOM      6  C   UNL     1      33.852 -16.136 -25.614  0.00  0.00    +0.040 C 
ENDROOT
BRANCH   4   7
ATOM      7  O   UNL     1      33.621 -13.908 -22.716  0.00  0.00    -0.468 OA
ATOM      8  C   UNL     1      32.503 -14.032 -21.839  0.00  0.00    +0.253 C 
ENDBRANCH   4   7
BRANCH   5   9
ATOM      9  O   UNL     1      32.854 -13.987 -25.386  0.00  0.00    -0.468 OA
ATOM     10  C   UNL     1      33.105 -13.707 -26.762  0.00  0.00    +0.253 C 
ENDBRANCH   5   9
BRANCH   1  11
ATOM     11  C   UNL     1      35.687 -18.311 -23.124  0.00  0.00    +0.038 C 
BRANCH  11  12
ATOM     12  C   UNL     1      34.783 -19.391 -22.514  0.00  0.00    +0.114 C 
BRANCH  12  14
ATOM     13  O   UNL     1      34.314 -20.240 -20.301  0.00  0.00    -0.250 OA
ATOM     14  C   UNL     1      34.967 -19.492 -21.019  0.00  0.00    +0.314 C 
BRANCH  14  15
ATOM     15  O   UNL     1      35.914 -18.647 -20.546  0.00  0.00    -0.480 OA
ATOM     16  H   UNL     1      36.784 -18.676 -20.892  0.00  0.00    +0.295 HD
ENDBRANCH  14  15
ENDBRANCH  12  14
ENDBRANCH  11  12
ENDBRANCH   1  11
TORSDOF 6
ENDMDL
MODEL 9
REMARK VINA RESULT:      -6.8      6.814      9.581
REMARK  Name = 75019
REMARK  6 active torsions:
REMARK  status: ('A' for Active; 'I' for Inactive)
REMARK    1  A    between atoms: C_1  and  C_11
REMARK    2  A    between atoms: C_4  and  O_7
REMARK    3  A    between atoms: C_5  and  O_9
REMARK    4  A    between atoms: C_11  and  C_12
REMARK    5  A    between atoms: C_12  and  C_14
REMARK    6  A    between atoms: C_14  and  O_15
REMARK                            x       y       z     vdW  Elec       q    Type
REMARK                         _______ _______ _______ _____ _____    ______ ____
ROOT
ATOM      1  C   UNL     1      33.206 -23.760 -14.970  0.00  0.00    -0.018 C 
ATOM      2  C   UNL     1      33.361 -23.370 -16.300  0.00  0.00    +0.036 C 
ATOM      3  C   UNL     1      31.950 -23.696 -14.366  0.00  0.00    -0.001 C 
ATOM      4  C   UNL     1      32.262 -22.915 -17.027  0.00  0.00    +0.172 C 
ATOM      5  C   UNL     1      31.006 -22.851 -16.424  0.00  0.00    +0.172 C 
ATOM      6  C   UNL     1      30.850 -23.242 -15.094  0.00  0.00    +0.040 C 
ENDROOT
BRANCH   4   7
ATOM      7  O   UNL     1      32.426 -22.537 -18.325  0.00  0.00    -0.468 OA
ATOM      8  C   UNL     1      33.766 -22.418 -18.801  0.00  0.00    +0.253 C 
ENDBRANCH   4   7
BRANCH   5   9
ATOM      9  O   UNL     1      29.924 -22.410 -17.124  0.00  0.00    -0.468 OA
ATOM     10  C   UNL     1      28.644 -22.876 -16.700  0.00  0.00    +0.253 C 
ENDBRANCH   5   9
BRANCH   1  11
ATOM     11  C   UNL     1      34.382 -24.247 -14.193  0.00  0.00    +0.038 C 
BRANCH  11  12
ATOM     12  C   UNL     1      35.640 -24.457 -15.046  0.00  0.00    +0.114 C 
BRANCH  12  14
ATOM     13  O   UNL     1      36.151 -26.680 -15.844  0.00  0.00    -0.250 OA
ATOM     14  C   UNL     1      36.165 -25.868 -14.927  0.00  0.00    +0.314 C 
BRANCH  14  15
ATOM     15  O   UNL     1      36.630 -26.154 -13.687  0.00  0.00    -0.480 OA
ATOM     16  H   UNL     1      37.465 -25.830 -13.413  0.00  0.00    +0.295 HD
ENDBRANCH  14  15
ENDBRANCH  12  14
ENDBRANCH  11  12
ENDBRANCH   1  11
TORSDOF 6
ENDMDL
