MODEL 1
REMARK VINA RESULT:      -5.7      0.000      0.000
REMARK  Name = 440046
REMARK  2 active torsions:
REMARK  status: ('A' for Active; 'I' for Inactive)
REMARK    1  A    between atoms: CA_5  and  C_7
REMARK    2  A    between atoms: C_7  and  O_8
REMARK                            x       y       z     vdW  Elec       q    Type
REMARK                         _______ _______ _______ _____ _____    ______ ____
ROOT
ATOM      1  N   PRO A   1      38.405 -26.828 -14.678  0.00  0.00    -0.268 NA
ATOM      2  CG  PRO A   1      37.485 -25.957 -12.646  0.00  0.00    +0.033 C 
ATOM      3  CB  PRO A   1      38.439 -24.931 -13.214  0.00  0.00    +0.054 C 
ATOM      4  CD  PRO A   1      37.186 -26.850 -13.841  0.00  0.00    +0.126 C 
ATOM      5  CA  PRO A   1      39.035 -25.764 -14.294  0.00  0.00    +0.129 C 
ENDROOT
BRANCH   5   7
ATOM      6  OXT PRO A   1      41.099 -24.611 -14.390  0.00  0.00    -0.244 OA
ATOM      7  C   PRO A   1      40.305 -25.355 -14.932  0.00  0.00    +0.351 C 
BRANCH   7   8
ATOM      8  O   PRO A   1      40.402 -25.932 -16.138  0.00  0.00    -0.476 OA
ATOM      9  H   PRO A   1      41.226 -25.951 -16.583  0.00  0.00    +0.295 HD
ENDBRANCH   7   8
ENDBRANCH   5   7
TORSDOF 2
ENDMDL
MODEL 2
REMARK VINA RESULT:      -5.2     10.255     10.897
REMARK  Name = 440046
REMARK  2 active torsions:
REMARK  status: ('A' for Active; 'I' for Inactive)
REMARK    1  A    between atoms: CA_5  and  C_7
REMARK    2  A    between atoms: C_7  and  O_8
REMARK                            x       y       z     vdW  Elec       q    Type
REMARK                         _______ _______ _______ _____ _____    ______ ____
ROOT
ATOM      1  N   PRO A   1      30.270 -22.427 -17.047  0.00  0.00    -0.268 NA
ATOM      2  CG  PRO A   1      30.718 -23.395 -14.903  0.00  0.00    +0.033 C 
ATOM      3  CB  PRO A   1      29.333 -23.819 -15.337  0.00  0.00    +0.054 C 
ATOM      4  CD  PRO A   1      31.367 -22.952 -16.207  0.00  0.00    +0.126 C 
ATOM      5  CA  PRO A   1      29.199 -22.939 -16.528  0.00  0.00    +0.129 C 
ENDROOT
BRANCH   5   7
ATOM      6  OXT PRO A   1      27.326 -21.599 -17.071  0.00  0.00    -0.244 OA
ATOM      7  C   PRO A   1      27.867 -22.686 -17.120  0.00  0.00    +0.351 C 
BRANCH   7   8
ATOM      8  O   PRO A   1      27.412 -23.812 -17.687  0.00  0.00    -0.476 OA
ATOM      9  H   PRO A   1      27.876 -24.197 -18.404  0.00  0.00    +0.295 HD
ENDBRANCH   7   8
ENDBRANCH   5   7
TORSDOF 2
ENDMDL
MODEL 3
REMARK VINA RESULT:      -5.0      9.107      9.463
REMARK  Name = 440046
REMARK  2 active torsions:
REMARK  status: ('A' for Active; 'I' for Inactive)
REMARK    1  A    between atoms: CA_5  and  C_7
REMARK    2  A    between atoms: C_7  and  O_8
REMARK                            x       y       z     vdW  Elec       q    Type
REMARK                         _______ _______ _______ _____ _____    ______ ____
ROOT
ATOM      1  N   PRO A   1      35.386 -20.562 -20.024  0.00  0.00    -0.268 NA
ATOM      2  CG  PRO A   1      33.950 -19.455 -21.588  0.00  0.00    +0.033 C 
ATOM      3  CB  PRO A   1      33.087 -20.145 -20.556  0.00  0.00    +0.054 C 
ATOM      4  CD  PRO A   1      35.308 -19.378 -20.906  0.00  0.00    +0.126 C 
ATOM      5  CA  PRO A   1      34.152 -20.923 -19.868  0.00  0.00    +0.129 C 
ENDROOT
BRANCH   5   7
ATOM      6  OXT PRO A   1      32.646 -22.313 -18.684  0.00  0.00    -0.244 OA
ATOM      7  C   PRO A   1      33.794 -22.066 -18.998  0.00  0.00    +0.351 C 
BRANCH   7   8
ATOM      8  O   PRO A   1      34.907 -22.729 -18.656  0.00  0.00    -0.476 OA
ATOM      9  H   PRO A   1      34.993 -23.086 -17.794  0.00  0.00    +0.295 HD
ENDBRANCH   7   8
ENDBRANCH   5   7
TORSDOF 2
ENDMDL
MODEL 4
REMARK VINA RESULT:      -5.0     10.516     11.283
REMARK  Name = 440046
REMARK  2 active torsions:
REMARK  status: ('A' for Active; 'I' for Inactive)
REMARK    1  A    between atoms: CA_5  and  C_7
REMARK    2  A    between atoms: C_7  and  O_8
REMARK                            x       y       z     vdW  Elec       q    Type
REMARK                         _______ _______ _______ _____ _____    ______ ____
ROOT
ATOM      1  N   PRO A   1      42.760 -16.150 -16.263  0.00  0.00    -0.268 NA
ATOM      2  CG  PRO A   1      42.281 -15.447 -18.501  0.00  0.00    +0.033 C 
ATOM      3  CB  PRO A   1      41.355 -14.708 -17.562  0.00  0.00    +0.054 C 
ATOM      4  CD  PRO A   1      43.393 -15.929 -17.581  0.00  0.00    +0.126 C 
ATOM      5  CA  PRO A   1      41.667 -15.457 -16.315  0.00  0.00    +0.129 C 
ENDROOT
BRANCH   5   7
ATOM      6  OXT PRO A   1      40.854 -14.514 -14.303  0.00  0.00    -0.244 OA
ATOM      7  C   PRO A   1      40.756 -15.379 -15.152  0.00  0.00    +0.351 C 
BRANCH   7   8
ATOM      8  O   PRO A   1      39.862 -16.374 -15.220  0.00  0.00    -0.476 OA
ATOM      9  H   PRO A   1      39.221 -16.383 -15.903  0.00  0.00    +0.295 HD
ENDBRANCH   7   8
ENDBRANCH   5   7
TORSDOF 2
ENDMDL
MODEL 5
REMARK VINA RESULT:      -4.9      8.931      9.245
REMARK  Name = 440046
REMARK  2 active torsions:
REMARK  status: ('A' for Active; 'I' for Inactive)
REMARK    1  A    between atoms: CA_5  and  C_7
REMARK    2  A    between atoms: C_7  and  O_8
REMARK                            x       y       z     vdW  Elec       q    Type
REMARK                         _______ _______ _______ _____ _____    ______ ____
ROOT
ATOM      1  N   PRO A   1      32.696 -20.732 -20.016  0.00  0.00    -0.268 NA
ATOM      2  CG  PRO A   1      34.740 -19.697 -20.712  0.00  0.00    +0.033 C 
ATOM      3  CB  PRO A   1      35.071 -21.038 -20.099  0.00  0.00    +0.054 C 
ATOM      4  CD  PRO A   1      33.258 -19.822 -21.036  0.00  0.00    +0.126 C 
ATOM      5  CA  PRO A   1      33.727 -21.365 -19.553  0.00  0.00    +0.129 C 
ENDROOT
BRANCH   5   7
ATOM      6  OXT PRO A   1      34.515 -23.089 -18.135  0.00  0.00    -0.244 OA
ATOM      7  C   PRO A   1      33.578 -22.419 -18.525  0.00  0.00    +0.351 C 
BRANCH   7   8
ATOM      8  O   PRO A   1      32.298 -22.480 -18.132  0.00  0.00    -0.476 OA
ATOM      9  H   PRO A   1      32.082 -22.842 -17.296  0.00  0.00    +0.295 HD
ENDBRANCH   7   8
ENDBRANCH   5   7
TORSDOF 2
ENDMDL
MODEL 6
REMARK VINA RESULT:      -4.9      9.955     10.117
REMARK  Name = 440046
REMARK  2 active torsions:
REMARK  status: ('A' for Active; 'I' for Inactive)
REMARK    1  A    between atoms: CA_5  and  C_7
REMARK    2  A    between atoms: C_7  and  O_8
REMARK                            x       y       z     vdW  Elec       q    Type
REMARK                         _______ _______ _______ _____ _____    ______ ____
ROOT
ATOM      1  N   PRO A   1      35.629 -20.310 -20.024  0.00  0.00    -0.268 NA
ATOM      2  CG  PRO A   1      33.283 -20.782 -19.950  0.00  0.00    +0.033 C 
ATOM      3  CB  PRO A   1      33.538 -19.816 -21.083  0.00  0.00    +0.054 C 
ATOM      4  CD  PRO A   1      34.660 -21.373 -19.684  0.00  0.00    +0.126 C 
ATOM      5  CA  PRO A   1      34.962 -19.504 -20.787  0.00  0.00    +0.129 C 
ENDROOT
BRANCH   5   7
ATOM      6  OXT PRO A   1      36.264 -18.368 -22.404  0.00  0.00    -0.244 OA
ATOM      7  C   PRO A   1      35.603 -18.312 -21.386  0.00  0.00    +0.351 C 
BRANCH   7   8
ATOM      8  O   PRO A   1      35.323 -17.235 -20.639  0.00  0.00    -0.476 OA
ATOM      9  H   PRO A   1      35.757 -17.109 -19.818  0.00  0.00    +0.295 HD
ENDBRANCH   7   8
ENDBRANCH   5   7
TORSDOF 2
ENDMDL
MODEL 7
REMARK VINA RESULT:      -4.9     11.157     12.064
REMARK  Name = 440046
REMARK  2 active torsions:
REMARK  status: ('A' for Active; 'I' for Inactive)
REMARK    1  A    between atoms: CA_5  and  C_7
REMARK    2  A    between atoms: C_7  and  O_8
REMARK                            x       y       z     vdW  Elec       q    Type
REMARK                         _______ _______ _______ _____ _____    ______ ____
ROOT
ATOM      1  N   PRO A   1      42.130 -13.667 -15.585  0.00  0.00    -0.268 NA
ATOM      2  CG  PRO A   1      42.068 -13.142 -17.920  0.00  0.00    +0.033 C 
ATOM      3  CB  PRO A   1      41.238 -14.385 -17.690  0.00  0.00    +0.054 C 
ATOM      4  CD  PRO A   1      42.167 -12.531 -16.530  0.00  0.00    +0.126 C 
ATOM      5  CA  PRO A   1      41.611 -14.635 -16.272  0.00  0.00    +0.129 C 
ENDROOT
BRANCH   5   7
ATOM      6  OXT PRO A   1      42.208 -16.826 -15.606  0.00  0.00    -0.244 OA
ATOM      7  C   PRO A   1      41.359 -15.958 -15.659  0.00  0.00    +0.351 C 
BRANCH   7   8
ATOM      8  O   PRO A   1      40.100 -16.002 -15.200  0.00  0.00    -0.476 OA
ATOM      9  H   PRO A   1      39.507 -16.652 -15.522  0.00  0.00    +0.295 HD
ENDBRANCH   7   8
ENDBRANCH   5   7
TORSDOF 2
ENDMDL
MODEL 8
REMARK VINA RESULT:      -4.8     10.952     11.819
REMARK  Name = 440046
REMARK  2 active torsions:
REMARK  status: ('A' for Active; 'I' for Inactive)
REMARK    1  A    between atoms: CA_5  and  C_7
REMARK    2  A    between atoms: C_7  and  O_8
REMARK                            x       y       z     vdW  Elec       q    Type
REMARK                         _______ _______ _______ _____ _____    ______ ____
ROOT
ATOM      1  N   PRO A   1      43.068 -14.865 -16.497  0.00  0.00    -0.268 NA
ATOM      2  CG  PRO A   1      41.973 -12.995 -17.515  0.00  0.00    +0.033 C 
ATOM      3  CB  PRO A   1      41.272 -14.257 -17.963  0.00  0.00    +0.054 C 
ATOM      4  CD  PRO A   1      42.732 -13.443 -16.275  0.00  0.00    +0.126 C 
ATOM      5  CA  PRO A   1      42.238 -15.247 -17.416  0.00  0.00    +0.129 C 
ENDROOT
BRANCH   5   7
ATOM      6  OXT PRO A   1      41.902 -17.578 -17.181  0.00  0.00    -0.244 OA
ATOM      7  C   PRO A   1      42.220 -16.647 -17.895  0.00  0.00    +0.351 C 
BRANCH   7   8
ATOM      8  O   PRO A   1      42.592 -16.681 -19.182  0.00  0.00    -0.476 OA
ATOM      9  H   PRO A   1      42.792 -15.885 -19.633  0.00  0.00    +0.295 HD
ENDBRANCH   7   8
ENDBRANCH   5   7
TORSDOF 2
ENDMDL
MODEL 9
REMARK VINA RESULT:      -4.7     18.733     19.128
REMARK  Name = 440046
REMARK  2 active torsions:
REMARK  status: ('A' for Active; 'I' for Inactive)
REMARK    1  A    between atoms: CA_5  and  C_7
REMARK    2  A    between atoms: C_7  and  O_8
REMARK                            x       y       z     vdW  Elec       q    Type
REMARK                         _______ _______ _______ _____ _____    ______ ____
ROOT
ATOM      1  N   PRO A   1      32.051  -9.617 -19.057  0.00  0.00    -0.268 NA
ATOM      2  CG  PRO A   1      30.910 -11.092 -20.558  0.00  0.00    +0.033 C 
ATOM      3  CB  PRO A   1      31.670 -10.074 -21.377  0.00  0.00    +0.054 C 
ATOM      4  CD  PRO A   1      31.586 -11.013 -19.197  0.00  0.00    +0.126 C 
ATOM      5  CA  PRO A   1      32.081  -9.168 -20.271  0.00  0.00    +0.129 C 
ENDROOT
BRANCH   5   7
ATOM      6  OXT PRO A   1      32.295  -7.233 -21.616  0.00  0.00    -0.244 OA
ATOM      7  C   PRO A   1      32.546  -7.795 -20.568  0.00  0.00    +0.351 C 
BRANCH   7   8
ATOM      8  O   PRO A   1      33.242  -7.326 -19.523  0.00  0.00    -0.476 OA
ATOM      9  H   PRO A   1      33.263  -6.406 -19.350  0.00  0.00    +0.295 HD
ENDBRANCH   7   8
ENDBRANCH   5   7
TORSDOF 2
ENDMDL
