MODEL 1
REMARK VINA RESULT:      -7.4      0.000      0.000
REMARK  Name = 46937140
REMARK  5 active torsions:
REMARK  status: ('A' for Active; 'I' for Inactive)
REMARK    1  A    between atoms: N_2  and  C_10
REMARK    2  A    between atoms: C_3  and  O_5
REMARK    3  A    between atoms: O_5  and  C_6
REMARK    4  A    between atoms: C_10  and  C_14
REMARK    5  A    between atoms: C_10  and  C_16
REMARK                            x       y       z     vdW  Elec       q    Type
REMARK                         _______ _______ _______ _____ _____    ______ ____
ROOT
ATOM      1  O   UNL     1      35.696 -16.326 -22.416  0.00  0.00    -0.226 OA
ATOM      2  N   UNL     1      33.476 -15.681 -22.230  0.00  0.00    -0.264 N 
ATOM      3  C   UNL     1      34.561 -16.492 -21.983  0.00  0.00    +0.402 C 
ATOM      4  H   UNL     1      32.613 -15.922 -21.823  0.00  0.00    +0.153 HD
ENDROOT
BRANCH   3   5
ATOM      5  O   UNL     1      34.183 -17.525 -21.171  0.00  0.00    -0.442 OA
BRANCH   5   6
ATOM      6  C   UNL     1      34.620 -18.827 -21.576  0.00  0.00    +0.138 C 
ATOM      7  C   UNL     1      34.571 -18.905 -23.102  0.00  0.00    +0.044 C 
ATOM      8  C   UNL     1      33.665 -19.846 -20.956  0.00  0.00    +0.044 C 
ATOM      9  C   UNL     1      36.044 -19.044 -21.066  0.00  0.00    +0.044 C 
ENDBRANCH   5   6
ENDBRANCH   3   5
BRANCH   2  10
ATOM     10  C   UNL     1      33.535 -14.494 -23.058  0.00  0.00    +0.153 C 
BRANCH  10  14
ATOM     11  O   UNL     1      32.669 -14.045 -25.310  0.00  0.00    -0.414 OA
ATOM     12  N   UNL     1      33.844 -15.941 -25.149  0.00  0.00    -0.110 NA
ATOM     13  N   UNL     1      33.418 -15.813 -26.457  0.00  0.00    -0.102 NA
ATOM     14  C   UNL     1      33.383 -14.888 -24.515  0.00  0.00    +0.244 C 
ATOM     15  C   UNL     1      32.736 -14.691 -26.505  0.00  0.00    +0.306 C 
ENDBRANCH  10  14
BRANCH  10  16
ATOM     16  C   UNL     1      32.503 -13.432 -22.585  0.00  0.00    +0.027 C 
ATOM     17  C   UNL     1      32.923 -12.019 -23.015  0.00  0.00    +0.002 C 
ATOM     18  C   UNL     1      32.325 -13.450 -21.062  0.00  0.00    +0.002 C 
ENDBRANCH  10  16
ENDBRANCH   2  10
TORSDOF 5
ENDMDL
MODEL 2
REMARK VINA RESULT:      -7.3     11.192     12.888
REMARK  Name = 46937140
REMARK  5 active torsions:
REMARK  status: ('A' for Active; 'I' for Inactive)
REMARK    1  A    between atoms: N_2  and  C_10
REMARK    2  A    between atoms: C_3  and  O_5
REMARK    3  A    between atoms: O_5  and  C_6
REMARK    4  A    between atoms: C_10  and  C_14
REMARK    5  A    between atoms: C_10  and  C_16
REMARK                            x       y       z     vdW  Elec       q    Type
REMARK                         _______ _______ _______ _____ _____    ______ ____
ROOT
ATOM      1  O   UNL     1      33.297 -23.826 -12.728  0.00  0.00    -0.226 OA
ATOM      2  N   UNL     1      34.242 -24.731 -14.643  0.00  0.00    -0.264 N 
ATOM      3  C   UNL     1      33.237 -24.543 -13.721  0.00  0.00    +0.402 C 
ATOM      4  H   UNL     1      34.071 -25.335 -15.401  0.00  0.00    +0.153 HD
ENDROOT
BRANCH   3   5
ATOM      5  O   UNL     1      32.146 -25.285 -14.078  0.00  0.00    -0.442 OA
BRANCH   5   6
ATOM      6  C   UNL     1      30.964 -24.542 -14.394  0.00  0.00    +0.138 C 
ATOM      7  C   UNL     1      30.408 -23.937 -13.106  0.00  0.00    +0.044 C 
ATOM      8  C   UNL     1      29.959 -25.515 -15.008  0.00  0.00    +0.044 C 
ATOM      9  C   UNL     1      31.331 -23.446 -15.395  0.00  0.00    +0.044 C 
ENDBRANCH   5   6
ENDBRANCH   3   5
BRANCH   2  10
ATOM     10  C   UNL     1      35.537 -24.087 -14.559  0.00  0.00    +0.153 C 
BRANCH  10  14
ATOM     11  O   UNL     1      37.744 -24.975 -13.955  0.00  0.00    -0.414 OA
ATOM     12  N   UNL     1      36.669 -26.183 -15.500  0.00  0.00    -0.110 NA
ATOM     13  N   UNL     1      37.888 -26.788 -15.257  0.00  0.00    -0.102 NA
ATOM     14  C   UNL     1      36.628 -25.129 -14.720  0.00  0.00    +0.244 C 
ATOM     15  C   UNL     1      38.481 -26.049 -14.348  0.00  0.00    +0.306 C 
ENDBRANCH  10  14
BRANCH  10  16
ATOM     16  C   UNL     1      35.641 -22.909 -15.567  0.00  0.00    +0.027 C 
ATOM     17  C   UNL     1      34.692 -23.110 -16.757  0.00  0.00    +0.002 C 
ATOM     18  C   UNL     1      37.070 -22.739 -16.100  0.00  0.00    +0.002 C 
ENDBRANCH  10  16
ENDBRANCH   2  10
TORSDOF 5
ENDMDL
MODEL 3
REMARK VINA RESULT:      -7.2      8.897     11.602
REMARK  Name = 46937140
REMARK  5 active torsions:
REMARK  status: ('A' for Active; 'I' for Inactive)
REMARK    1  A    between atoms: N_2  and  C_10
REMARK    2  A    between atoms: C_3  and  O_5
REMARK    3  A    between atoms: O_5  and  C_6
REMARK    4  A    between atoms: C_10  and  C_14
REMARK    5  A    between atoms: C_10  and  C_16
REMARK                            x       y       z     vdW  Elec       q    Type
REMARK                         _______ _______ _______ _____ _____    ______ ____
ROOT
ATOM      1  O   UNL     1      35.755 -23.197 -13.136  0.00  0.00    -0.226 OA
ATOM      2  N   UNL     1      34.508 -24.508 -14.588  0.00  0.00    -0.264 N 
ATOM      3  C   UNL     1      35.496 -24.277 -13.657  0.00  0.00    +0.402 C 
ATOM      4  H   UNL     1      34.399 -25.423 -14.933  0.00  0.00    +0.153 HD
ENDROOT
BRANCH   3   5
ATOM      5  O   UNL     1      36.158 -25.443 -13.394  0.00  0.00    -0.442 OA
BRANCH   5   6
ATOM      6  C   UNL     1      37.465 -25.560 -13.966  0.00  0.00    +0.138 C 
ATOM      7  C   UNL     1      37.697 -24.374 -14.901  0.00  0.00    +0.044 C 
ATOM      8  C   UNL     1      37.511 -26.874 -14.745  0.00  0.00    +0.044 C 
ATOM      9  C   UNL     1      38.492 -25.570 -12.835  0.00  0.00    +0.044 C 
ENDBRANCH   5   6
ENDBRANCH   3   5
BRANCH   2  10
ATOM     10  C   UNL     1      33.621 -23.477 -15.087  0.00  0.00    +0.153 C 
BRANCH  10  14
ATOM     11  O   UNL     1      32.988 -23.094 -17.427  0.00  0.00    -0.414 OA
ATOM     12  N   UNL     1      35.177 -22.868 -17.029  0.00  0.00    -0.110 NA
ATOM     13  N   UNL     1      34.960 -22.629 -18.372  0.00  0.00    -0.102 NA
ATOM     14  C   UNL     1      33.999 -23.136 -16.516  0.00  0.00    +0.244 C 
ATOM     15  C   UNL     1      33.669 -22.772 -18.560  0.00  0.00    +0.306 C 
ENDBRANCH  10  14
BRANCH  10  16
ATOM     16  C   UNL     1      32.133 -23.890 -14.913  0.00  0.00    +0.027 C 
ATOM     17  C   UNL     1      31.266 -22.689 -14.508  0.00  0.00    +0.002 C 
ATOM     18  C   UNL     1      31.967 -24.992 -13.860  0.00  0.00    +0.002 C 
ENDBRANCH  10  16
ENDBRANCH   2  10
TORSDOF 5
ENDMDL
MODEL 4
REMARK VINA RESULT:      -7.1     11.445     13.977
REMARK  Name = 46937140
REMARK  5 active torsions:
REMARK  status: ('A' for Active; 'I' for Inactive)
REMARK    1  A    between atoms: N_2  and  C_10
REMARK    2  A    between atoms: C_3  and  O_5
REMARK    3  A    between atoms: O_5  and  C_6
REMARK    4  A    between atoms: C_10  and  C_14
REMARK    5  A    between atoms: C_10  and  C_16
REMARK                            x       y       z     vdW  Elec       q    Type
REMARK                         _______ _______ _______ _____ _____    ______ ____
ROOT
ATOM      1  O   UNL     1      34.646 -22.898 -15.093  0.00  0.00    -0.226 OA
ATOM      2  N   UNL     1      34.827 -25.012 -14.154  0.00  0.00    -0.264 N 
ATOM      3  C   UNL     1      34.196 -24.017 -14.867  0.00  0.00    +0.402 C 
ATOM      4  H   UNL     1      34.359 -25.870 -14.041  0.00  0.00    +0.153 HD
ENDROOT
BRANCH   3   5
ATOM      5  O   UNL     1      32.977 -24.463 -15.293  0.00  0.00    -0.442 OA
BRANCH   5   6
ATOM      6  C   UNL     1      31.842 -23.928 -14.604  0.00  0.00    +0.138 C 
ATOM      7  C   UNL     1      32.331 -23.197 -13.354  0.00  0.00    +0.044 C 
ATOM      8  C   UNL     1      30.941 -25.101 -14.221  0.00  0.00    +0.044 C 
ATOM      9  C   UNL     1      31.108 -22.971 -15.543  0.00  0.00    +0.044 C 
ENDBRANCH   5   6
ENDBRANCH   3   5
BRANCH   2  10
ATOM     10  C   UNL     1      36.140 -24.863 -13.561  0.00  0.00    +0.153 C 
BRANCH  10  14
ATOM     11  O   UNL     1      36.589 -23.376 -11.662  0.00  0.00    -0.414 OA
ATOM     12  N   UNL     1      35.364 -25.173 -11.139  0.00  0.00    -0.110 NA
ATOM     13  N   UNL     1      35.542 -24.429  -9.989  0.00  0.00    -0.102 NA
ATOM     14  C   UNL     1      35.992 -24.522 -12.090  0.00  0.00    +0.244 C 
ATOM     15  C   UNL     1      36.262 -23.389 -10.340  0.00  0.00    +0.306 C 
ENDBRANCH  10  14
BRANCH  10  16
ATOM     16  C   UNL     1      37.018 -26.117 -13.829  0.00  0.00    +0.027 C 
ATOM     17  C   UNL     1      38.510 -25.797 -13.661  0.00  0.00    +0.002 C 
ATOM     18  C   UNL     1      36.792 -26.681 -15.237  0.00  0.00    +0.002 C 
ENDBRANCH  10  16
ENDBRANCH   2  10
TORSDOF 5
ENDMDL
MODEL 5
REMARK VINA RESULT:      -7.0      8.492     11.372
REMARK  Name = 46937140
REMARK  5 active torsions:
REMARK  status: ('A' for Active; 'I' for Inactive)
REMARK    1  A    between atoms: N_2  and  C_10
REMARK    2  A    between atoms: C_3  and  O_5
REMARK    3  A    between atoms: O_5  and  C_6
REMARK    4  A    between atoms: C_10  and  C_14
REMARK    5  A    between atoms: C_10  and  C_16
REMARK                            x       y       z     vdW  Elec       q    Type
REMARK                         _______ _______ _______ _____ _____    ______ ____
ROOT
ATOM      1  O   UNL     1      37.519 -22.433 -14.264  0.00  0.00    -0.226 OA
ATOM      2  N   UNL     1      36.411 -23.940 -15.637  0.00  0.00    -0.264 N 
ATOM      3  C   UNL     1      37.493 -23.462 -14.931  0.00  0.00    +0.402 C 
ATOM      4  H   UNL     1      36.517 -24.782 -16.136  0.00  0.00    +0.153 HD
ENDROOT
BRANCH   3   5
ATOM      5  O   UNL     1      38.551 -24.314 -15.084  0.00  0.00    -0.442 OA
BRANCH   5   6
ATOM      6  C   UNL     1      38.703 -25.308 -14.065  0.00  0.00    +0.138 C 
ATOM      7  C   UNL     1      40.162 -25.763 -14.042  0.00  0.00    +0.044 C 
ATOM      8  C   UNL     1      37.783 -26.475 -14.418  0.00  0.00    +0.044 C 
ATOM      9  C   UNL     1      38.303 -24.694 -12.723  0.00  0.00    +0.044 C 
ENDBRANCH   5   6
ENDBRANCH   3   5
BRANCH   2  10
ATOM     10  C   UNL     1      35.127 -23.271 -15.685  0.00  0.00    +0.153 C 
BRANCH  10  14
ATOM     11  O   UNL     1      35.464 -22.239 -17.885  0.00  0.00    -0.414 OA
ATOM     12  N   UNL     1      33.712 -23.625 -17.790  0.00  0.00    -0.110 NA
ATOM     13  N   UNL     1      33.784 -23.117 -19.073  0.00  0.00    -0.102 NA
ATOM     14  C   UNL     1      34.710 -23.085 -17.132  0.00  0.00    +0.244 C 
ATOM     15  C   UNL     1      34.822 -22.312 -19.083  0.00  0.00    +0.306 C 
ENDBRANCH  10  14
BRANCH  10  16
ATOM     16  C   UNL     1      34.076 -24.020 -14.821  0.00  0.00    +0.027 C 
ATOM     17  C   UNL     1      32.759 -23.234 -14.741  0.00  0.00    +0.002 C 
ATOM     18  C   UNL     1      34.584 -24.272 -13.395  0.00  0.00    +0.002 C 
ENDBRANCH  10  16
ENDBRANCH   2  10
TORSDOF 5
ENDMDL
MODEL 6
REMARK VINA RESULT:      -7.0     11.118     13.175
REMARK  Name = 46937140
REMARK  5 active torsions:
REMARK  status: ('A' for Active; 'I' for Inactive)
REMARK    1  A    between atoms: N_2  and  C_10
REMARK    2  A    between atoms: C_3  and  O_5
REMARK    3  A    between atoms: O_5  and  C_6
REMARK    4  A    between atoms: C_10  and  C_14
REMARK    5  A    between atoms: C_10  and  C_16
REMARK                            x       y       z     vdW  Elec       q    Type
REMARK                         _______ _______ _______ _____ _____    ______ ____
ROOT
ATOM      1  O   UNL     1      32.684 -23.284 -13.027  0.00  0.00    -0.226 OA
ATOM      2  N   UNL     1      33.921 -24.550 -14.525  0.00  0.00    -0.264 N 
ATOM      3  C   UNL     1      32.766 -24.150 -13.891  0.00  0.00    +0.402 C 
ATOM      4  H   UNL     1      33.857 -25.259 -15.205  0.00  0.00    +0.153 HD
ENDROOT
BRANCH   3   5
ATOM      5  O   UNL     1      31.709 -24.868 -14.373  0.00  0.00    -0.442 OA
BRANCH   5   6
ATOM      6  C   UNL     1      30.790 -24.147 -15.201  0.00  0.00    +0.138 C 
ATOM      7  C   UNL     1      31.581 -23.419 -16.287  0.00  0.00    +0.044 C 
ATOM      8  C   UNL     1      30.056 -23.146 -14.310  0.00  0.00    +0.044 C 
ATOM      9  C   UNL     1      29.806 -25.140 -15.818  0.00  0.00    +0.044 C 
ENDBRANCH   5   6
ENDBRANCH   3   5
BRANCH   2  10
ATOM     10  C   UNL     1      35.226 -23.986 -14.245  0.00  0.00    +0.153 C 
BRANCH  10  14
ATOM     11  O   UNL     1      36.863 -25.788 -13.938  0.00  0.00    -0.414 OA
ATOM     12  N   UNL     1      35.962 -25.043 -12.031  0.00  0.00    -0.110 NA
ATOM     13  N   UNL     1      36.856 -26.048 -11.717  0.00  0.00    -0.102 NA
ATOM     14  C   UNL     1      35.997 -24.926 -13.338  0.00  0.00    +0.244 C 
ATOM     15  C   UNL     1      37.359 -26.454 -12.860  0.00  0.00    +0.306 C 
ENDBRANCH  10  14
BRANCH  10  16
ATOM     16  C   UNL     1      35.973 -23.630 -15.560  0.00  0.00    +0.027 C 
ATOM     17  C   UNL     1      37.176 -22.716 -15.287  0.00  0.00    +0.002 C 
ATOM     18  C   UNL     1      35.050 -22.938 -16.572  0.00  0.00    +0.002 C 
ENDBRANCH  10  16
ENDBRANCH   2  10
TORSDOF 5
ENDMDL
MODEL 7
REMARK VINA RESULT:      -6.9      2.355      5.493
REMARK  Name = 46937140
REMARK  5 active torsions:
REMARK  status: ('A' for Active; 'I' for Inactive)
REMARK    1  A    between atoms: N_2  and  C_10
REMARK    2  A    between atoms: C_3  and  O_5
REMARK    3  A    between atoms: O_5  and  C_6
REMARK    4  A    between atoms: C_10  and  C_14
REMARK    5  A    between atoms: C_10  and  C_16
REMARK                            x       y       z     vdW  Elec       q    Type
REMARK                         _______ _______ _______ _____ _____    ______ ____
ROOT
ATOM      1  O   UNL     1      32.106 -12.549 -22.955  0.00  0.00    -0.226 OA
ATOM      2  N   UNL     1      34.033 -13.831 -23.109  0.00  0.00    -0.264 N 
ATOM      3  C   UNL     1      33.320 -12.653 -23.093  0.00  0.00    +0.402 C 
ATOM      4  H   UNL     1      35.009 -13.782 -23.228  0.00  0.00    +0.153 HD
ENDROOT
BRANCH   3   5
ATOM      5  O   UNL     1      34.176 -11.600 -23.258  0.00  0.00    -0.442 OA
BRANCH   5   6
ATOM      6  C   UNL     1      33.938 -10.778 -24.406  0.00  0.00    +0.138 C 
ATOM      7  C   UNL     1      33.673 -11.684 -25.608  0.00  0.00    +0.044 C 
ATOM      8  C   UNL     1      35.190  -9.934 -24.636  0.00  0.00    +0.044 C 
ATOM      9  C   UNL     1      32.731  -9.883 -24.123  0.00  0.00    +0.044 C 
ENDBRANCH   5   6
ENDBRANCH   3   5
BRANCH   2  10
ATOM     10  C   UNL     1      33.426 -15.137 -22.960  0.00  0.00    +0.153 C 
BRANCH  10  14
ATOM     11  O   UNL     1      34.497 -17.250 -23.598  0.00  0.00    -0.414 OA
ATOM     12  N   UNL     1      34.013 -15.917 -25.328  0.00  0.00    -0.110 NA
ATOM     13  N   UNL     1      34.609 -17.061 -25.824  0.00  0.00    -0.102 NA
ATOM     14  C   UNL     1      33.969 -16.071 -24.025  0.00  0.00    +0.244 C 
ATOM     15  C   UNL     1      34.874 -17.811 -24.779  0.00  0.00    +0.306 C 
ENDBRANCH  10  14
BRANCH  10  16
ATOM     16  C   UNL     1      33.599 -15.671 -21.511  0.00  0.00    +0.027 C 
ATOM     17  C   UNL     1      32.277 -15.611 -20.733  0.00  0.00    +0.002 C 
ATOM     18  C   UNL     1      34.661 -14.880 -20.735  0.00  0.00    +0.002 C 
ENDBRANCH  10  16
ENDBRANCH   2  10
TORSDOF 5
ENDMDL
MODEL 8
REMARK VINA RESULT:      -6.9     10.528     12.460
REMARK  Name = 46937140
REMARK  5 active torsions:
REMARK  status: ('A' for Active; 'I' for Inactive)
REMARK    1  A    between atoms: N_2  and  C_10
REMARK    2  A    between atoms: C_3  and  O_5
REMARK    3  A    between atoms: O_5  and  C_6
REMARK    4  A    between atoms: C_10  and  C_14
REMARK    5  A    between atoms: C_10  and  C_16
REMARK                            x       y       z     vdW  Elec       q    Type
REMARK                         _______ _______ _______ _____ _____    ______ ____
ROOT
ATOM      1  O   UNL     1      36.017 -24.961 -15.447  0.00  0.00    -0.226 OA
ATOM      2  N   UNL     1      34.536 -23.373 -14.631  0.00  0.00    -0.264 N 
ATOM      3  C   UNL     1      35.769 -23.971 -14.768  0.00  0.00    +0.402 C 
ATOM      4  H   UNL     1      34.465 -22.579 -14.054  0.00  0.00    +0.153 HD
ENDROOT
BRANCH   3   5
ATOM      5  O   UNL     1      36.691 -23.289 -14.025  0.00  0.00    -0.442 OA
BRANCH   5   6
ATOM      6  C   UNL     1      37.091 -23.915 -12.801  0.00  0.00    +0.138 C 
ATOM      7  C   UNL     1      38.320 -24.782 -13.075  0.00  0.00    +0.044 C 
ATOM      8  C   UNL     1      35.924 -24.776 -12.322  0.00  0.00    +0.044 C 
ATOM      9  C   UNL     1      37.411 -22.826 -11.778  0.00  0.00    +0.044 C 
ENDBRANCH   5   6
ENDBRANCH   3   5
BRANCH   2  10
ATOM     10  C   UNL     1      33.337 -23.851 -15.290  0.00  0.00    +0.153 C 
BRANCH  10  14
ATOM     11  O   UNL     1      31.594 -25.255 -14.286  0.00  0.00    -0.414 OA
ATOM     12  N   UNL     1      31.817 -23.251 -13.317  0.00  0.00    -0.110 NA
ATOM     13  N   UNL     1      30.810 -23.933 -12.661  0.00  0.00    -0.102 NA
ATOM     14  C   UNL     1      32.245 -24.060 -14.258  0.00  0.00    +0.244 C 
ATOM     15  C   UNL     1      30.714 -25.098 -13.260  0.00  0.00    +0.306 C 
ENDBRANCH  10  14
BRANCH  10  16
ATOM     16  C   UNL     1      32.927 -22.907 -16.454  0.00  0.00    +0.027 C 
ATOM     17  C   UNL     1      31.408 -22.926 -16.678  0.00  0.00    +0.002 C 
ATOM     18  C   UNL     1      33.622 -23.286 -17.768  0.00  0.00    +0.002 C 
ENDBRANCH  10  16
ENDBRANCH   2  10
TORSDOF 5
ENDMDL
MODEL 9
REMARK VINA RESULT:      -6.9      2.385      5.755
REMARK  Name = 46937140
REMARK  5 active torsions:
REMARK  status: ('A' for Active; 'I' for Inactive)
REMARK    1  A    between atoms: N_2  and  C_10
REMARK    2  A    between atoms: C_3  and  O_5
REMARK    3  A    between atoms: O_5  and  C_6
REMARK    4  A    between atoms: C_10  and  C_14
REMARK    5  A    between atoms: C_10  and  C_16
REMARK                            x       y       z     vdW  Elec       q    Type
REMARK                         _______ _______ _______ _____ _____    ______ ____
ROOT
ATOM      1  O   UNL     1      34.915 -15.796 -19.985  0.00  0.00    -0.226 OA
ATOM      2  N   UNL     1      34.185 -16.925 -21.876  0.00  0.00    -0.264 N 
ATOM      3  C   UNL     1      34.088 -15.988 -20.871  0.00  0.00    +0.402 C 
ATOM      4  H   UNL     1      33.452 -16.982 -22.530  0.00  0.00    +0.153 HD
ENDROOT
BRANCH   3   5
ATOM      5  O   UNL     1      32.919 -15.294 -21.005  0.00  0.00    -0.442 OA
BRANCH   5   6
ATOM      6  C   UNL     1      33.009 -14.051 -21.710  0.00  0.00    +0.138 C 
ATOM      7  C   UNL     1      34.485 -13.677 -21.850  0.00  0.00    +0.044 C 
ATOM      8  C   UNL     1      32.265 -13.001 -20.887  0.00  0.00    +0.044 C 
ATOM      9  C   UNL     1      32.358 -14.220 -23.082  0.00  0.00    +0.044 C 
ENDBRANCH   5   6
ENDBRANCH   3   5
BRANCH   2  10
ATOM     10  C   UNL     1      35.307 -17.830 -22.022  0.00  0.00    +0.153 C 
BRANCH  10  14
ATOM     11  O   UNL     1      33.815 -19.478 -20.985  0.00  0.00    -0.414 OA
ATOM     12  N   UNL     1      35.974 -19.756 -20.471  0.00  0.00    -0.110 NA
ATOM     13  N   UNL     1      35.252 -20.741 -19.825  0.00  0.00    -0.102 NA
ATOM     14  C   UNL     1      35.096 -19.042 -21.135  0.00  0.00    +0.244 C 
ATOM     15  C   UNL     1      33.996 -20.541 -20.154  0.00  0.00    +0.306 C 
ENDBRANCH  10  14
BRANCH  10  16
ATOM     16  C   UNL     1      35.549 -18.181 -23.517  0.00  0.00    +0.027 C 
ATOM     17  C   UNL     1      34.976 -17.098 -24.442  0.00  0.00    +0.002 C 
ATOM     18  C   UNL     1      34.924 -19.530 -23.894  0.00  0.00    +0.002 C 
ENDBRANCH  10  16
ENDBRANCH   2  10
TORSDOF 5
ENDMDL
