MODEL 1
REMARK VINA RESULT:      -8.7      0.000      0.000
REMARK  Name = 5894
REMARK  5 active torsions:
REMARK  status: ('A' for Active; 'I' for Inactive)
REMARK    1  A    between atoms: C1*_2  and  N_8
REMARK    2  A    between atoms: C2*_3  and  O2*_17
REMARK    3  A    between atoms: C3*_4  and  O3*_19
REMARK    4  A    between atoms: C4*_5  and  C5*_21
REMARK    5  A    between atoms: C5*_21  and  O5*_22
REMARK                            x       y       z     vdW  Elec       q    Type
REMARK                         _______ _______ _______ _____ _____    ______ ____
ROOT
ATOM      1  O4* UNL     1      35.178 -24.462 -15.735  0.00  0.00    -0.333 OA
ATOM      2  C1* UNL     1      35.687 -23.353 -16.500  0.00  0.00    +0.224 C 
ATOM      3  C2* UNL     1      36.181 -22.332 -15.487  0.00  0.00    +0.187 C 
ATOM      4  C3* UNL     1      36.701 -23.230 -14.382  0.00  0.00    +0.171 C 
ATOM      5  C4* UNL     1      35.684 -24.367 -14.383  0.00  0.00    +0.175 C 
ENDROOT
BRANCH   2   8
ATOM      6 CL   UNL     1      37.141 -19.766 -20.755  0.00  0.00    -0.082 Cl
ATOM      7 CL   UNL     1      34.204 -19.335 -22.009  0.00  0.00    -0.086 Cl
ATOM      8  N   UNL     1      34.645 -22.850 -17.392  0.00  0.00    -0.262 N 
ATOM      9  N   UNL     1      32.612 -22.555 -18.252  0.00  0.00    -0.251 NA
ATOM     10  C   UNL     1      34.813 -21.993 -18.451  0.00  0.00    +0.066 C 
ATOM     11  C   UNL     1      33.312 -23.156 -17.315  0.00  0.00    +0.221 C 
ATOM     12  C   UNL     1      33.532 -21.825 -18.970  0.00  0.00    +0.074 C 
ATOM     13  C   UNL     1      35.942 -21.371 -18.981  0.00  0.00    +0.028 C 
ATOM     14  C   UNL     1      33.349 -20.990 -20.086  0.00  0.00    +0.085 C 
ATOM     15  C   UNL     1      35.742 -20.543 -20.092  0.00  0.00    +0.066 C 
ATOM     16  C   UNL     1      34.469 -20.355 -20.635  0.00  0.00    +0.052 C 
ENDBRANCH   2   8
BRANCH   3  17
ATOM     17  O2* UNL     1      37.179 -21.491 -16.031  0.00  0.00    -0.378 OA
ATOM     18  H2* UNL     1      36.771 -20.863 -16.649  0.00  0.00    +0.211 HD
ENDBRANCH   3  17
BRANCH   4  19
ATOM     19  O3* UNL     1      37.976 -23.752 -14.753  0.00  0.00    -0.379 OA
ATOM     20  H3* UNL     1      38.308 -24.329 -14.047  0.00  0.00    +0.211 HD
ENDBRANCH   4  19
BRANCH   5  21
ATOM     21  C5* UNL     1      34.509 -24.113 -13.447  0.00  0.00    +0.169 C 
BRANCH  21  22
ATOM     22  O5* UNL     1      34.646 -24.951 -12.312  0.00  0.00    -0.379 OA
ATOM     23  H5* UNL     1      33.777 -25.085 -11.904  0.00  0.00    +0.211 HD
ENDBRANCH  21  22
ENDBRANCH   5  21
TORSDOF 5
ENDMDL
MODEL 2
REMARK VINA RESULT:      -8.7      3.787      5.216
REMARK  Name = 5894
REMARK  5 active torsions:
REMARK  status: ('A' for Active; 'I' for Inactive)
REMARK    1  A    between atoms: C1*_2  and  N_8
REMARK    2  A    between atoms: C2*_3  and  O2*_17
REMARK    3  A    between atoms: C3*_4  and  O3*_19
REMARK    4  A    between atoms: C4*_5  and  C5*_21
REMARK    5  A    between atoms: C5*_21  and  O5*_22
REMARK                            x       y       z     vdW  Elec       q    Type
REMARK                         _______ _______ _______ _____ _____    ______ ____
ROOT
ATOM      1  O4* UNL     1      37.596 -23.321 -13.755  0.00  0.00    -0.333 OA
ATOM      2  C1* UNL     1      36.199 -23.550 -13.488  0.00  0.00    +0.224 C 
ATOM      3  C2* UNL     1      36.108 -24.937 -12.870  0.00  0.00    +0.187 C 
ATOM      4  C3* UNL     1      37.399 -24.999 -12.077  0.00  0.00    +0.171 C 
ATOM      5  C4* UNL     1      38.378 -24.271 -12.993  0.00  0.00    +0.175 C 
ENDROOT
BRANCH   2   8
ATOM      6 CL   UNL     1      30.459 -23.833 -13.258  0.00  0.00    -0.082 Cl
ATOM      7 CL   UNL     1      29.855 -23.383 -16.392  0.00  0.00    -0.086 Cl
ATOM      8  N   UNL     1      35.431 -23.397 -14.722  0.00  0.00    -0.262 N 
ATOM      9  N   UNL     1      35.022 -23.087 -16.888  0.00  0.00    -0.251 NA
ATOM     10  C   UNL     1      34.065 -23.437 -14.849  0.00  0.00    +0.066 C 
ATOM     11  C   UNL     1      35.956 -23.186 -15.969  0.00  0.00    +0.221 C 
ATOM     12  C   UNL     1      33.835 -23.241 -16.208  0.00  0.00    +0.074 C 
ATOM     13  C   UNL     1      33.043 -23.622 -13.918  0.00  0.00    +0.028 C 
ATOM     14  C   UNL     1      32.513 -23.226 -16.684  0.00  0.00    +0.085 C 
ATOM     15  C   UNL     1      31.733 -23.604 -14.409  0.00  0.00    +0.066 C 
ATOM     16  C   UNL     1      31.471 -23.409 -15.767  0.00  0.00    +0.052 C 
ENDBRANCH   2   8
BRANCH   3  17
ATOM     17  O2* UNL     1      34.957 -25.080 -12.063  0.00  0.00    -0.378 OA
ATOM     18  H2* UNL     1      34.999 -24.451 -11.325  0.00  0.00    +0.211 HD
ENDBRANCH   3  17
BRANCH   4  19
ATOM     19  O3* UNL     1      37.253 -24.250 -10.871  0.00  0.00    -0.379 OA
ATOM     20  H3* UNL     1      37.263 -23.302 -11.076  0.00  0.00    +0.211 HD
ENDBRANCH   4  19
BRANCH   5  21
ATOM     21  C5* UNL     1      39.084 -25.203 -13.968  0.00  0.00    +0.169 C 
BRANCH  21  22
ATOM     22  O5* UNL     1      39.232 -24.535 -15.209  0.00  0.00    -0.379 OA
ATOM     23  H5* UNL     1      39.394 -23.592 -15.049  0.00  0.00    +0.211 HD
ENDBRANCH  21  22
ENDBRANCH   5  21
TORSDOF 5
ENDMDL
MODEL 3
REMARK VINA RESULT:      -8.3      2.283      3.675
REMARK  Name = 5894
REMARK  5 active torsions:
REMARK  status: ('A' for Active; 'I' for Inactive)
REMARK    1  A    between atoms: C1*_2  and  N_8
REMARK    2  A    between atoms: C2*_3  and  O2*_17
REMARK    3  A    between atoms: C3*_4  and  O3*_19
REMARK    4  A    between atoms: C4*_5  and  C5*_21
REMARK    5  A    between atoms: C5*_21  and  O5*_22
REMARK                            x       y       z     vdW  Elec       q    Type
REMARK                         _______ _______ _______ _____ _____    ______ ____
ROOT
ATOM      1  O4* UNL     1      37.213 -24.076 -14.237  0.00  0.00    -0.333 OA
ATOM      2  C1* UNL     1      36.026 -23.915 -13.438  0.00  0.00    +0.224 C 
ATOM      3  C2* UNL     1      35.999 -25.093 -12.477  0.00  0.00    +0.187 C 
ATOM      4  C3* UNL     1      37.477 -25.302 -12.213  0.00  0.00    +0.171 C 
ATOM      5  C4* UNL     1      38.094 -25.016 -13.579  0.00  0.00    +0.175 C 
ENDROOT
BRANCH   2   8
ATOM      6 CL   UNL     1      36.601 -21.628 -18.684  0.00  0.00    -0.082 Cl
ATOM      7 CL   UNL     1      33.543 -21.939 -19.654  0.00  0.00    -0.086 Cl
ATOM      8  N   UNL     1      34.854 -23.828 -14.307  0.00  0.00    -0.262 N 
ATOM      9  N   UNL     1      32.740 -24.044 -14.969  0.00  0.00    -0.251 NA
ATOM     10  C   UNL     1      34.812 -23.316 -15.580  0.00  0.00    +0.066 C 
ATOM     11  C   UNL     1      33.591 -24.250 -13.989  0.00  0.00    +0.221 C 
ATOM     12  C   UNL     1      33.483 -23.462 -15.970  0.00  0.00    +0.074 C 
ATOM     13  C   UNL     1      35.793 -22.754 -16.396  0.00  0.00    +0.028 C 
ATOM     14  C   UNL     1      33.094 -23.027 -17.249  0.00  0.00    +0.085 C 
ATOM     15  C   UNL     1      35.388 -22.327 -17.666  0.00  0.00    +0.066 C 
ATOM     16  C   UNL     1      34.062 -22.461 -18.086  0.00  0.00    +0.052 C 
ENDBRANCH   2   8
BRANCH   3  17
ATOM     17  O2* UNL     1      35.264 -24.802 -11.305  0.00  0.00    -0.378 OA
ATOM     18  H2* UNL     1      34.707 -25.563 -11.076  0.00  0.00    +0.211 HD
ENDBRANCH   3  17
BRANCH   4  19
ATOM     19  O3* UNL     1      37.938 -24.319 -11.286  0.00  0.00    -0.379 OA
ATOM     20  H3* UNL     1      38.044 -24.725 -10.411  0.00  0.00    +0.211 HD
ENDBRANCH   4  19
BRANCH   5  21
ATOM     21  C5* UNL     1      38.208 -26.260 -14.450  0.00  0.00    +0.169 C 
BRANCH  21  22
ATOM     22  O5* UNL     1      39.581 -26.536 -14.668  0.00  0.00    -0.379 OA
ATOM     23  H5* UNL     1      39.793 -27.413 -14.312  0.00  0.00    +0.211 HD
ENDBRANCH  21  22
ENDBRANCH   5  21
TORSDOF 5
ENDMDL
MODEL 4
REMARK VINA RESULT:      -8.3      3.875      4.996
REMARK  Name = 5894
REMARK  5 active torsions:
REMARK  status: ('A' for Active; 'I' for Inactive)
REMARK    1  A    between atoms: C1*_2  and  N_8
REMARK    2  A    between atoms: C2*_3  and  O2*_17
REMARK    3  A    between atoms: C3*_4  and  O3*_19
REMARK    4  A    between atoms: C4*_5  and  C5*_21
REMARK    5  A    between atoms: C5*_21  and  O5*_22
REMARK                            x       y       z     vdW  Elec       q    Type
REMARK                         _______ _______ _______ _____ _____    ______ ____
ROOT
ATOM      1  O4* UNL     1      35.976 -24.293 -12.860  0.00  0.00    -0.333 OA
ATOM      2  C1* UNL     1      36.070 -24.945 -14.141  0.00  0.00    +0.224 C 
ATOM      3  C2* UNL     1      37.554 -25.051 -14.455  0.00  0.00    +0.187 C 
ATOM      4  C3* UNL     1      38.141 -25.262 -13.073  0.00  0.00    +0.171 C 
ATOM      5  C4* UNL     1      37.265 -24.360 -12.208  0.00  0.00    +0.175 C 
ENDROOT
BRANCH   2   8
ATOM      6 CL   UNL     1      30.334 -24.815 -13.729  0.00  0.00    -0.082 Cl
ATOM      7 CL   UNL     1      29.735 -22.967 -16.302  0.00  0.00    -0.086 Cl
ATOM      8  N   UNL     1      35.304 -24.194 -15.134  0.00  0.00    -0.262 N 
ATOM      9  N   UNL     1      34.898 -22.920 -16.913  0.00  0.00    -0.251 NA
ATOM     10  C   UNL     1      33.939 -24.058 -15.186  0.00  0.00    +0.066 C 
ATOM     11  C   UNL     1      35.830 -23.496 -16.187  0.00  0.00    +0.221 C 
ATOM     12  C   UNL     1      33.711 -23.259 -16.304  0.00  0.00    +0.074 C 
ATOM     13  C   UNL     1      32.917 -24.551 -14.375  0.00  0.00    +0.028 C 
ATOM     14  C   UNL     1      32.391 -22.922 -16.647  0.00  0.00    +0.085 C 
ATOM     15  C   UNL     1      31.608 -24.205 -14.732  0.00  0.00    +0.066 C 
ATOM     16  C   UNL     1      31.349 -23.405 -15.847  0.00  0.00    +0.052 C 
ENDBRANCH   2   8
BRANCH   3  17
ATOM     17  O2* UNL     1      37.832 -26.116 -15.341  0.00  0.00    -0.378 OA
ATOM     18  H2* UNL     1      38.638 -25.916 -15.844  0.00  0.00    +0.211 HD
ENDBRANCH   3  17
BRANCH   4  19
ATOM     19  O3* UNL     1      37.941 -26.617 -12.673  0.00  0.00    -0.379 OA
ATOM     20  H3* UNL     1      38.634 -26.875 -12.045  0.00  0.00    +0.211 HD
ENDBRANCH   4  19
BRANCH   5  21
ATOM     21  C5* UNL     1      37.814 -22.944 -12.082  0.00  0.00    +0.169 C 
BRANCH  21  22
ATOM     22  O5* UNL     1      37.211 -22.323 -10.960  0.00  0.00    -0.379 OA
ATOM     23  H5* UNL     1      37.900 -22.019 -10.350  0.00  0.00    +0.211 HD
ENDBRANCH  21  22
ENDBRANCH   5  21
TORSDOF 5
ENDMDL
MODEL 5
REMARK VINA RESULT:      -7.9      4.475      6.909
REMARK  Name = 5894
REMARK  5 active torsions:
REMARK  status: ('A' for Active; 'I' for Inactive)
REMARK    1  A    between atoms: C1*_2  and  N_8
REMARK    2  A    between atoms: C2*_3  and  O2*_17
REMARK    3  A    between atoms: C3*_4  and  O3*_19
REMARK    4  A    between atoms: C4*_5  and  C5*_21
REMARK    5  A    between atoms: C5*_21  and  O5*_22
REMARK                            x       y       z     vdW  Elec       q    Type
REMARK                         _______ _______ _______ _____ _____    ______ ____
ROOT
ATOM      1  O4* UNL     1      35.560 -18.396 -20.431  0.00  0.00    -0.333 OA
ATOM      2  C1* UNL     1      35.274 -19.583 -21.195  0.00  0.00    +0.224 C 
ATOM      3  C2* UNL     1      34.619 -19.111 -22.483  0.00  0.00    +0.187 C 
ATOM      4  C3* UNL     1      35.341 -17.800 -22.726  0.00  0.00    +0.171 C 
ATOM      5  C4* UNL     1      35.498 -17.250 -21.312  0.00  0.00    +0.175 C 
ENDROOT
BRANCH   2   8
ATOM      6 CL   UNL     1      37.625 -22.329 -16.720  0.00  0.00    -0.082 Cl
ATOM      7 CL   UNL     1      35.016 -23.964 -15.768  0.00  0.00    -0.086 Cl
ATOM      8  N   UNL     1      34.446 -20.491 -20.403  0.00  0.00    -0.262 N 
ATOM      9  N   UNL     1      32.640 -21.619 -19.753  0.00  0.00    -0.251 NA
ATOM     10  C   UNL     1      34.841 -21.222 -19.311  0.00  0.00    +0.066 C 
ATOM     11  C   UNL     1      33.123 -20.763 -20.627  0.00  0.00    +0.221 C 
ATOM     12  C   UNL     1      33.698 -21.916 -18.924  0.00  0.00    +0.074 C 
ATOM     13  C   UNL     1      36.064 -21.331 -18.650  0.00  0.00    +0.028 C 
ATOM     14  C   UNL     1      33.761 -22.774 -17.812  0.00  0.00    +0.085 C 
ATOM     15  C   UNL     1      36.109 -22.189 -17.545  0.00  0.00    +0.066 C 
ATOM     16  C   UNL     1      34.979 -22.898 -17.133  0.00  0.00    +0.052 C 
ENDBRANCH   2   8
BRANCH   3  17
ATOM     17  O2* UNL     1      34.792 -20.040 -23.535  0.00  0.00    -0.378 OA
ATOM     18  H2* UNL     1      34.602 -19.607 -24.382  0.00  0.00    +0.211 HD
ENDBRANCH   3  17
BRANCH   4  19
ATOM     19  O3* UNL     1      36.636 -18.063 -23.264  0.00  0.00    -0.379 OA
ATOM     20  H3* UNL     1      37.195 -18.466 -22.581  0.00  0.00    +0.211 HD
ENDBRANCH   4  19
BRANCH   5  21
ATOM     21  C5* UNL     1      34.328 -16.375 -20.882  0.00  0.00    +0.169 C 
BRANCH  21  22
ATOM     22  O5* UNL     1      34.831 -15.277 -20.142  0.00  0.00    -0.379 OA
ATOM     23  H5* UNL     1      34.408 -15.253 -19.270  0.00  0.00    +0.211 HD
ENDBRANCH  21  22
ENDBRANCH   5  21
TORSDOF 5
ENDMDL
MODEL 6
REMARK VINA RESULT:      -7.9      3.616      4.542
REMARK  Name = 5894
REMARK  5 active torsions:
REMARK  status: ('A' for Active; 'I' for Inactive)
REMARK    1  A    between atoms: C1*_2  and  N_8
REMARK    2  A    between atoms: C2*_3  and  O2*_17
REMARK    3  A    between atoms: C3*_4  and  O3*_19
REMARK    4  A    between atoms: C4*_5  and  C5*_21
REMARK    5  A    between atoms: C5*_21  and  O5*_22
REMARK                            x       y       z     vdW  Elec       q    Type
REMARK                         _______ _______ _______ _____ _____    ______ ____
ROOT
ATOM      1  O4* UNL     1      35.193 -24.619 -14.884  0.00  0.00    -0.333 OA
ATOM      2  C1* UNL     1      35.443 -23.674 -15.943  0.00  0.00    +0.224 C 
ATOM      3  C2* UNL     1      36.175 -22.505 -15.302  0.00  0.00    +0.187 C 
ATOM      4  C3* UNL     1      37.003 -23.210 -14.245  0.00  0.00    +0.171 C 
ATOM      5  C4* UNL     1      36.052 -24.302 -13.765  0.00  0.00    +0.175 C 
ENDROOT
BRANCH   2   8
ATOM      6 CL   UNL     1      30.538 -24.247 -12.994  0.00  0.00    -0.082 Cl
ATOM      7 CL   UNL     1      28.513 -23.199 -15.272  0.00  0.00    -0.086 Cl
ATOM      8  N   UNL     1      34.183 -23.308 -16.584  0.00  0.00    -0.262 N 
ATOM      9  N   UNL     1      32.790 -22.585 -18.163  0.00  0.00    -0.251 NA
ATOM     10  C   UNL     1      32.928 -23.381 -16.031  0.00  0.00    +0.066 C 
ATOM     11  C   UNL     1      34.045 -22.827 -17.858  0.00  0.00    +0.221 C 
ATOM     12  C   UNL     1      32.078 -22.925 -17.035  0.00  0.00    +0.074 C 
ATOM     13  C   UNL     1      32.480 -23.795 -14.777  0.00  0.00    +0.028 C 
ATOM     14  C   UNL     1      30.695 -22.871 -16.789  0.00  0.00    +0.085 C 
ATOM     15  C   UNL     1      31.101 -23.734 -14.549  0.00  0.00    +0.066 C 
ATOM     16  C   UNL     1      30.223 -23.281 -15.537  0.00  0.00    +0.052 C 
ENDBRANCH   2   8
BRANCH   3  17
ATOM     17  O2* UNL     1      36.963 -21.799 -16.240  0.00  0.00    -0.378 OA
ATOM     18  H2* UNL     1      36.386 -21.265 -16.809  0.00  0.00    +0.211 HD
ENDBRANCH   3  17
BRANCH   4  19
ATOM     19  O3* UNL     1      38.136 -23.822 -14.858  0.00  0.00    -0.379 OA
ATOM     20  H3* UNL     1      37.856 -24.294 -15.658  0.00  0.00    +0.211 HD
ENDBRANCH   4  19
BRANCH   5  21
ATOM     21  C5* UNL     1      35.179 -23.858 -12.598  0.00  0.00    +0.169 C 
BRANCH  21  22
ATOM     22  O5* UNL     1      34.641 -25.010 -11.972  0.00  0.00    -0.379 OA
ATOM     23  H5* UNL     1      35.335 -25.680 -11.878  0.00  0.00    +0.211 HD
ENDBRANCH  21  22
ENDBRANCH   5  21
TORSDOF 5
ENDMDL
MODEL 7
REMARK VINA RESULT:      -7.9      3.720      5.666
REMARK  Name = 5894
REMARK  5 active torsions:
REMARK  status: ('A' for Active; 'I' for Inactive)
REMARK    1  A    between atoms: C1*_2  and  N_8
REMARK    2  A    between atoms: C2*_3  and  O2*_17
REMARK    3  A    between atoms: C3*_4  and  O3*_19
REMARK    4  A    between atoms: C4*_5  and  C5*_21
REMARK    5  A    between atoms: C5*_21  and  O5*_22
REMARK                            x       y       z     vdW  Elec       q    Type
REMARK                         _______ _______ _______ _____ _____    ______ ____
ROOT
ATOM      1  O4* UNL     1      30.944 -24.424 -16.097  0.00  0.00    -0.333 OA
ATOM      2  C1* UNL     1      31.464 -24.699 -14.782  0.00  0.00    +0.224 C 
ATOM      3  C2* UNL     1      30.496 -24.056 -13.801  0.00  0.00    +0.187 C 
ATOM      4  C3* UNL     1      29.173 -24.242 -14.516  0.00  0.00    +0.171 C 
ATOM      5  C4* UNL     1      29.560 -24.023 -15.976  0.00  0.00    +0.175 C 
ENDROOT
BRANCH   2   8
ATOM      6 CL   UNL     1      33.929 -22.327 -19.407  0.00  0.00    -0.082 Cl
ATOM      7 CL   UNL     1      36.786 -21.625 -18.090  0.00  0.00    -0.086 Cl
ATOM      8  N   UNL     1      32.834 -24.201 -14.680  0.00  0.00    -0.262 N 
ATOM      9  N   UNL     1      34.806 -23.722 -13.764  0.00  0.00    -0.251 NA
ATOM     10  C   UNL     1      33.570 -23.611 -15.677  0.00  0.00    +0.066 C 
ATOM     11  C   UNL     1      33.618 -24.244 -13.558  0.00  0.00    +0.221 C 
ATOM     12  C   UNL     1      34.795 -23.322 -15.081  0.00  0.00    +0.074 C 
ATOM     13  C   UNL     1      33.277 -23.315 -17.008  0.00  0.00    +0.028 C 
ATOM     14  C   UNL     1      35.798 -22.699 -15.844  0.00  0.00    +0.085 C 
ATOM     15  C   UNL     1      34.286 -22.696 -17.753  0.00  0.00    +0.066 C 
ATOM     16  C   UNL     1      35.525 -22.393 -17.182  0.00  0.00    +0.052 C 
ENDBRANCH   2   8
BRANCH   3  17
ATOM     17  O2* UNL     1      30.533 -24.684 -12.535  0.00  0.00    -0.378 OA
ATOM     18  H2* UNL     1      31.436 -24.990 -12.353  0.00  0.00    +0.211 HD
ENDBRANCH   3  17
BRANCH   4  19
ATOM     19  O3* UNL     1      28.730 -25.589 -14.355  0.00  0.00    -0.379 OA
ATOM     20  H3* UNL     1      29.438 -26.197 -14.621  0.00  0.00    +0.211 HD
ENDBRANCH   4  19
BRANCH   5  21
ATOM     21  C5* UNL     1      29.440 -22.568 -16.409  0.00  0.00    +0.169 C 
BRANCH  21  22
ATOM     22  O5* UNL     1      28.344 -22.449 -17.299  0.00  0.00    -0.379 OA
ATOM     23  H5* UNL     1      28.504 -21.715 -17.912  0.00  0.00    +0.211 HD
ENDBRANCH  21  22
ENDBRANCH   5  21
TORSDOF 5
ENDMDL
MODEL 8
REMARK VINA RESULT:      -7.8      7.804      9.931
REMARK  Name = 5894
REMARK  5 active torsions:
REMARK  status: ('A' for Active; 'I' for Inactive)
REMARK    1  A    between atoms: C1*_2  and  N_8
REMARK    2  A    between atoms: C2*_3  and  O2*_17
REMARK    3  A    between atoms: C3*_4  and  O3*_19
REMARK    4  A    between atoms: C4*_5  and  C5*_21
REMARK    5  A    between atoms: C5*_21  and  O5*_22
REMARK                            x       y       z     vdW  Elec       q    Type
REMARK                         _______ _______ _______ _____ _____    ______ ____
ROOT
ATOM      1  O4* UNL     1      35.013 -16.158 -23.739  0.00  0.00    -0.333 OA
ATOM      2  C1* UNL     1      34.967 -16.284 -22.305  0.00  0.00    +0.224 C 
ATOM      3  C2* UNL     1      34.753 -17.762 -22.017  0.00  0.00    +0.187 C 
ATOM      4  C3* UNL     1      35.530 -18.406 -23.149  0.00  0.00    +0.171 C 
ATOM      5  C4* UNL     1      35.243 -17.464 -24.315  0.00  0.00    +0.175 C 
ENDROOT
BRANCH   2   8
ATOM      6 CL   UNL     1      33.956 -11.224 -24.846  0.00  0.00    -0.082 Cl
ATOM      7 CL   UNL     1      31.577 -10.215 -22.920  0.00  0.00    -0.086 Cl
ATOM      8  N   UNL     1      33.922 -15.415 -21.767  0.00  0.00    -0.262 N 
ATOM      9  N   UNL     1      32.281 -14.724 -20.431  0.00  0.00    -0.251 NA
ATOM     10  C   UNL     1      33.551 -14.184 -22.245  0.00  0.00    +0.066 C 
ATOM     11  C   UNL     1      33.134 -15.693 -20.682  0.00  0.00    +0.221 C 
ATOM     12  C   UNL     1      32.527 -13.774 -21.396  0.00  0.00    +0.074 C 
ATOM     13  C   UNL     1      34.011 -13.417 -23.316  0.00  0.00    +0.028 C 
ATOM     14  C   UNL     1      31.913 -12.529 -21.614  0.00  0.00    +0.085 C 
ATOM     15  C   UNL     1      33.389 -12.180 -23.519  0.00  0.00    +0.066 C 
ATOM     16  C   UNL     1      32.358 -11.743 -22.683  0.00  0.00    +0.052 C 
ENDBRANCH   2   8
BRANCH   3  17
ATOM     17  O2* UNL     1      35.237 -18.126 -20.739  0.00  0.00    -0.378 OA
ATOM     18  H2* UNL     1      35.767 -17.398 -20.375  0.00  0.00    +0.211 HD
ENDBRANCH   3  17
BRANCH   4  19
ATOM     19  O3* UNL     1      36.925 -18.361 -22.854  0.00  0.00    -0.379 OA
ATOM     20  H3* UNL     1      37.186 -17.447 -22.659  0.00  0.00    +0.211 HD
ENDBRANCH   4  19
BRANCH   5  21
ATOM     21  C5* UNL     1      34.006 -17.864 -25.110  0.00  0.00    +0.169 C 
BRANCH  21  22
ATOM     22  O5* UNL     1      33.637 -16.782 -25.947  0.00  0.00    -0.379 OA
ATOM     23  H5* UNL     1      32.685 -16.619 -25.862  0.00  0.00    +0.211 HD
ENDBRANCH  21  22
ENDBRANCH   5  21
TORSDOF 5
ENDMDL
MODEL 9
REMARK VINA RESULT:      -7.8      4.477      6.394
REMARK  Name = 5894
REMARK  5 active torsions:
REMARK  status: ('A' for Active; 'I' for Inactive)
REMARK    1  A    between atoms: C1*_2  and  N_8
REMARK    2  A    between atoms: C2*_3  and  O2*_17
REMARK    3  A    between atoms: C3*_4  and  O3*_19
REMARK    4  A    between atoms: C4*_5  and  C5*_21
REMARK    5  A    between atoms: C5*_21  and  O5*_22
REMARK                            x       y       z     vdW  Elec       q    Type
REMARK                         _______ _______ _______ _____ _____    ______ ____
ROOT
ATOM      1  O4* UNL     1      31.868 -24.278 -16.058  0.00  0.00    -0.333 OA
ATOM      2  C1* UNL     1      32.757 -24.110 -14.937  0.00  0.00    +0.224 C 
ATOM      3  C2* UNL     1      32.128 -23.042 -14.055  0.00  0.00    +0.187 C 
ATOM      4  C3* UNL     1      30.651 -23.321 -14.249  0.00  0.00    +0.171 C 
ATOM      5  C4* UNL     1      30.584 -23.701 -15.725  0.00  0.00    +0.175 C 
ENDROOT
BRANCH   2   8
ATOM      6 CL   UNL     1      37.328 -26.218 -12.154  0.00  0.00    -0.082 Cl
ATOM      7 CL   UNL     1      39.626 -24.899 -13.988  0.00  0.00    -0.086 Cl
ATOM      8  N   UNL     1      34.096 -23.775 -15.415  0.00  0.00    -0.262 N 
ATOM      9  N   UNL     1      35.678 -22.858 -16.686  0.00  0.00    -0.251 NA
ATOM     10  C   UNL     1      35.288 -24.187 -14.875  0.00  0.00    +0.066 C 
ATOM     11  C   UNL     1      34.383 -22.982 -16.494  0.00  0.00    +0.221 C 
ATOM     12  C   UNL     1      36.259 -23.603 -15.685  0.00  0.00    +0.074 C 
ATOM     13  C   UNL     1      35.590 -24.998 -13.780  0.00  0.00    +0.028 C 
ATOM     14  C   UNL     1      37.616 -23.831 -15.400  0.00  0.00    +0.085 C 
ATOM     15  C   UNL     1      36.946 -25.214 -13.512  0.00  0.00    +0.066 C 
ATOM     16  C   UNL     1      37.942 -24.641 -14.307  0.00  0.00    +0.052 C 
ENDBRANCH   2   8
BRANCH   3  17
ATOM     17  O2* UNL     1      32.540 -23.161 -12.708  0.00  0.00    -0.378 OA
ATOM     18  H2* UNL     1      31.938 -22.654 -12.140  0.00  0.00    +0.211 HD
ENDBRANCH   3  17
BRANCH   4  19
ATOM     19  O3* UNL     1      30.273 -24.452 -13.465  0.00  0.00    -0.379 OA
ATOM     20  H3* UNL     1      30.986 -24.668 -12.844  0.00  0.00    +0.211 HD
ENDBRANCH   4  19
BRANCH   5  21
ATOM     21  C5* UNL     1      30.345 -22.504 -16.636  0.00  0.00    +0.169 C 
BRANCH  21  22
ATOM     22  O5* UNL     1      28.961 -22.431 -16.934  0.00  0.00    -0.379 OA
ATOM     23  H5* UNL     1      28.751 -21.550 -17.278  0.00  0.00    +0.211 HD
ENDBRANCH  21  22
ENDBRANCH   5  21
TORSDOF 5
ENDMDL
