MODEL 1
REMARK VINA RESULT:     -10.2      0.000      0.000
REMARK  Name = 25195461
REMARK  5 active torsions:
REMARK  status: ('A' for Active; 'I' for Inactive)
REMARK    1  A    between atoms: N_1  and  C_10
REMARK    2  A    between atoms: C_2  and  C_19
REMARK    3  A    between atoms: N_9  and  C_15
REMARK    4  A    between atoms: C_15  and  C_16
REMARK    5  A    between atoms: C_16  and  C_17
REMARK                            x       y       z     vdW  Elec       q    Type
REMARK                         _______ _______ _______ _____ _____    ______ ____
ROOT
ATOM      1  N   UNL     1      35.167 -18.756 -21.730  0.00  0.00    -0.307 N 
ATOM      2  C   UNL     1      35.632 -20.991 -19.966  0.00  0.00    +0.026 C 
ATOM      3  C   UNL     1      36.626 -19.820 -20.074  0.00  0.00    +0.026 C 
ATOM      4  C   UNL     1      34.210 -20.516 -20.320  0.00  0.00    +0.026 C 
ATOM      5  C   UNL     1      36.547 -19.156 -21.450  0.00  0.00    +0.091 C 
ATOM      6  C   UNL     1      34.182 -19.837 -21.690  0.00  0.00    +0.091 C 
ENDROOT
BRANCH   1  10
ATOM      7 CL   UNL     1      34.693 -18.143 -24.691  0.00  0.00    -0.076 Cl
ATOM      8  O   UNL     1      34.027 -15.291 -24.809  0.00  0.00    -0.269 OA
ATOM      9  N   UNL     1      34.167 -14.788 -22.539  0.00  0.00    -0.253 N 
ATOM     10  C   UNL     1      34.835 -17.480 -22.080  0.00  0.00    +0.064 C 
ATOM     11  C   UNL     1      34.599 -17.067 -23.340  0.00  0.00    +0.125 C 
ATOM     12  C   UNL     1      34.734 -16.509 -21.006  0.00  0.00    +0.032 C 
ATOM     13  C   UNL     1      34.237 -15.640 -23.647  0.00  0.00    +0.265 C 
ATOM     14  C   UNL     1      34.415 -15.237 -21.257  0.00  0.00    +0.069 C 
BRANCH   9  15
ATOM     15  C   UNL     1      33.822 -13.386 -22.745  0.00  0.00    +0.099 C 
BRANCH  15  16
ATOM     16  C   UNL     1      32.322 -13.134 -22.637  0.00  0.00    +0.022 C 
BRANCH  16  17
ATOM     17  C   UNL     1      31.906 -12.648 -21.247  0.00  0.00    +0.002 C 
ATOM     18  C   UNL     1      31.056 -11.390 -21.329  0.00  0.00    +0.000 C 
ENDBRANCH  16  17
ENDBRANCH  15  16
ENDBRANCH   9  15
ENDBRANCH   1  10
BRANCH   2  19
ATOM     19  C   UNL     1      35.686 -21.661 -18.607  0.00  0.00    -0.022 C 
ATOM     20  C   UNL     1      34.588 -22.384 -18.141  0.00  0.00    -0.004 C 
ATOM     21  C   UNL     1      36.835 -21.555 -17.822  0.00  0.00    -0.004 C 
ATOM     22  C   UNL     1      34.638 -23.001 -16.891  0.00  0.00    -0.000 C 
ATOM     23  C   UNL     1      36.885 -22.174 -16.572  0.00  0.00    -0.000 C 
ATOM     24  C   UNL     1      35.786 -22.897 -16.107  0.00  0.00    -0.000 C 
ENDBRANCH   2  19
TORSDOF 5
ENDMDL
MODEL 2
REMARK VINA RESULT:     -10.0      2.868      9.358
REMARK  Name = 25195461
REMARK  5 active torsions:
REMARK  status: ('A' for Active; 'I' for Inactive)
REMARK    1  A    between atoms: N_1  and  C_10
REMARK    2  A    between atoms: C_2  and  C_19
REMARK    3  A    between atoms: N_9  and  C_15
REMARK    4  A    between atoms: C_15  and  C_16
REMARK    5  A    between atoms: C_16  and  C_17
REMARK                            x       y       z     vdW  Elec       q    Type
REMARK                         _______ _______ _______ _____ _____    ______ ____
ROOT
ATOM      1  N   UNL     1      33.135 -13.335 -23.875  0.00  0.00    -0.307 N 
ATOM      2  C   UNL     1      32.453 -10.642 -23.101  0.00  0.00    +0.026 C 
ATOM      3  C   UNL     1      31.855 -11.869 -22.388  0.00  0.00    +0.026 C 
ATOM      4  C   UNL     1      33.829 -10.992 -23.700  0.00  0.00    +0.026 C 
ATOM      5  C   UNL     1      31.804 -13.078 -23.324  0.00  0.00    +0.091 C 
ATOM      6  C   UNL     1      33.736 -12.220 -24.607  0.00  0.00    +0.091 C 
ENDROOT
BRANCH   1  10
ATOM      7 CL   UNL     1      33.131 -15.151 -26.340  0.00  0.00    -0.076 Cl
ATOM      8  O   UNL     1      34.552 -17.583 -25.530  0.00  0.00    -0.269 OA
ATOM      9  N   UNL     1      35.045 -17.004 -23.329  0.00  0.00    -0.253 N 
ATOM     10  C   UNL     1      33.740 -14.554 -23.780  0.00  0.00    +0.064 C 
ATOM     11  C   UNL     1      33.815 -15.454 -24.781  0.00  0.00    +0.125 C 
ATOM     12  C   UNL     1      34.341 -14.892 -22.503  0.00  0.00    +0.032 C 
ATOM     13  C   UNL     1      34.499 -16.780 -24.599  0.00  0.00    +0.265 C 
ATOM     14  C   UNL     1      34.954 -16.065 -22.320  0.00  0.00    +0.069 C 
BRANCH   9  15
ATOM     15  C   UNL     1      35.728 -18.265 -23.064  0.00  0.00    +0.099 C 
BRANCH  15  16
ATOM     16  C   UNL     1      34.771 -19.362 -22.611  0.00  0.00    +0.022 C 
BRANCH  16  17
ATOM     17  C   UNL     1      34.688 -19.477 -21.087  0.00  0.00    +0.002 C 
ATOM     18  C   UNL     1      33.359 -20.071 -20.646  0.00  0.00    +0.000 C 
ENDBRANCH  16  17
ENDBRANCH  15  16
ENDBRANCH   9  15
ENDBRANCH   1  10
BRANCH   2  19
ATOM     19  C   UNL     1      32.521  -9.431 -22.190  0.00  0.00    -0.022 C 
ATOM     20  C   UNL     1      33.045  -8.229 -22.666  0.00  0.00    -0.004 C 
ATOM     21  C   UNL     1      32.058  -9.518 -20.877  0.00  0.00    -0.004 C 
ATOM     22  C   UNL     1      33.106  -7.115 -21.829  0.00  0.00    -0.000 C 
ATOM     23  C   UNL     1      32.119  -8.404 -20.041  0.00  0.00    -0.000 C 
ATOM     24  C   UNL     1      32.643  -7.202 -20.517  0.00  0.00    -0.000 C 
ENDBRANCH   2  19
TORSDOF 5
ENDMDL
MODEL 3
REMARK VINA RESULT:     -10.0      2.754      8.455
REMARK  Name = 25195461
REMARK  5 active torsions:
REMARK  status: ('A' for Active; 'I' for Inactive)
REMARK    1  A    between atoms: N_1  and  C_10
REMARK    2  A    between atoms: C_2  and  C_19
REMARK    3  A    between atoms: N_9  and  C_15
REMARK    4  A    between atoms: C_15  and  C_16
REMARK    5  A    between atoms: C_16  and  C_17
REMARK                            x       y       z     vdW  Elec       q    Type
REMARK                         _______ _______ _______ _____ _____    ______ ____
ROOT
ATOM      1  N   UNL     1      35.431 -19.326 -21.493  0.00  0.00    -0.307 N 
ATOM      2  C   UNL     1      35.092 -17.164 -23.371  0.00  0.00    +0.026 C 
ATOM      3  C   UNL     1      34.591 -18.588 -23.673  0.00  0.00    +0.026 C 
ATOM      4  C   UNL     1      35.125 -16.922 -21.850  0.00  0.00    +0.026 C 
ATOM      5  C   UNL     1      35.421 -19.633 -22.924  0.00  0.00    +0.091 C 
ATOM      6  C   UNL     1      35.943 -18.002 -21.141  0.00  0.00    +0.091 C 
ENDROOT
BRANCH   1  10
ATOM      7 CL   UNL     1      32.445 -19.733 -20.960  0.00  0.00    -0.076 Cl
ATOM      8  O   UNL     1      32.289 -21.781 -18.869  0.00  0.00    -0.269 OA
ATOM      9  N   UNL     1      34.565 -22.169 -18.566  0.00  0.00    -0.253 N 
ATOM     10  C   UNL     1      35.063 -20.240 -20.549  0.00  0.00    +0.064 C 
ATOM     11  C   UNL     1      33.789 -20.522 -20.211  0.00  0.00    +0.125 C 
ATOM     12  C   UNL     1      36.130 -20.950 -19.869  0.00  0.00    +0.032 C 
ATOM     13  C   UNL     1      33.461 -21.544 -19.158  0.00  0.00    +0.265 C 
ATOM     14  C   UNL     1      35.861 -21.861 -18.931  0.00  0.00    +0.069 C 
BRANCH   9  15
ATOM     15  C   UNL     1      34.339 -23.175 -17.534  0.00  0.00    +0.099 C 
BRANCH  15  16
ATOM     16  C   UNL     1      35.095 -22.868 -16.246  0.00  0.00    +0.022 C 
BRANCH  16  17
ATOM     17  C   UNL     1      34.347 -23.343 -14.998  0.00  0.00    +0.002 C 
ATOM     18  C   UNL     1      32.842 -23.319 -15.209  0.00  0.00    +0.000 C 
ENDBRANCH  16  17
ENDBRANCH  15  16
ENDBRANCH   9  15
ENDBRANCH   1  10
BRANCH   2  19
ATOM     19  C   UNL     1      34.279 -16.109 -24.098  0.00  0.00    -0.022 C 
ATOM     20  C   UNL     1      33.866 -14.960 -23.423  0.00  0.00    -0.004 C 
ATOM     21  C   UNL     1      33.946 -16.287 -25.441  0.00  0.00    -0.004 C 
ATOM     22  C   UNL     1      33.119 -13.990 -24.091  0.00  0.00    -0.000 C 
ATOM     23  C   UNL     1      33.200 -15.315 -26.108  0.00  0.00    -0.000 C 
ATOM     24  C   UNL     1      32.786 -14.167 -25.434  0.00  0.00    -0.000 C 
ENDBRANCH   2  19
TORSDOF 5
ENDMDL
MODEL 4
REMARK VINA RESULT:      -9.8      1.460      1.783
REMARK  Name = 25195461
REMARK  5 active torsions:
REMARK  status: ('A' for Active; 'I' for Inactive)
REMARK    1  A    between atoms: N_1  and  C_10
REMARK    2  A    between atoms: C_2  and  C_19
REMARK    3  A    between atoms: N_9  and  C_15
REMARK    4  A    between atoms: C_15  and  C_16
REMARK    5  A    between atoms: C_16  and  C_17
REMARK                            x       y       z     vdW  Elec       q    Type
REMARK                         _______ _______ _______ _____ _____    ______ ____
ROOT
ATOM      1  N   UNL     1      35.011 -18.044 -22.505  0.00  0.00    -0.307 N 
ATOM      2  C   UNL     1      35.578 -20.350 -20.868  0.00  0.00    +0.026 C 
ATOM      3  C   UNL     1      36.428 -19.068 -20.789  0.00  0.00    +0.026 C 
ATOM      4  C   UNL     1      34.148 -20.013 -21.330  0.00  0.00    +0.026 C 
ATOM      5  C   UNL     1      36.397 -18.306 -22.114  0.00  0.00    +0.091 C 
ATOM      6  C   UNL     1      34.166 -19.231 -22.644  0.00  0.00    +0.091 C 
ENDROOT
BRANCH   1  10
ATOM      7 CL   UNL     1      34.243 -17.413 -25.400  0.00  0.00    -0.076 Cl
ATOM      8  O   UNL     1      33.366 -14.616 -25.391  0.00  0.00    -0.269 OA
ATOM      9  N   UNL     1      33.663 -14.146 -23.130  0.00  0.00    -0.253 N 
ATOM     10  C   UNL     1      34.559 -16.790 -22.794  0.00  0.00    +0.064 C 
ATOM     11  C   UNL     1      34.187 -16.373 -24.020  0.00  0.00    +0.125 C 
ATOM     12  C   UNL     1      34.481 -15.849 -21.692  0.00  0.00    +0.032 C 
ATOM     13  C   UNL     1      33.700 -14.971 -24.261  0.00  0.00    +0.265 C 
ATOM     14  C   UNL     1      34.051 -14.599 -21.884  0.00  0.00    +0.069 C 
BRANCH   9  15
ATOM     15  C   UNL     1      33.203 -12.770 -23.272  0.00  0.00    +0.099 C 
BRANCH  15  16
ATOM     16  C   UNL     1      34.132 -11.932 -24.143  0.00  0.00    +0.022 C 
BRANCH  16  17
ATOM     17  C   UNL     1      33.767 -10.446 -24.133  0.00  0.00    +0.002 C 
ATOM     18  C   UNL     1      34.977  -9.574 -24.432  0.00  0.00    +0.000 C 
ENDBRANCH  16  17
ENDBRANCH  15  16
ENDBRANCH   9  15
ENDBRANCH   1  10
BRANCH   2  19
ATOM     19  C   UNL     1      35.587 -21.121 -19.561  0.00  0.00    -0.022 C 
ATOM     20  C   UNL     1      34.463 -21.849 -19.174  0.00  0.00    -0.004 C 
ATOM     21  C   UNL     1      36.721 -21.102 -18.748  0.00  0.00    -0.004 C 
ATOM     22  C   UNL     1      34.471 -22.559 -17.972  0.00  0.00    -0.000 C 
ATOM     23  C   UNL     1      36.729 -21.813 -17.547  0.00  0.00    -0.000 C 
ATOM     24  C   UNL     1      35.604 -22.541 -17.160  0.00  0.00    -0.000 C 
ENDBRANCH   2  19
TORSDOF 5
ENDMDL
MODEL 5
REMARK VINA RESULT:      -9.8      3.116      8.409
REMARK  Name = 25195461
REMARK  5 active torsions:
REMARK  status: ('A' for Active; 'I' for Inactive)
REMARK    1  A    between atoms: N_1  and  C_10
REMARK    2  A    between atoms: C_2  and  C_19
REMARK    3  A    between atoms: N_9  and  C_15
REMARK    4  A    between atoms: C_15  and  C_16
REMARK    5  A    between atoms: C_16  and  C_17
REMARK                            x       y       z     vdW  Elec       q    Type
REMARK                         _______ _______ _______ _____ _____    ______ ____
ROOT
ATOM      1  N   UNL     1      35.215 -19.128 -21.497  0.00  0.00    -0.307 N 
ATOM      2  C   UNL     1      34.954 -16.947 -23.367  0.00  0.00    +0.026 C 
ATOM      3  C   UNL     1      34.585 -18.393 -23.747  0.00  0.00    +0.026 C 
ATOM      4  C   UNL     1      34.796 -16.740 -21.849  0.00  0.00    +0.026 C 
ATOM      5  C   UNL     1      35.390 -19.401 -22.925  0.00  0.00    +0.091 C 
ATOM      6  C   UNL     1      35.596 -17.783 -21.066  0.00  0.00    +0.091 C 
ENDROOT
BRANCH   1  10
ATOM      7 CL   UNL     1      37.343 -20.682 -19.937  0.00  0.00    -0.076 Cl
ATOM      8  O   UNL     1      35.863 -22.561 -18.243  0.00  0.00    -0.269 OA
ATOM      9  N   UNL     1      33.694 -21.995 -18.877  0.00  0.00    -0.253 N 
ATOM     10  C   UNL     1      34.801 -20.085 -20.618  0.00  0.00    +0.064 C 
ATOM     11  C   UNL     1      35.623 -20.844 -19.866  0.00  0.00    +0.125 C 
ATOM     12  C   UNL     1      33.369 -20.289 -20.495  0.00  0.00    +0.032 C 
ATOM     13  C   UNL     1      35.089 -21.881 -18.918  0.00  0.00    +0.265 C 
ATOM     14  C   UNL     1      32.874 -21.206 -19.658  0.00  0.00    +0.069 C 
BRANCH   9  15
ATOM     15  C   UNL     1      33.090 -22.977 -17.983  0.00  0.00    +0.099 C 
BRANCH  15  16
ATOM     16  C   UNL     1      31.879 -22.422 -17.242  0.00  0.00    +0.022 C 
BRANCH  16  17
ATOM     17  C   UNL     1      31.326 -23.400 -16.203  0.00  0.00    +0.002 C 
ATOM     18  C   UNL     1      31.296 -22.779 -14.815  0.00  0.00    +0.000 C 
ENDBRANCH  16  17
ENDBRANCH  15  16
ENDBRANCH   9  15
ENDBRANCH   1  10
BRANCH   2  19
ATOM     19  C   UNL     1      34.163 -15.929 -24.165  0.00  0.00    -0.022 C 
ATOM     20  C   UNL     1      33.841 -16.185 -25.498  0.00  0.00    -0.004 C 
ATOM     21  C   UNL     1      33.757 -14.736 -23.567  0.00  0.00    -0.004 C 
ATOM     22  C   UNL     1      33.113 -15.248 -26.232  0.00  0.00    -0.000 C 
ATOM     23  C   UNL     1      33.028 -13.800 -24.301  0.00  0.00    -0.000 C 
ATOM     24  C   UNL     1      32.706 -14.056 -25.634  0.00  0.00    -0.000 C 
ENDBRANCH   2  19
TORSDOF 5
ENDMDL
MODEL 6
REMARK VINA RESULT:      -9.7      2.845      9.608
REMARK  Name = 25195461
REMARK  5 active torsions:
REMARK  status: ('A' for Active; 'I' for Inactive)
REMARK    1  A    between atoms: N_1  and  C_10
REMARK    2  A    between atoms: C_2  and  C_19
REMARK    3  A    between atoms: N_9  and  C_15
REMARK    4  A    between atoms: C_15  and  C_16
REMARK    5  A    between atoms: C_16  and  C_17
REMARK                            x       y       z     vdW  Elec       q    Type
REMARK                         _______ _______ _______ _____ _____    ______ ____
ROOT
ATOM      1  N   UNL     1      33.297 -13.739 -23.558  0.00  0.00    -0.307 N 
ATOM      2  C   UNL     1      32.673 -10.923 -23.589  0.00  0.00    +0.026 C 
ATOM      3  C   UNL     1      32.155 -11.859 -22.481  0.00  0.00    +0.026 C 
ATOM      4  C   UNL     1      33.987 -11.471 -24.177  0.00  0.00    +0.026 C 
ATOM      5  C   UNL     1      32.023 -13.295 -22.990  0.00  0.00    +0.091 C 
ATOM      6  C   UNL     1      33.817 -12.916 -24.650  0.00  0.00    +0.091 C 
ENDROOT
BRANCH   1  10
ATOM      7 CL   UNL     1      33.868 -14.092 -20.571  0.00  0.00    -0.076 Cl
ATOM      8  O   UNL     1      35.190 -16.696 -20.323  0.00  0.00    -0.269 OA
ATOM      9  N   UNL     1      35.199 -17.318 -22.568  0.00  0.00    -0.253 N 
ATOM     10  C   UNL     1      33.917 -14.884 -23.150  0.00  0.00    +0.064 C 
ATOM     11  C   UNL     1      34.230 -15.173 -21.871  0.00  0.00    +0.125 C 
ATOM     12  C   UNL     1      34.259 -15.849 -24.178  0.00  0.00    +0.032 C 
ATOM     13  C   UNL     1      34.915 -16.458 -21.499  0.00  0.00    +0.265 C 
ATOM     14  C   UNL     1      34.868 -16.997 -23.870  0.00  0.00    +0.069 C 
BRANCH   9  15
ATOM     15  C   UNL     1      35.863 -18.588 -22.298  0.00  0.00    +0.099 C 
BRANCH  15  16
ATOM     16  C   UNL     1      34.874 -19.736 -22.124  0.00  0.00    +0.022 C 
BRANCH  16  17
ATOM     17  C   UNL     1      34.643 -20.096 -20.656  0.00  0.00    +0.002 C 
ATOM     18  C   UNL     1      33.165 -20.290 -20.357  0.00  0.00    +0.000 C 
ENDBRANCH  16  17
ENDBRANCH  15  16
ENDBRANCH   9  15
ENDBRANCH   1  10
BRANCH   2  19
ATOM     19  C   UNL     1      32.819  -9.493 -23.105  0.00  0.00    -0.022 C 
ATOM     20  C   UNL     1      31.864  -8.946 -22.248  0.00  0.00    -0.004 C 
ATOM     21  C   UNL     1      33.908  -8.725 -23.518  0.00  0.00    -0.004 C 
ATOM     22  C   UNL     1      31.998  -7.630 -21.803  0.00  0.00    -0.000 C 
ATOM     23  C   UNL     1      34.042  -7.410 -23.071  0.00  0.00    -0.000 C 
ATOM     24  C   UNL     1      33.088  -6.863 -22.214  0.00  0.00    -0.000 C 
ENDBRANCH   2  19
TORSDOF 5
ENDMDL
MODEL 7
REMARK VINA RESULT:      -9.7      4.093      9.361
REMARK  Name = 25195461
REMARK  5 active torsions:
REMARK  status: ('A' for Active; 'I' for Inactive)
REMARK    1  A    between atoms: N_1  and  C_10
REMARK    2  A    between atoms: C_2  and  C_19
REMARK    3  A    between atoms: N_9  and  C_15
REMARK    4  A    between atoms: C_15  and  C_16
REMARK    5  A    between atoms: C_16  and  C_17
REMARK                            x       y       z     vdW  Elec       q    Type
REMARK                         _______ _______ _______ _____ _____    ______ ____
ROOT
ATOM      1  N   UNL     1      35.406 -21.679 -19.139  0.00  0.00    -0.307 N 
ATOM      2  C   UNL     1      35.066 -19.766 -21.272  0.00  0.00    +0.026 C 
ATOM      3  C   UNL     1      33.931 -20.094 -20.284  0.00  0.00    +0.026 C 
ATOM      4  C   UNL     1      36.435 -20.009 -20.608  0.00  0.00    +0.026 C 
ATOM      5  C   UNL     1      34.077 -21.511 -19.728  0.00  0.00    +0.091 C 
ATOM      6  C   UNL     1      36.528 -21.428 -20.045  0.00  0.00    +0.091 C 
ENDROOT
BRANCH   1  10
ATOM      7 CL   UNL     1      33.093 -23.140 -17.766  0.00  0.00    -0.076 Cl
ATOM      8  O   UNL     1      34.067 -23.812 -15.084  0.00  0.00    -0.269 OA
ATOM      9  N   UNL     1      36.206 -22.904 -15.233  0.00  0.00    -0.253 N 
ATOM     10  C   UNL     1      35.587 -22.113 -17.859  0.00  0.00    +0.064 C 
ATOM     11  C   UNL     1      34.659 -22.768 -17.133  0.00  0.00    +0.125 C 
ATOM     12  C   UNL     1      36.875 -21.842 -17.248  0.00  0.00    +0.032 C 
ATOM     13  C   UNL     1      34.933 -23.216 -15.724  0.00  0.00    +0.265 C 
ATOM     14  C   UNL     1      37.139 -22.231 -15.997  0.00  0.00    +0.069 C 
BRANCH   9  15
ATOM     15  C   UNL     1      36.558 -23.302 -13.874  0.00  0.00    +0.099 C 
BRANCH  15  16
ATOM     16  C   UNL     1      37.575 -24.437 -13.845  0.00  0.00    +0.022 C 
BRANCH  16  17
ATOM     17  C   UNL     1      36.915 -25.816 -13.776  0.00  0.00    +0.002 C 
ATOM     18  C   UNL     1      36.843 -26.467 -15.149  0.00  0.00    +0.000 C 
ENDBRANCH  16  17
ENDBRANCH  15  16
ENDBRANCH   9  15
ENDBRANCH   1  10
BRANCH   2  19
ATOM     19  C   UNL     1      34.947 -18.362 -21.832  0.00  0.00    -0.022 C 
ATOM     20  C   UNL     1      34.994 -18.155 -23.210  0.00  0.00    -0.004 C 
ATOM     21  C   UNL     1      34.790 -17.277 -20.969  0.00  0.00    -0.004 C 
ATOM     22  C   UNL     1      34.884 -16.863 -23.726  0.00  0.00    -0.000 C 
ATOM     23  C   UNL     1      34.678 -15.986 -21.485  0.00  0.00    -0.000 C 
ATOM     24  C   UNL     1      34.725 -15.779 -22.863  0.00  0.00    -0.000 C 
ENDBRANCH   2  19
TORSDOF 5
ENDMDL
MODEL 8
REMARK VINA RESULT:      -9.6      5.407     12.473
REMARK  Name = 25195461
REMARK  5 active torsions:
REMARK  status: ('A' for Active; 'I' for Inactive)
REMARK    1  A    between atoms: N_1  and  C_10
REMARK    2  A    between atoms: C_2  and  C_19
REMARK    3  A    between atoms: N_9  and  C_15
REMARK    4  A    between atoms: C_15  and  C_16
REMARK    5  A    between atoms: C_16  and  C_17
REMARK                            x       y       z     vdW  Elec       q    Type
REMARK                         _______ _______ _______ _____ _____    ______ ____
ROOT
ATOM      1  N   UNL     1      32.242  -8.958 -22.733  0.00  0.00    -0.307 N 
ATOM      2  C   UNL     1      32.438  -6.380 -24.012  0.00  0.00    +0.026 C 
ATOM      3  C   UNL     1      33.679  -7.120 -23.480  0.00  0.00    +0.026 C 
ATOM      4  C   UNL     1      31.334  -7.390 -24.381  0.00  0.00    +0.026 C 
ATOM      5  C   UNL     1      33.312  -8.048 -22.321  0.00  0.00    +0.091 C 
ATOM      6  C   UNL     1      31.017  -8.312 -23.203  0.00  0.00    +0.091 C 
ENDROOT
BRANCH   1  10
ATOM      7 CL   UNL     1      34.068 -10.442 -24.692  0.00  0.00    -0.076 Cl
ATOM      8  O   UNL     1      33.890 -13.271 -23.947  0.00  0.00    -0.269 OA
ATOM      9  N   UNL     1      32.405 -13.088 -22.163  0.00  0.00    -0.253 N 
ATOM     10  C   UNL     1      32.352 -10.313 -22.614  0.00  0.00    +0.064 C 
ATOM     11  C   UNL     1      33.116 -11.093 -23.404  0.00  0.00    +0.125 C 
ATOM     12  C   UNL     1      31.584 -10.944 -21.557  0.00  0.00    +0.032 C 
ATOM     13  C   UNL     1      33.184 -12.582 -23.211  0.00  0.00    +0.265 C 
ATOM     14  C   UNL     1      31.630 -12.266 -21.368  0.00  0.00    +0.069 C 
BRANCH   9  15
ATOM     15  C   UNL     1      32.413 -14.523 -21.903  0.00  0.00    +0.099 C 
BRANCH  15  16
ATOM     16  C   UNL     1      33.011 -14.865 -20.543  0.00  0.00    +0.022 C 
BRANCH  16  17
ATOM     17  C   UNL     1      34.519 -15.111 -20.608  0.00  0.00    +0.002 C 
ATOM     18  C   UNL     1      34.833 -16.565 -20.922  0.00  0.00    +0.000 C 
ENDBRANCH  16  17
ENDBRANCH  15  16
ENDBRANCH   9  15
ENDBRANCH   1  10
BRANCH   2  19
ATOM     19  C   UNL     1      32.776  -5.458 -25.168  0.00  0.00    -0.022 C 
ATOM     20  C   UNL     1      33.941  -5.664 -25.906  0.00  0.00    -0.004 C 
ATOM     21  C   UNL     1      31.921  -4.405 -25.494  0.00  0.00    -0.004 C 
ATOM     22  C   UNL     1      34.252  -4.816 -26.970  0.00  0.00    -0.000 C 
ATOM     23  C   UNL     1      32.231  -3.558 -26.558  0.00  0.00    -0.000 C 
ATOM     24  C   UNL     1      33.397  -3.764 -27.296  0.00  0.00    -0.000 C 
ENDBRANCH   2  19
TORSDOF 5
ENDMDL
MODEL 9
REMARK VINA RESULT:      -9.5      4.043      9.015
REMARK  Name = 25195461
REMARK  5 active torsions:
REMARK  status: ('A' for Active; 'I' for Inactive)
REMARK    1  A    between atoms: N_1  and  C_10
REMARK    2  A    between atoms: C_2  and  C_19
REMARK    3  A    between atoms: N_9  and  C_15
REMARK    4  A    between atoms: C_15  and  C_16
REMARK    5  A    between atoms: C_16  and  C_17
REMARK                            x       y       z     vdW  Elec       q    Type
REMARK                         _______ _______ _______ _____ _____    ______ ____
ROOT
ATOM      1  N   UNL     1      34.501 -21.758 -19.399  0.00  0.00    -0.307 N 
ATOM      2  C   UNL     1      34.687 -19.711 -21.423  0.00  0.00    +0.026 C 
ATOM      3  C   UNL     1      33.366 -20.015 -20.692  0.00  0.00    +0.026 C 
ATOM      4  C   UNL     1      35.886 -20.084 -20.531  0.00  0.00    +0.026 C 
ATOM      5  C   UNL     1      33.322 -21.467 -20.216  0.00  0.00    +0.091 C 
ATOM      6  C   UNL     1      35.789 -21.534 -20.058  0.00  0.00    +0.091 C 
ENDROOT
BRANCH   1  10
ATOM      7 CL   UNL     1      36.944 -21.559 -17.564  0.00  0.00    -0.076 Cl
ATOM      8  O   UNL     1      36.141 -22.819 -15.043  0.00  0.00    -0.269 OA
ATOM      9  N   UNL     1      33.959 -23.409 -15.607  0.00  0.00    -0.253 N 
ATOM     10  C   UNL     1      34.407 -22.274 -18.140  0.00  0.00    +0.064 C 
ATOM     11  C   UNL     1      35.398 -22.257 -17.227  0.00  0.00    +0.125 C 
ATOM     12  C   UNL     1      33.141 -22.882 -17.772  0.00  0.00    +0.032 C 
ATOM     13  C   UNL     1      35.218 -22.848 -15.857  0.00  0.00    +0.265 C 
ATOM     14  C   UNL     1      32.960 -23.413 -16.560  0.00  0.00    +0.069 C 
BRANCH   9  15
ATOM     15  C   UNL     1      33.696 -24.004 -14.301  0.00  0.00    +0.099 C 
BRANCH  15  16
ATOM     16  C   UNL     1      32.250 -23.816 -13.857  0.00  0.00    +0.022 C 
BRANCH  16  17
ATOM     17  C   UNL     1      31.509 -25.145 -13.689  0.00  0.00    +0.002 C 
ATOM     18  C   UNL     1      30.387 -25.287 -14.705  0.00  0.00    +0.000 C 
ENDBRANCH  16  17
ENDBRANCH  15  16
ENDBRANCH   9  15
ENDBRANCH   1  10
BRANCH   2  19
ATOM     19  C   UNL     1      34.757 -18.273 -21.900  0.00  0.00    -0.022 C 
ATOM     20  C   UNL     1      34.634 -17.228 -20.984  0.00  0.00    -0.004 C 
ATOM     21  C   UNL     1      34.944 -17.995 -23.254  0.00  0.00    -0.004 C 
ATOM     22  C   UNL     1      34.699 -15.905 -21.423  0.00  0.00    -0.000 C 
ATOM     23  C   UNL     1      35.010 -16.672 -23.692  0.00  0.00    -0.000 C 
ATOM     24  C   UNL     1      34.888 -15.627 -22.776  0.00  0.00    -0.000 C 
ENDBRANCH   2  19
TORSDOF 5
ENDMDL
