MODEL 1
REMARK VINA RESULT:      -9.0      0.000      0.000
REMARK  Name = 275196
REMARK  4 active torsions:
REMARK  status: ('A' for Active; 'I' for Inactive)
REMARK    1  A    between atoms: C_4  and  C_18
REMARK    2  A    between atoms: C_9  and  O_30
REMARK    3  A    between atoms: C_23  and  O_26
REMARK    4  A    between atoms: C_25  and  O_28
REMARK                            x       y       z     vdW  Elec       q    Type
REMARK                         _______ _______ _______ _____ _____    ______ ____
ROOT
ATOM      1  O   UNL     1      34.733 -16.972 -22.566  0.00  0.00    -0.432 OA
ATOM      2  O   UNL     1      34.420 -18.011 -24.717  0.00  0.00    -0.435 OA
ATOM      3  N   UNL     1      33.592 -11.667 -25.530  0.00  0.00    +0.392 N 
ATOM      4  C   UNL     1      33.600 -12.446 -24.273  0.00  0.00    +0.013 C 
ATOM      5  C   UNL     1      33.824 -13.940 -24.452  0.00  0.00    -0.005 C 
ATOM      6  C   UNL     1      32.802 -12.325 -26.576  0.00  0.00    -0.072 C 
ATOM      7  C   UNL     1      33.635 -14.557 -25.715  0.00  0.00    -0.024 C 
ATOM      8  C   UNL     1      33.294 -13.730 -26.928  0.00  0.00    +0.003 C 
ATOM      9  C   UNL     1      34.199 -14.721 -23.344  0.00  0.00    +0.169 C 
ATOM     10  C   UNL     1      34.944 -11.340 -25.983  0.00  0.00    -0.100 C 
ATOM     11  C   UNL     1      33.830 -15.939 -25.864  0.00  0.00    +0.036 C 
ATOM     12  C   UNL     1      34.373 -16.076 -23.526  0.00  0.00    +0.210 C 
ATOM     13  C   UNL     1      34.194 -16.669 -24.753  0.00  0.00    +0.179 C 
ATOM     14  C   UNL     1      34.759 -18.196 -23.328  0.00  0.00    +0.429 C 
ATOM     15  H   UNL     1      33.131 -10.780 -25.326  0.00  0.00    -0.079 HD
ENDROOT
BRANCH   4  18
ATOM     16  O   UNL     1      32.222 -13.096 -22.373  0.00  0.00    -0.446 OA
ATOM     17  O   UNL     1      32.044 -12.951 -20.074  0.00  0.00    -0.245 OA
ATOM     18  C   UNL     1      32.292 -12.190 -23.506  0.00  0.00    +0.177 C 
ATOM     19  C   UNL     1      32.224 -10.863 -22.855  0.00  0.00    +0.025 C 
ATOM     20  C   UNL     1      32.115 -11.022 -21.488  0.00  0.00    +0.112 C 
ATOM     21  C   UNL     1      32.118 -12.442 -21.175  0.00  0.00    +0.344 C 
ATOM     22  C   UNL     1      32.242  -9.596 -23.412  0.00  0.00    +0.003 C 
ATOM     23  C   UNL     1      32.027  -9.952 -20.615  0.00  0.00    +0.178 C 
ATOM     24  C   UNL     1      32.154  -8.493 -22.556  0.00  0.00    +0.040 C 
ATOM     25  C   UNL     1      32.047  -8.670 -21.167  0.00  0.00    +0.173 C 
BRANCH  23  26
ATOM     26  O   UNL     1      31.923 -10.132 -19.275  0.00  0.00    -0.468 OA
ATOM     27  C   UNL     1      30.623 -10.410 -18.750  0.00  0.00    +0.253 C 
ENDBRANCH  23  26
BRANCH  25  28
ATOM     28  O   UNL     1      31.963  -7.573 -20.363  0.00  0.00    -0.468 OA
ATOM     29  C   UNL     1      31.944  -6.300 -21.005  0.00  0.00    +0.253 C 
ENDBRANCH  25  28
ENDBRANCH   4  18
BRANCH   9  30
ATOM     30  O   UNL     1      34.453 -14.184 -22.122  0.00  0.00    -0.469 OA
ATOM     31  C   UNL     1      34.569 -15.090 -21.024  0.00  0.00    +0.253 C 
ENDBRANCH   9  30
TORSDOF 4
ENDMDL
MODEL 2
REMARK VINA RESULT:      -8.5      1.442      7.002
REMARK  Name = 275196
REMARK  4 active torsions:
REMARK  status: ('A' for Active; 'I' for Inactive)
REMARK    1  A    between atoms: C_4  and  C_18
REMARK    2  A    between atoms: C_9  and  O_30
REMARK    3  A    between atoms: C_23  and  O_26
REMARK    4  A    between atoms: C_25  and  O_28
REMARK                            x       y       z     vdW  Elec       q    Type
REMARK                         _______ _______ _______ _____ _____    ______ ____
ROOT
ATOM      1  O   UNL     1      31.413 -11.933 -19.987  0.00  0.00    -0.432 OA
ATOM      2  O   UNL     1      31.662  -9.629 -20.648  0.00  0.00    -0.435 OA
ATOM      3  N   UNL     1      33.477 -13.253 -25.664  0.00  0.00    +0.392 N 
ATOM      4  C   UNL     1      33.294 -13.652 -24.252  0.00  0.00    +0.013 C 
ATOM      5  C   UNL     1      32.855 -12.529 -23.326  0.00  0.00    -0.005 C 
ATOM      6  C   UNL     1      34.205 -11.986 -25.785  0.00  0.00    -0.072 C 
ATOM      7  C   UNL     1      33.005 -11.171 -23.707  0.00  0.00    -0.024 C 
ATOM      8  C   UNL     1      33.522 -10.814 -25.077  0.00  0.00    +0.003 C 
ATOM      9  C   UNL     1      32.316 -12.843 -22.064  0.00  0.00    +0.169 C 
ATOM     10  C   UNL     1      32.212 -13.235 -26.399  0.00  0.00    -0.100 C 
ATOM     11  C   UNL     1      32.610 -10.143 -22.837  0.00  0.00    +0.036 C 
ATOM     12  C   UNL     1      31.947 -11.806 -21.233  0.00  0.00    +0.210 C 
ATOM     13  C   UNL     1      32.090 -10.492 -21.609  0.00  0.00    +0.179 C 
ATOM     14  C   UNL     1      31.236 -10.549 -19.622  0.00  0.00    +0.429 C 
ATOM     15  H   UNL     1      34.057 -13.970 -26.101  0.00  0.00    -0.079 HD
ENDROOT
BRANCH   4  18
ATOM     16  O   UNL     1      34.612 -14.215 -22.282  0.00  0.00    -0.446 OA
ATOM     17  O   UNL     1      34.740 -15.666 -20.489  0.00  0.00    -0.245 OA
ATOM     18  C   UNL     1      34.590 -14.297 -23.733  0.00  0.00    +0.177 C 
ATOM     19  C   UNL     1      34.674 -15.756 -23.969  0.00  0.00    +0.025 C 
ATOM     20  C   UNL     1      34.748 -16.418 -22.760  0.00  0.00    +0.112 C 
ATOM     21  C   UNL     1      34.703 -15.443 -21.682  0.00  0.00    +0.344 C 
ATOM     22  C   UNL     1      34.700 -16.465 -25.157  0.00  0.00    +0.003 C 
ATOM     23  C   UNL     1      34.842 -17.795 -22.665  0.00  0.00    +0.178 C 
ATOM     24  C   UNL     1      34.795 -17.859 -25.096  0.00  0.00    +0.040 C 
ATOM     25  C   UNL     1      34.865 -18.520 -23.858  0.00  0.00    +0.173 C 
BRANCH  23  26
ATOM     26  O   UNL     1      34.910 -18.425 -21.466  0.00  0.00    -0.468 OA
ATOM     27  C   UNL     1      36.202 -18.836 -21.015  0.00  0.00    +0.253 C 
ENDBRANCH  23  26
BRANCH  25  28
ATOM     28  O   UNL     1      34.957 -19.879 -23.836  0.00  0.00    -0.468 OA
ATOM     29  C   UNL     1      34.960 -20.549 -25.096  0.00  0.00    +0.253 C 
ENDBRANCH  25  28
ENDBRANCH   4  18
BRANCH   9  30
ATOM     30  O   UNL     1      32.092 -14.120 -21.661  0.00  0.00    -0.469 OA
ATOM     31  C   UNL     1      32.072 -14.365 -20.255  0.00  0.00    +0.253 C 
ENDBRANCH   9  30
TORSDOF 4
ENDMDL
MODEL 3
REMARK VINA RESULT:      -8.5      1.412      7.062
REMARK  Name = 275196
REMARK  4 active torsions:
REMARK  status: ('A' for Active; 'I' for Inactive)
REMARK    1  A    between atoms: C_4  and  C_18
REMARK    2  A    between atoms: C_9  and  O_30
REMARK    3  A    between atoms: C_23  and  O_26
REMARK    4  A    between atoms: C_25  and  O_28
REMARK                            x       y       z     vdW  Elec       q    Type
REMARK                         _______ _______ _______ _____ _____    ______ ____
ROOT
ATOM      1  O   UNL     1      31.807 -10.238 -20.771  0.00  0.00    -0.432 OA
ATOM      2  O   UNL     1      32.460  -8.367 -22.142  0.00  0.00    -0.435 OA
ATOM      3  N   UNL     1      33.399 -13.706 -25.636  0.00  0.00    +0.392 N 
ATOM      4  C   UNL     1      33.191 -13.579 -24.177  0.00  0.00    +0.013 C 
ATOM      5  C   UNL     1      33.001 -12.153 -23.684  0.00  0.00    -0.005 C 
ATOM      6  C   UNL     1      34.346 -12.708 -26.143  0.00  0.00    -0.072 C 
ATOM      7  C   UNL     1      33.389 -11.048 -24.485  0.00  0.00    -0.024 C 
ATOM      8  C   UNL     1      33.918 -11.263 -25.880  0.00  0.00    +0.003 C 
ATOM      9  C   UNL     1      32.455 -11.929 -22.407  0.00  0.00    +0.169 C 
ATOM     10  C   UNL     1      32.135 -13.693 -26.374  0.00  0.00    -0.100 C 
ATOM     11  C   UNL     1      33.222  -9.737 -24.013  0.00  0.00    +0.036 C 
ATOM     12  C   UNL     1      32.314 -10.628 -21.973  0.00  0.00    +0.210 C 
ATOM     13  C   UNL     1      32.687  -9.561 -22.754  0.00  0.00    +0.179 C 
ATOM     14  C   UNL     1      31.904  -8.804 -20.885  0.00  0.00    +0.429 C 
ATOM     15  H   UNL     1      33.820 -14.621 -25.796  0.00  0.00    -0.079 HD
ENDROOT
BRANCH   4  18
ATOM     16  O   UNL     1      34.066 -14.277 -22.013  0.00  0.00    -0.446 OA
ATOM     17  O   UNL     1      33.840 -15.858 -20.344  0.00  0.00    -0.245 OA
ATOM     18  C   UNL     1      34.360 -14.249 -23.436  0.00  0.00    +0.177 C 
ATOM     19  C   UNL     1      34.532 -15.685 -23.752  0.00  0.00    +0.025 C 
ATOM     20  C   UNL     1      34.359 -16.436 -22.607  0.00  0.00    +0.112 C 
ATOM     21  C   UNL     1      34.057 -15.546 -21.498  0.00  0.00    +0.344 C 
ATOM     22  C   UNL     1      34.832 -16.301 -24.954  0.00  0.00    +0.003 C 
ATOM     23  C   UNL     1      34.466 -17.815 -22.594  0.00  0.00    +0.178 C 
ATOM     24  C   UNL     1      34.948 -17.695 -24.974  0.00  0.00    +0.040 C 
ATOM     25  C   UNL     1      34.765 -18.447 -23.802  0.00  0.00    +0.173 C 
BRANCH  23  26
ATOM     26  O   UNL     1      34.289 -18.533 -21.457  0.00  0.00    -0.468 OA
ATOM     27  C   UNL     1      35.453 -19.103 -20.856  0.00  0.00    +0.253 C 
ENDBRANCH  23  26
BRANCH  25  28
ATOM     28  O   UNL     1      34.886 -19.803 -23.858  0.00  0.00    -0.468 OA
ATOM     29  C   UNL     1      34.972 -20.393 -25.154  0.00  0.00    +0.253 C 
ENDBRANCH  25  28
ENDBRANCH   4  18
BRANCH   9  30
ATOM     30  O   UNL     1      32.010 -12.939 -21.614  0.00  0.00    -0.469 OA
ATOM     31  C   UNL     1      31.950 -12.686 -20.210  0.00  0.00    +0.253 C 
ENDBRANCH   9  30
TORSDOF 4
ENDMDL
MODEL 4
REMARK VINA RESULT:      -8.5      3.610      6.040
REMARK  Name = 275196
REMARK  4 active torsions:
REMARK  status: ('A' for Active; 'I' for Inactive)
REMARK    1  A    between atoms: C_4  and  C_18
REMARK    2  A    between atoms: C_9  and  O_30
REMARK    3  A    between atoms: C_23  and  O_26
REMARK    4  A    between atoms: C_25  and  O_28
REMARK                            x       y       z     vdW  Elec       q    Type
REMARK                         _______ _______ _______ _____ _____    ______ ____
ROOT
ATOM      1  O   UNL     1      31.582 -12.315 -21.540  0.00  0.00    -0.432 OA
ATOM      2  O   UNL     1      32.942 -13.561 -23.090  0.00  0.00    -0.435 OA
ATOM      3  N   UNL     1      34.299  -7.316 -23.958  0.00  0.00    +0.392 N 
ATOM      4  C   UNL     1      33.149  -7.924 -23.254  0.00  0.00    +0.013 C 
ATOM      5  C   UNL     1      33.144  -9.445 -23.242  0.00  0.00    -0.005 C 
ATOM      6  C   UNL     1      34.572  -7.980 -25.237  0.00  0.00    -0.072 C 
ATOM      7  C   UNL     1      33.939 -10.183 -24.157  0.00  0.00    -0.024 C 
ATOM      8  C   UNL     1      34.874  -9.474 -25.102  0.00  0.00    +0.003 C 
ATOM      9  C   UNL     1      32.321 -10.127 -22.327  0.00  0.00    +0.169 C 
ATOM     10  C   UNL     1      35.488  -7.244 -23.108  0.00  0.00    -0.100 C 
ATOM     11  C   UNL     1      33.914 -11.586 -24.145  0.00  0.00    +0.036 C 
ATOM     12  C   UNL     1      32.316 -11.505 -22.351  0.00  0.00    +0.210 C 
ATOM     13  C   UNL     1      33.091 -12.216 -23.236  0.00  0.00    +0.179 C 
ATOM     14  C   UNL     1      31.983 -13.616 -22.015  0.00  0.00    +0.429 C 
ATOM     15  H   UNL     1      34.038  -6.354 -24.174  0.00  0.00    -0.079 HD
ENDROOT
BRANCH   4  18
ATOM     16  O   UNL     1      30.924  -7.053 -22.785  0.00  0.00    -0.446 OA
ATOM     17  O   UNL     1      29.782  -5.191 -22.031  0.00  0.00    -0.245 OA
ATOM     18  C   UNL     1      31.841  -7.390 -23.860  0.00  0.00    +0.177 C 
ATOM     19  C   UNL     1      31.987  -6.099 -24.569  0.00  0.00    +0.025 C 
ATOM     20  C   UNL     1      31.213  -5.139 -23.948  0.00  0.00    +0.112 C 
ATOM     21  C   UNL     1      30.538  -5.739 -22.809  0.00  0.00    +0.344 C 
ATOM     22  C   UNL     1      32.732  -5.778 -25.689  0.00  0.00    +0.003 C 
ATOM     23  C   UNL     1      31.143  -3.831 -24.393  0.00  0.00    +0.178 C 
ATOM     24  C   UNL     1      32.684  -4.464 -26.165  0.00  0.00    +0.040 C 
ATOM     25  C   UNL     1      31.895  -3.497 -25.521  0.00  0.00    +0.173 C 
BRANCH  23  26
ATOM     26  O   UNL     1      30.378  -2.904 -23.766  0.00  0.00    -0.468 OA
ATOM     27  C   UNL     1      31.043  -1.988 -22.893  0.00  0.00    +0.253 C 
ENDBRANCH  23  26
BRANCH  25  28
ATOM     28  O   UNL     1      31.871  -2.225 -26.012  0.00  0.00    -0.468 OA
ATOM     29  C   UNL     1      31.205  -2.025 -27.257  0.00  0.00    +0.253 C 
ENDBRANCH  25  28
ENDBRANCH   4  18
BRANCH   9  30
ATOM     30  O   UNL     1      31.581  -9.483 -21.387  0.00  0.00    -0.469 OA
ATOM     31  C   UNL     1      32.199  -9.243 -20.123  0.00  0.00    +0.253 C 
ENDBRANCH   9  30
TORSDOF 4
ENDMDL
MODEL 5
REMARK VINA RESULT:      -8.2     11.431     15.204
REMARK  Name = 275196
REMARK  4 active torsions:
REMARK  status: ('A' for Active; 'I' for Inactive)
REMARK    1  A    between atoms: C_4  and  C_18
REMARK    2  A    between atoms: C_9  and  O_30
REMARK    3  A    between atoms: C_23  and  O_26
REMARK    4  A    between atoms: C_25  and  O_28
REMARK                            x       y       z     vdW  Elec       q    Type
REMARK                         _______ _______ _______ _____ _____    ______ ____
ROOT
ATOM      1  O   UNL     1      39.337 -26.015 -15.902  0.00  0.00    -0.432 OA
ATOM      2  O   UNL     1      41.031 -25.495 -14.269  0.00  0.00    -0.435 OA
ATOM      3  N   UNL     1      35.347 -23.846 -11.706  0.00  0.00    +0.392 N 
ATOM      4  C   UNL     1      35.677 -24.134 -13.119  0.00  0.00    +0.013 C 
ATOM      5  C   UNL     1      37.133 -24.494 -13.371  0.00  0.00    -0.005 C 
ATOM      6  C   UNL     1      36.351 -22.985 -11.074  0.00  0.00    -0.072 C 
ATOM      7  C   UNL     1      38.135 -24.185 -12.416  0.00  0.00    -0.024 C 
ATOM      8  C   UNL     1      37.764 -23.572 -11.090  0.00  0.00    +0.003 C 
ATOM      9  C   UNL     1      37.492 -25.119 -14.580  0.00  0.00    +0.169 C 
ATOM     10  C   UNL     1      35.106 -25.069 -10.939  0.00  0.00    -0.100 C 
ATOM     11  C   UNL     1      39.478 -24.509 -12.666  0.00  0.00    +0.036 C 
ATOM     12  C   UNL     1      38.822 -25.414 -14.795  0.00  0.00    +0.210 C 
ATOM     13  C   UNL     1      39.788 -25.117 -13.864  0.00  0.00    +0.179 C 
ATOM     14  C   UNL     1      40.738 -26.061 -15.563  0.00  0.00    +0.429 C 
ATOM     15  H   UNL     1      34.470 -23.326 -11.708  0.00  0.00    -0.079 HD
ENDROOT
BRANCH   4  18
ATOM     16  O   UNL     1      36.158 -22.853 -15.135  0.00  0.00    -0.446 OA
ATOM     17  O   UNL     1      35.999 -22.891 -17.439  0.00  0.00    -0.245 OA
ATOM     18  C   UNL     1      35.263 -22.938 -13.993  0.00  0.00    +0.177 C 
ATOM     19  C   UNL     1      33.940 -23.091 -14.638  0.00  0.00    +0.025 C 
ATOM     20  C   UNL     1      34.089 -23.080 -16.010  0.00  0.00    +0.112 C 
ATOM     21  C   UNL     1      35.500 -22.934 -16.332  0.00  0.00    +0.344 C 
ATOM     22  C   UNL     1      32.684 -23.218 -14.072  0.00  0.00    +0.003 C 
ATOM     23  C   UNL     1      33.020 -23.199 -16.880  0.00  0.00    +0.178 C 
ATOM     24  C   UNL     1      31.582 -23.340 -14.924  0.00  0.00    +0.040 C 
ATOM     25  C   UNL     1      31.748 -23.331 -16.319  0.00  0.00    +0.173 C 
BRANCH  23  26
ATOM     26  O   UNL     1      33.190 -23.189 -18.225  0.00  0.00    -0.468 OA
ATOM     27  C   UNL     1      33.163 -21.919 -18.878  0.00  0.00    +0.253 C 
ENDBRANCH  23  26
BRANCH  25  28
ATOM     28  O   UNL     1      30.652 -23.453 -17.119  0.00  0.00    -0.468 OA
ATOM     29  C   UNL     1      29.434 -22.885 -16.640  0.00  0.00    +0.253 C 
ENDBRANCH  25  28
ENDBRANCH   4  18
BRANCH   9  30
ATOM     30  O   UNL     1      36.577 -25.495 -15.510  0.00  0.00    -0.469 OA
ATOM     31  C   UNL     1      36.258 -26.884 -15.587  0.00  0.00    +0.253 C 
ENDBRANCH   9  30
TORSDOF 4
ENDMDL
MODEL 6
REMARK VINA RESULT:      -7.9     11.267     14.765
REMARK  Name = 275196
REMARK  4 active torsions:
REMARK  status: ('A' for Active; 'I' for Inactive)
REMARK    1  A    between atoms: C_4  and  C_18
REMARK    2  A    between atoms: C_9  and  O_30
REMARK    3  A    between atoms: C_23  and  O_26
REMARK    4  A    between atoms: C_25  and  O_28
REMARK                            x       y       z     vdW  Elec       q    Type
REMARK                         _______ _______ _______ _____ _____    ______ ____
ROOT
ATOM      1  O   UNL     1      36.478 -21.929 -17.821  0.00  0.00    -0.432 OA
ATOM      2  O   UNL     1      34.940 -22.215 -19.655  0.00  0.00    -0.435 OA
ATOM      3  N   UNL     1      31.681 -23.453 -14.229  0.00  0.00    +0.392 N 
ATOM      4  C   UNL     1      33.144 -23.373 -14.433  0.00  0.00    +0.013 C 
ATOM      5  C   UNL     1      33.571 -23.059 -15.858  0.00  0.00    -0.005 C 
ATOM      6  C   UNL     1      31.022 -24.219 -15.292  0.00  0.00    -0.072 C 
ATOM      7  C   UNL     1      32.672 -23.232 -16.942  0.00  0.00    -0.024 C 
ATOM      8  C   UNL     1      31.245 -23.645 -16.693  0.00  0.00    +0.003 C 
ATOM      9  C   UNL     1      34.884 -22.616 -16.106  0.00  0.00    +0.169 C 
ATOM     10  C   UNL     1      31.079 -22.132 -14.045  0.00  0.00    -0.100 C 
ATOM     11  C   UNL     1      33.083 -22.953 -18.255  0.00  0.00    +0.036 C 
ATOM     12  C   UNL     1      35.254 -22.361 -17.409  0.00  0.00    +0.210 C 
ATOM     13  C   UNL     1      34.378 -22.525 -18.455  0.00  0.00    +0.179 C 
ATOM     14  C   UNL     1      36.271 -21.839 -19.246  0.00  0.00    +0.429 C 
ATOM     15  H   UNL     1      31.531 -23.964 -13.359  0.00  0.00    -0.079 HD
ENDROOT
BRANCH   4  18
ATOM     16  O   UNL     1      34.258 -25.431 -15.111  0.00  0.00    -0.446 OA
ATOM     17  O   UNL     1      36.248 -26.285 -15.914  0.00  0.00    -0.245 OA
ATOM     18  C   UNL     1      33.797 -24.681 -13.955  0.00  0.00    +0.177 C 
ATOM     19  C   UNL     1      35.046 -24.486 -13.186  0.00  0.00    +0.025 C 
ATOM     20  C   UNL     1      36.099 -25.083 -13.850  0.00  0.00    +0.112 C 
ATOM     21  C   UNL     1      35.603 -25.682 -15.080  0.00  0.00    +0.344 C 
ATOM     22  C   UNL     1      35.257 -23.844 -11.978  0.00  0.00    +0.003 C 
ATOM     23  C   UNL     1      37.394 -25.070 -13.366  0.00  0.00    +0.178 C 
ATOM     24  C   UNL     1      36.556 -23.813 -11.461  0.00  0.00    +0.040 C 
ATOM     25  C   UNL     1      37.617 -24.421 -12.150  0.00  0.00    +0.173 C 
BRANCH  23  26
ATOM     26  O   UNL     1      38.413 -25.661 -14.038  0.00  0.00    -0.468 OA
ATOM     27  C   UNL     1      39.158 -24.846 -14.945  0.00  0.00    +0.253 C 
ENDBRANCH  23  26
BRANCH  25  28
ATOM     28  O   UNL     1      38.871 -24.371 -11.616  0.00  0.00    -0.468 OA
ATOM     29  C   UNL     1      39.615 -23.172 -11.823  0.00  0.00    +0.253 C 
ENDBRANCH  25  28
ENDBRANCH   4  18
BRANCH   9  30
ATOM     30  O   UNL     1      35.775 -22.375 -15.110  0.00  0.00    -0.469 OA
ATOM     31  C   UNL     1      37.120 -22.090 -15.494  0.00  0.00    +0.253 C 
ENDBRANCH   9  30
TORSDOF 4
ENDMDL
MODEL 7
REMARK VINA RESULT:      -7.8      3.771      6.855
REMARK  Name = 275196
REMARK  4 active torsions:
REMARK  status: ('A' for Active; 'I' for Inactive)
REMARK    1  A    between atoms: C_4  and  C_18
REMARK    2  A    between atoms: C_9  and  O_30
REMARK    3  A    between atoms: C_23  and  O_26
REMARK    4  A    between atoms: C_25  and  O_28
REMARK                            x       y       z     vdW  Elec       q    Type
REMARK                         _______ _______ _______ _____ _____    ______ ____
ROOT
ATOM      1  O   UNL     1      31.256  -9.614 -18.899  0.00  0.00    -0.432 OA
ATOM      2  O   UNL     1      31.540 -11.915 -19.557  0.00  0.00    -0.435 OA
ATOM      3  N   UNL     1      33.751  -8.266 -24.393  0.00  0.00    +0.392 N 
ATOM      4  C   UNL     1      32.894  -7.873 -23.253  0.00  0.00    +0.013 C 
ATOM      5  C   UNL     1      32.560  -9.001 -22.290  0.00  0.00    -0.005 C 
ATOM      6  C   UNL     1      33.315  -9.530 -24.995  0.00  0.00    -0.072 C 
ATOM      7  C   UNL     1      32.719 -10.357 -22.675  0.00  0.00    -0.024 C 
ATOM      8  C   UNL     1      33.308 -10.707 -24.017  0.00  0.00    +0.003 C 
ATOM      9  C   UNL     1      32.063  -8.694 -21.010  0.00  0.00    +0.169 C 
ATOM     10  C   UNL     1      35.169  -8.286 -24.033  0.00  0.00    -0.100 C 
ATOM     11  C   UNL     1      32.393 -11.390 -21.782  0.00  0.00    +0.036 C 
ATOM     12  C   UNL     1      31.745  -9.735 -20.163  0.00  0.00    +0.210 C 
ATOM     13  C   UNL     1      31.906 -11.047 -20.539  0.00  0.00    +0.179 C 
ATOM     14  C   UNL     1      31.127 -11.000 -18.521  0.00  0.00    +0.429 C 
ATOM     15  H   UNL     1      33.642  -7.546 -25.107  0.00  0.00    -0.079 HD
ENDROOT
BRANCH   4  18
ATOM     16  O   UNL     1      30.804  -6.771 -22.661  0.00  0.00    -0.446 OA
ATOM     17  O   UNL     1      29.906  -4.786 -21.890  0.00  0.00    -0.245 OA
ATOM     18  C   UNL     1      31.605  -7.225 -23.785  0.00  0.00    +0.177 C 
ATOM     19  C   UNL     1      31.826  -5.972 -24.542  0.00  0.00    +0.025 C 
ATOM     20  C   UNL     1      31.196  -4.925 -23.901  0.00  0.00    +0.112 C 
ATOM     21  C   UNL     1      30.548  -5.426 -22.700  0.00  0.00    +0.344 C 
ATOM     22  C   UNL     1      32.518  -5.756 -25.720  0.00  0.00    +0.003 C 
ATOM     23  C   UNL     1      31.224  -3.628 -24.381  0.00  0.00    +0.178 C 
ATOM     24  C   UNL     1      32.566  -4.455 -26.233  0.00  0.00    +0.040 C 
ATOM     25  C   UNL     1      31.924  -3.398 -25.567  0.00  0.00    +0.173 C 
BRANCH  23  26
ATOM     26  O   UNL     1      30.600  -2.613 -23.732  0.00  0.00    -0.468 OA
ATOM     27  C   UNL     1      31.400  -1.794 -22.877  0.00  0.00    +0.253 C 
ENDBRANCH  23  26
BRANCH  25  28
ATOM     28  O   UNL     1      31.990  -2.143 -26.095  0.00  0.00    -0.468 OA
ATOM     29  C   UNL     1      31.142  -1.863 -27.207  0.00  0.00    +0.253 C 
ENDBRANCH  25  28
ENDBRANCH   4  18
BRANCH   9  30
ATOM     30  O   UNL     1      31.941  -7.418 -20.558  0.00  0.00    -0.469 OA
ATOM     31  C   UNL     1      33.071  -6.853 -19.893  0.00  0.00    +0.253 C 
ENDBRANCH   9  30
TORSDOF 4
ENDMDL
MODEL 8
REMARK VINA RESULT:      -7.8      3.227      8.342
REMARK  Name = 275196
REMARK  4 active torsions:
REMARK  status: ('A' for Active; 'I' for Inactive)
REMARK    1  A    between atoms: C_4  and  C_18
REMARK    2  A    between atoms: C_9  and  O_30
REMARK    3  A    between atoms: C_23  and  O_26
REMARK    4  A    between atoms: C_25  and  O_28
REMARK                            x       y       z     vdW  Elec       q    Type
REMARK                         _______ _______ _______ _____ _____    ______ ____
ROOT
ATOM      1  O   UNL     1      32.213  -4.211 -26.092  0.00  0.00    -0.432 OA
ATOM      2  O   UNL     1      30.698  -3.046 -24.624  0.00  0.00    -0.435 OA
ATOM      3  N   UNL     1      32.890  -8.187 -21.406  0.00  0.00    +0.392 N 
ATOM      4  C   UNL     1      32.951  -7.908 -22.858  0.00  0.00    +0.013 C 
ATOM      5  C   UNL     1      32.328  -6.586 -23.277  0.00  0.00    -0.005 C 
ATOM      6  C   UNL     1      31.571  -7.879 -20.844  0.00  0.00    -0.072 C 
ATOM      7  C   UNL     1      31.432  -5.899 -22.419  0.00  0.00    -0.024 C 
ATOM      8  C   UNL     1      31.146  -6.422 -21.035  0.00  0.00    +0.003 C 
ATOM      9  C   UNL     1      32.628  -6.051 -24.544  0.00  0.00    +0.169 C 
ATOM     10  C   UNL     1      33.970  -7.526 -20.674  0.00  0.00    -0.100 C 
ATOM     11  C   UNL     1      30.852  -4.686 -22.824  0.00  0.00    +0.036 C 
ATOM     12  C   UNL     1      32.033  -4.862 -24.910  0.00  0.00    +0.210 C 
ATOM     13  C   UNL     1      31.169  -4.198 -24.074  0.00  0.00    +0.179 C 
ATOM     14  C   UNL     1      31.362  -3.062 -25.904  0.00  0.00    +0.429 C 
ATOM     15  H   UNL     1      33.033  -9.191 -21.292  0.00  0.00    -0.079 HD
ENDROOT
BRANCH   4  18
ATOM     16  O   UNL     1      33.170  -9.450 -24.731  0.00  0.00    -0.446 OA
ATOM     17  O   UNL     1      34.288 -11.336 -25.460  0.00  0.00    -0.245 OA
ATOM     18  C   UNL     1      32.304  -9.072 -23.627  0.00  0.00    +0.177 C 
ATOM     19  C   UNL     1      32.210 -10.329 -22.853  0.00  0.00    +0.025 C 
ATOM     20  C   UNL     1      32.948 -11.315 -23.478  0.00  0.00    +0.112 C 
ATOM     21  C   UNL     1      33.566 -10.759 -24.671  0.00  0.00    +0.344 C 
ATOM     22  C   UNL     1      31.518 -10.607 -21.688  0.00  0.00    +0.003 C 
ATOM     23  C   UNL     1      33.043 -12.604 -22.985  0.00  0.00    +0.178 C 
ATOM     24  C   UNL     1      31.593 -11.902 -21.164  0.00  0.00    +0.040 C 
ATOM     25  C   UNL     1      32.351 -12.894 -21.808  0.00  0.00    +0.173 C 
BRANCH  23  26
ATOM     26  O   UNL     1      33.777 -13.556 -23.614  0.00  0.00    -0.468 OA
ATOM     27  C   UNL     1      33.097 -14.392 -24.552  0.00  0.00    +0.253 C 
ENDBRANCH  23  26
BRANCH  25  28
ATOM     28  O   UNL     1      32.402 -14.145 -21.270  0.00  0.00    -0.468 OA
ATOM     29  C   UNL     1      33.606 -14.512 -20.598  0.00  0.00    +0.253 C 
ENDBRANCH  25  28
ENDBRANCH   4  18
BRANCH   9  30
ATOM     30  O   UNL     1      33.522  -6.627 -25.389  0.00  0.00    -0.469 OA
ATOM     31  C   UNL     1      34.894  -6.270 -25.227  0.00  0.00    +0.253 C 
ENDBRANCH   9  30
TORSDOF 4
ENDMDL
MODEL 9
REMARK VINA RESULT:      -7.6      2.587      4.470
REMARK  Name = 275196
REMARK  4 active torsions:
REMARK  status: ('A' for Active; 'I' for Inactive)
REMARK    1  A    between atoms: C_4  and  C_18
REMARK    2  A    between atoms: C_9  and  O_30
REMARK    3  A    between atoms: C_23  and  O_26
REMARK    4  A    between atoms: C_25  and  O_28
REMARK                            x       y       z     vdW  Elec       q    Type
REMARK                         _______ _______ _______ _____ _____    ______ ____
ROOT
ATOM      1  O   UNL     1      34.901 -15.348 -24.004  0.00  0.00    -0.432 OA
ATOM      2  O   UNL     1      34.418 -16.476 -21.930  0.00  0.00    -0.435 OA
ATOM      3  N   UNL     1      31.303 -10.830 -21.796  0.00  0.00    +0.392 N 
ATOM      4  C   UNL     1      32.399 -11.262 -22.691  0.00  0.00    +0.013 C 
ATOM      5  C   UNL     1      32.904 -12.675 -22.441  0.00  0.00    -0.005 C 
ATOM      6  C   UNL     1      31.562 -11.193 -20.399  0.00  0.00    -0.072 C 
ATOM      7  C   UNL     1      32.628 -13.341 -21.219  0.00  0.00    -0.024 C 
ATOM      8  C   UNL     1      31.750 -12.695 -20.177  0.00  0.00    +0.003 C 
ATOM      9  C   UNL     1      33.677 -13.317 -23.425  0.00  0.00    +0.169 C 
ATOM     10  C   UNL     1      29.998 -11.305 -22.257  0.00  0.00    -0.100 C 
ATOM     11  C   UNL     1      33.113 -14.638 -20.994  0.00  0.00    +0.036 C 
ATOM     12  C   UNL     1      34.144 -14.588 -23.165  0.00  0.00    +0.210 C 
ATOM     13  C   UNL     1      33.869 -15.232 -21.982  0.00  0.00    +0.179 C 
ATOM     14  C   UNL     1      35.072 -16.542 -23.214  0.00  0.00    +0.429 C 
ATOM     15  H   UNL     1      31.272  -9.812 -21.836  0.00  0.00    -0.079 HD
ENDROOT
BRANCH   4  18
ATOM     16  O   UNL     1      34.359 -10.344 -23.808  0.00  0.00    -0.446 OA
ATOM     17  O   UNL     1      35.033  -8.947 -25.520  0.00  0.00    -0.245 OA
ATOM     18  C   UNL     1      33.557 -10.256 -22.599  0.00  0.00    +0.177 C 
ATOM     19  C   UNL     1      33.128  -8.839 -22.607  0.00  0.00    +0.025 C 
ATOM     20  C   UNL     1      33.653  -8.201 -23.713  0.00  0.00    +0.112 C 
ATOM     21  C   UNL     1      34.433  -9.156 -24.484  0.00  0.00    +0.344 C 
ATOM     22  C   UNL     1      32.343  -8.143 -21.705  0.00  0.00    +0.003 C 
ATOM     23  C   UNL     1      33.427  -6.863 -23.982  0.00  0.00    +0.178 C 
ATOM     24  C   UNL     1      32.095  -6.788 -21.949  0.00  0.00    +0.040 C 
ATOM     25  C   UNL     1      32.633  -6.153 -23.081  0.00  0.00    +0.173 C 
BRANCH  23  26
ATOM     26  O   UNL     1      33.951  -6.258 -25.077  0.00  0.00    -0.468 OA
ATOM     27  C   UNL     1      33.042  -5.578 -25.946  0.00  0.00    +0.253 C 
ENDBRANCH  23  26
BRANCH  25  28
ATOM     28  O   UNL     1      32.371  -4.831 -23.287  0.00  0.00    -0.468 OA
ATOM     29  C   UNL     1      31.046  -4.383 -23.009  0.00  0.00    +0.253 C 
ENDBRANCH  25  28
ENDBRANCH   4  18
BRANCH   9  30
ATOM     30  O   UNL     1      33.930 -12.759 -24.638  0.00  0.00    -0.469 OA
ATOM     31  C   UNL     1      33.188 -13.258 -25.751  0.00  0.00    +0.253 C 
ENDBRANCH   9  30
TORSDOF 4
ENDMDL
