MODEL 1
REMARK VINA RESULT:     -10.8      0.000      0.000
REMARK  Name = 6470990
REMARK  3 active torsions:
REMARK  status: ('A' for Active; 'I' for Inactive)
REMARK    1  A    between atoms: C_1  and  N_14
REMARK    2  A    between atoms: C_2  and  C_11
REMARK    3  A    between atoms: C_15  and  C_18
REMARK                            x       y       z     vdW  Elec       q    Type
REMARK                         _______ _______ _______ _____ _____    ______ ____
ROOT
ATOM      1  C   UNL     1      35.674 -23.202 -15.823  0.00  0.00    +0.051 C 
ATOM      2  C   UNL     1      37.284 -24.488 -14.562  0.00  0.00    +0.067 C 
ATOM      3  C   UNL     1      36.968 -23.697 -15.668  0.00  0.00    +0.025 C 
ATOM      4  C   UNL     1      34.694 -23.499 -14.874  0.00  0.00    +0.015 C 
ATOM      5  C   UNL     1      36.306 -24.785 -13.614  0.00  0.00    +0.010 C 
ATOM      6  C   UNL     1      35.011 -24.290 -13.770  0.00  0.00    +0.002 C 
ENDROOT
BRANCH   2  11
ATOM      7  N   UNL     1      38.909 -26.076 -13.673  0.00  0.00    -0.110 NA
ATOM      8  N   UNL     1      39.695 -24.409 -14.989  0.00  0.00    -0.087 NA
ATOM      9  N   UNL     1      40.236 -26.104 -13.855  0.00  0.00    -0.140 N 
ATOM     10  N   UNL     1      40.747 -25.135 -14.628  0.00  0.00    -0.022 NA
ATOM     11  C   UNL     1      38.617 -24.997 -14.402  0.00  0.00    +0.074 C 
ATOM     12  H   UNL     1      40.805 -26.796 -13.445  0.00  0.00    +0.197 HD
ENDBRANCH   2  11
BRANCH   1  14
ATOM     13  O   UNL     1      33.941 -23.798 -18.153  0.00  0.00    -0.270 OA
ATOM     14  N   UNL     1      35.356 -22.410 -16.928  0.00  0.00    -0.280 N 
ATOM     15  C   UNL     1      34.525 -22.724 -18.022  0.00  0.00    +0.250 C 
ATOM     16  H   UNL     1      35.766 -21.515 -16.944  0.00  0.00    +0.155 HD
BRANCH  15  18
ATOM     17  F   UNL     1      36.608 -19.577 -21.045  0.00  0.00    -0.204 F 
ATOM     18  C   UNL     1      34.428 -21.677 -19.053  0.00  0.00    +0.056 C 
ATOM     19  C   UNL     1      35.588 -21.118 -19.565  0.00  0.00    +0.034 C 
ATOM     20  C   UNL     1      33.177 -21.271 -19.492  0.00  0.00    +0.005 C 
ATOM     21  C   UNL     1      35.495 -20.127 -20.541  0.00  0.00    +0.140 C 
ATOM     22  C   UNL     1      33.085 -20.280 -20.468  0.00  0.00    +0.002 C 
ATOM     23  C   UNL     1      34.244 -19.708 -20.993  0.00  0.00    +0.030 C 
ENDBRANCH  15  18
ENDBRANCH   1  14
TORSDOF 3
ENDMDL
MODEL 2
REMARK VINA RESULT:     -10.7      5.313      7.540
REMARK  Name = 6470990
REMARK  3 active torsions:
REMARK  status: ('A' for Active; 'I' for Inactive)
REMARK    1  A    between atoms: C_1  and  N_14
REMARK    2  A    between atoms: C_2  and  C_11
REMARK    3  A    between atoms: C_15  and  C_18
REMARK                            x       y       z     vdW  Elec       q    Type
REMARK                         _______ _______ _______ _____ _____    ______ ____
ROOT
ATOM      1  C   UNL     1      35.296 -18.817 -21.237  0.00  0.00    +0.051 C 
ATOM      2  C   UNL     1      34.991 -20.811 -19.909  0.00  0.00    +0.067 C 
ATOM      3  C   UNL     1      34.451 -19.737 -20.618  0.00  0.00    +0.025 C 
ATOM      4  C   UNL     1      36.680 -18.967 -21.145  0.00  0.00    +0.015 C 
ATOM      5  C   UNL     1      36.374 -20.962 -19.816  0.00  0.00    +0.010 C 
ATOM      6  C   UNL     1      37.219 -20.041 -20.434  0.00  0.00    +0.002 C 
ENDROOT
BRANCH   2  11
ATOM      7  N   UNL     1      32.801 -21.593 -19.167  0.00  0.00    -0.110 NA
ATOM      8  N   UNL     1      34.585 -22.915 -18.720  0.00  0.00    -0.087 NA
ATOM      9  N   UNL     1      32.494 -22.722 -18.515  0.00  0.00    -0.140 N 
ATOM     10  N   UNL     1      33.520 -23.537 -18.229  0.00  0.00    -0.022 NA
ATOM     11  C   UNL     1      34.121 -21.760 -19.272  0.00  0.00    +0.074 C 
ATOM     12  H   UNL     1      31.568 -22.942 -18.260  0.00  0.00    +0.197 HD
ENDBRANCH   2  11
BRANCH   1  14
ATOM     13  O   UNL     1      34.965 -15.982 -20.435  0.00  0.00    -0.270 OA
ATOM     14  N   UNL     1      34.758 -17.743 -21.948  0.00  0.00    -0.280 N 
ATOM     15  C   UNL     1      34.616 -16.402 -21.537  0.00  0.00    +0.250 C 
ATOM     16  H   UNL     1      34.437 -17.950 -22.855  0.00  0.00    +0.155 HD
BRANCH  15  18
ATOM     17  F   UNL     1      33.640 -15.163 -26.107  0.00  0.00    -0.204 F 
ATOM     18  C   UNL     1      33.965 -15.515 -22.515  0.00  0.00    +0.056 C 
ATOM     19  C   UNL     1      34.117 -15.769 -23.869  0.00  0.00    +0.034 C 
ATOM     20  C   UNL     1      33.213 -14.442 -22.064  0.00  0.00    +0.005 C 
ATOM     21  C   UNL     1      33.501 -14.929 -24.796  0.00  0.00    +0.140 C 
ATOM     22  C   UNL     1      32.596 -13.601 -22.991  0.00  0.00    +0.002 C 
ATOM     23  C   UNL     1      32.740 -13.845 -24.357  0.00  0.00    +0.030 C 
ENDBRANCH  15  18
ENDBRANCH   1  14
TORSDOF 3
ENDMDL
MODEL 3
REMARK VINA RESULT:     -10.3      7.314     10.244
REMARK  Name = 6470990
REMARK  3 active torsions:
REMARK  status: ('A' for Active; 'I' for Inactive)
REMARK    1  A    between atoms: C_1  and  N_14
REMARK    2  A    between atoms: C_2  and  C_11
REMARK    3  A    between atoms: C_15  and  C_18
REMARK                            x       y       z     vdW  Elec       q    Type
REMARK                         _______ _______ _______ _____ _____    ______ ____
ROOT
ATOM      1  C   UNL     1      34.315 -16.296 -23.730  0.00  0.00    +0.051 C 
ATOM      2  C   UNL     1      34.987 -18.374 -22.699  0.00  0.00    +0.067 C 
ATOM      3  C   UNL     1      34.686 -17.015 -22.595  0.00  0.00    +0.025 C 
ATOM      4  C   UNL     1      34.245 -16.933 -24.969  0.00  0.00    +0.015 C 
ATOM      5  C   UNL     1      34.918 -19.012 -23.937  0.00  0.00    +0.010 C 
ATOM      6  C   UNL     1      34.547 -18.291 -25.072  0.00  0.00    +0.002 C 
ENDROOT
BRANCH   2  11
ATOM      7  N   UNL     1      34.587 -20.026 -20.948  0.00  0.00    -0.110 NA
ATOM      8  N   UNL     1      36.575 -18.942 -20.921  0.00  0.00    -0.087 NA
ATOM      9  N   UNL     1      35.395 -20.393 -19.945  0.00  0.00    -0.140 N 
ATOM     10  N   UNL     1      36.585 -19.777 -19.889  0.00  0.00    -0.022 NA
ATOM     11  C   UNL     1      35.370 -19.116 -21.530  0.00  0.00    +0.074 C 
ATOM     12  H   UNL     1      35.132 -21.077 -19.286  0.00  0.00    +0.197 HD
ENDBRANCH   2  11
BRANCH   1  14
ATOM     13  O   UNL     1      32.287 -14.921 -22.060  0.00  0.00    -0.270 OA
ATOM     14  N   UNL     1      34.012 -14.937 -23.627  0.00  0.00    -0.280 N 
ATOM     15  C   UNL     1      33.039 -14.314 -22.820  0.00  0.00    +0.250 C 
ATOM     16  H   UNL     1      34.549 -14.336 -24.192  0.00  0.00    +0.155 HD
BRANCH  15  18
ATOM     17  F   UNL     1      34.504 -10.185 -24.865  0.00  0.00    -0.204 F 
ATOM     18  C   UNL     1      32.942 -12.852 -22.975  0.00  0.00    +0.056 C 
ATOM     19  C   UNL     1      33.786 -12.207 -23.863  0.00  0.00    +0.034 C 
ATOM     20  C   UNL     1      32.007 -12.151 -22.229  0.00  0.00    +0.005 C 
ATOM     21  C   UNL     1      33.694 -10.823 -24.010  0.00  0.00    +0.140 C 
ATOM     22  C   UNL     1      31.915 -10.767 -22.376  0.00  0.00    +0.002 C 
ATOM     23  C   UNL     1      32.759 -10.103 -23.267  0.00  0.00    +0.030 C 
ENDBRANCH  15  18
ENDBRANCH   1  14
TORSDOF 3
ENDMDL
MODEL 4
REMARK VINA RESULT:     -10.3      7.371     10.332
REMARK  Name = 6470990
REMARK  3 active torsions:
REMARK  status: ('A' for Active; 'I' for Inactive)
REMARK    1  A    between atoms: C_1  and  N_14
REMARK    2  A    between atoms: C_2  and  C_11
REMARK    3  A    between atoms: C_15  and  C_18
REMARK                            x       y       z     vdW  Elec       q    Type
REMARK                         _______ _______ _______ _____ _____    ______ ____
ROOT
ATOM      1  C   UNL     1      34.315 -16.287 -23.745  0.00  0.00    +0.051 C 
ATOM      2  C   UNL     1      34.983 -18.364 -22.707  0.00  0.00    +0.067 C 
ATOM      3  C   UNL     1      34.682 -17.005 -22.608  0.00  0.00    +0.025 C 
ATOM      4  C   UNL     1      34.250 -16.927 -24.984  0.00  0.00    +0.015 C 
ATOM      5  C   UNL     1      34.919 -19.004 -23.945  0.00  0.00    +0.010 C 
ATOM      6  C   UNL     1      34.552 -18.285 -25.083  0.00  0.00    +0.002 C 
ENDROOT
BRANCH   2  11
ATOM      7  N   UNL     1      34.576 -20.013 -20.956  0.00  0.00    -0.110 NA
ATOM      8  N   UNL     1      36.564 -18.928 -20.922  0.00  0.00    -0.087 NA
ATOM      9  N   UNL     1      35.380 -20.378 -19.948  0.00  0.00    -0.140 N 
ATOM     10  N   UNL     1      36.570 -19.762 -19.889  0.00  0.00    -0.022 NA
ATOM     11  C   UNL     1      35.361 -19.104 -21.536  0.00  0.00    +0.074 C 
ATOM     12  H   UNL     1      35.115 -21.061 -19.290  0.00  0.00    +0.197 HD
ENDBRANCH   2  11
BRANCH   1  14
ATOM     13  O   UNL     1      32.269 -14.911 -22.100  0.00  0.00    -0.270 OA
ATOM     14  N   UNL     1      34.013 -14.928 -23.646  0.00  0.00    -0.280 N 
ATOM     15  C   UNL     1      33.030 -14.304 -22.851  0.00  0.00    +0.250 C 
ATOM     16  H   UNL     1      34.557 -14.328 -24.205  0.00  0.00    +0.155 HD
BRANCH  15  18
ATOM     17  F   UNL     1      31.130 -10.043 -21.582  0.00  0.00    -0.204 F 
ATOM     18  C   UNL     1      32.937 -12.843 -23.007  0.00  0.00    +0.056 C 
ATOM     19  C   UNL     1      32.061 -12.129 -22.204  0.00  0.00    +0.034 C 
ATOM     20  C   UNL     1      33.726 -12.209 -23.953  0.00  0.00    +0.005 C 
ATOM     21  C   UNL     1      31.972 -10.745 -22.351  0.00  0.00    +0.140 C 
ATOM     22  C   UNL     1      33.638 -10.825 -24.100  0.00  0.00    +0.002 C 
ATOM     23  C   UNL     1      32.761 -10.093 -23.299  0.00  0.00    +0.030 C 
ENDBRANCH  15  18
ENDBRANCH   1  14
TORSDOF 3
ENDMDL
MODEL 5
REMARK VINA RESULT:     -10.2      9.745     12.970
REMARK  Name = 6470990
REMARK  3 active torsions:
REMARK  status: ('A' for Active; 'I' for Inactive)
REMARK    1  A    between atoms: C_1  and  N_14
REMARK    2  A    between atoms: C_2  and  C_11
REMARK    3  A    between atoms: C_15  and  C_18
REMARK                            x       y       z     vdW  Elec       q    Type
REMARK                         _______ _______ _______ _____ _____    ______ ____
ROOT
ATOM      1  C   UNL     1      33.713 -13.490 -24.174  0.00  0.00    +0.051 C 
ATOM      2  C   UNL     1      34.349 -15.754 -23.621  0.00  0.00    +0.067 C 
ATOM      3  C   UNL     1      34.258 -14.405 -23.275  0.00  0.00    +0.025 C 
ATOM      4  C   UNL     1      33.260 -13.922 -25.421  0.00  0.00    +0.015 C 
ATOM      5  C   UNL     1      33.897 -16.186 -24.868  0.00  0.00    +0.010 C 
ATOM      6  C   UNL     1      33.353 -15.270 -25.768  0.00  0.00    +0.002 C 
ENDROOT
BRANCH   2  11
ATOM      7  N   UNL     1      35.557 -17.802 -23.071  0.00  0.00    -0.110 NA
ATOM      8  N   UNL     1      34.821 -16.532 -21.346  0.00  0.00    -0.087 NA
ATOM      9  N   UNL     1      35.855 -18.297 -21.863  0.00  0.00    -0.140 N 
ATOM     10  N   UNL     1      35.438 -17.578 -20.810  0.00  0.00    -0.022 NA
ATOM     11  C   UNL     1      34.910 -16.697 -22.695  0.00  0.00    +0.074 C 
ATOM     12  H   UNL     1      36.352 -19.141 -21.753  0.00  0.00    +0.197 HD
ENDBRANCH   2  11
BRANCH   1  14
ATOM     13  O   UNL     1      34.789 -11.097 -25.552  0.00  0.00    -0.270 OA
ATOM     14  N   UNL     1      33.620 -12.141 -23.828  0.00  0.00    -0.280 N 
ATOM     15  C   UNL     1      34.144 -11.023 -24.508  0.00  0.00    +0.250 C 
ATOM     16  H   UNL     1      33.123 -11.946 -23.001  0.00  0.00    +0.155 HD
BRANCH  15  18
ATOM     17  F   UNL     1      31.510  -8.184 -21.614  0.00  0.00    -0.204 F 
ATOM     18  C   UNL     1      33.905  -9.726 -23.854  0.00  0.00    +0.056 C 
ATOM     19  C   UNL     1      32.800  -9.574 -23.031  0.00  0.00    +0.034 C 
ATOM     20  C   UNL     1      34.790  -8.681 -24.073  0.00  0.00    +0.005 C 
ATOM     21  C   UNL     1      32.574  -8.346 -22.411  0.00  0.00    +0.140 C 
ATOM     22  C   UNL     1      34.563  -7.453 -23.453  0.00  0.00    +0.002 C 
ATOM     23  C   UNL     1      33.455  -7.285 -22.622  0.00  0.00    +0.030 C 
ENDBRANCH  15  18
ENDBRANCH   1  14
TORSDOF 3
ENDMDL
MODEL 6
REMARK VINA RESULT:     -10.2      3.130      4.401
REMARK  Name = 6470990
REMARK  3 active torsions:
REMARK  status: ('A' for Active; 'I' for Inactive)
REMARK    1  A    between atoms: C_1  and  N_14
REMARK    2  A    between atoms: C_2  and  C_11
REMARK    3  A    between atoms: C_15  and  C_18
REMARK                            x       y       z     vdW  Elec       q    Type
REMARK                         _______ _______ _______ _____ _____    ______ ____
ROOT
ATOM      1  C   UNL     1      34.865 -23.031 -16.297  0.00  0.00    +0.051 C 
ATOM      2  C   UNL     1      33.579 -24.106 -14.557  0.00  0.00    +0.067 C 
ATOM      3  C   UNL     1      33.649 -23.234 -15.645  0.00  0.00    +0.025 C 
ATOM      4  C   UNL     1      36.011 -23.698 -15.862  0.00  0.00    +0.015 C 
ATOM      5  C   UNL     1      34.723 -24.773 -14.122  0.00  0.00    +0.010 C 
ATOM      6  C   UNL     1      35.939 -24.569 -14.774  0.00  0.00    +0.002 C 
ENDROOT
BRANCH   2  11
ATOM      7  N   UNL     1      31.577 -25.408 -14.053  0.00  0.00    -0.110 NA
ATOM      8  N   UNL     1      31.806 -23.406 -13.018  0.00  0.00    -0.087 NA
ATOM      9  N   UNL     1      30.565 -25.099 -13.230  0.00  0.00    -0.140 N 
ATOM     10  N   UNL     1      30.658 -23.922 -12.595  0.00  0.00    -0.022 NA
ATOM     11  C   UNL     1      32.327 -24.317 -13.886  0.00  0.00    +0.074 C 
ATOM     12  H   UNL     1      29.798 -25.702 -13.098  0.00  0.00    +0.197 HD
ENDBRANCH   2  11
BRANCH   1  14
ATOM     13  O   UNL     1      33.938 -23.398 -19.088  0.00  0.00    -0.270 OA
ATOM     14  N   UNL     1      34.936 -22.160 -17.385  0.00  0.00    -0.280 N 
ATOM     15  C   UNL     1      34.484 -22.366 -18.704  0.00  0.00    +0.250 C 
ATOM     16  H   UNL     1      35.358 -21.288 -17.207  0.00  0.00    +0.155 HD
BRANCH  15  18
ATOM     17  F   UNL     1      37.562 -19.386 -20.945  0.00  0.00    -0.204 F 
ATOM     18  C   UNL     1      34.748 -21.256 -19.635  0.00  0.00    +0.056 C 
ATOM     19  C   UNL     1      36.054 -20.845 -19.848  0.00  0.00    +0.034 C 
ATOM     20  C   UNL     1      33.686 -20.643 -20.281  0.00  0.00    +0.005 C 
ATOM     21  C   UNL     1      36.305 -19.794 -20.730  0.00  0.00    +0.140 C 
ATOM     22  C   UNL     1      33.936 -19.593 -21.163  0.00  0.00    +0.002 C 
ATOM     23  C   UNL     1      35.246 -19.168 -21.388  0.00  0.00    +0.030 C 
ENDBRANCH  15  18
ENDBRANCH   1  14
TORSDOF 3
ENDMDL
MODEL 7
REMARK VINA RESULT:     -10.2      5.786     10.249
REMARK  Name = 6470990
REMARK  3 active torsions:
REMARK  status: ('A' for Active; 'I' for Inactive)
REMARK    1  A    between atoms: C_1  and  N_14
REMARK    2  A    between atoms: C_2  and  C_11
REMARK    3  A    between atoms: C_15  and  C_18
REMARK                            x       y       z     vdW  Elec       q    Type
REMARK                         _______ _______ _______ _____ _____    ______ ____
ROOT
ATOM      1  C   UNL     1      34.722 -18.711 -22.942  0.00  0.00    +0.051 C 
ATOM      2  C   UNL     1      34.395 -16.490 -23.833  0.00  0.00    +0.067 C 
ATOM      3  C   UNL     1      34.554 -17.342 -22.739  0.00  0.00    +0.025 C 
ATOM      4  C   UNL     1      34.730 -19.229 -24.237  0.00  0.00    +0.015 C 
ATOM      5  C   UNL     1      34.403 -17.007 -25.128  0.00  0.00    +0.010 C 
ATOM      6  C   UNL     1      34.571 -18.377 -25.330  0.00  0.00    +0.002 C 
ENDROOT
BRANCH   2  11
ATOM      7  N   UNL     1      34.646 -14.440 -22.533  0.00  0.00    -0.110 NA
ATOM      8  N   UNL     1      33.605 -14.280 -24.538  0.00  0.00    -0.087 NA
ATOM      9  N   UNL     1      34.245 -13.199 -22.842  0.00  0.00    -0.140 N 
ATOM     10  N   UNL     1      33.623 -13.057 -24.022  0.00  0.00    -0.022 NA
ATOM     11  C   UNL     1      34.223 -15.079 -23.625  0.00  0.00    +0.074 C 
ATOM     12  H   UNL     1      34.398 -12.436 -22.239  0.00  0.00    +0.197 HD
ENDBRANCH   2  11
BRANCH   1  14
ATOM     13  O   UNL     1      32.692 -19.844 -21.104  0.00  0.00    -0.270 OA
ATOM     14  N   UNL     1      34.882 -19.564 -21.849  0.00  0.00    -0.280 N 
ATOM     15  C   UNL     1      33.892 -20.087 -20.993  0.00  0.00    +0.250 C 
ATOM     16  H   UNL     1      35.807 -19.836 -21.651  0.00  0.00    +0.155 HD
BRANCH  15  18
ATOM     17  F   UNL     1      33.153 -23.360 -17.511  0.00  0.00    -0.204 F 
ATOM     18  C   UNL     1      34.396 -20.934 -19.898  0.00  0.00    +0.056 C 
ATOM     19  C   UNL     1      33.515 -21.757 -19.216  0.00  0.00    +0.034 C 
ATOM     20  C   UNL     1      35.742 -20.891 -19.572  0.00  0.00    +0.005 C 
ATOM     21  C   UNL     1      33.993 -22.559 -18.180  0.00  0.00    +0.140 C 
ATOM     22  C   UNL     1      36.220 -21.693 -18.536  0.00  0.00    +0.002 C 
ATOM     23  C   UNL     1      35.345 -22.527 -17.840  0.00  0.00    +0.030 C 
ENDBRANCH  15  18
ENDBRANCH   1  14
TORSDOF 3
ENDMDL
MODEL 8
REMARK VINA RESULT:     -10.1      9.462     12.605
REMARK  Name = 6470990
REMARK  3 active torsions:
REMARK  status: ('A' for Active; 'I' for Inactive)
REMARK    1  A    between atoms: C_1  and  N_14
REMARK    2  A    between atoms: C_2  and  C_11
REMARK    3  A    between atoms: C_15  and  C_18
REMARK                            x       y       z     vdW  Elec       q    Type
REMARK                         _______ _______ _______ _____ _____    ______ ____
ROOT
ATOM      1  C   UNL     1      33.879 -13.890 -24.062  0.00  0.00    +0.051 C 
ATOM      2  C   UNL     1      34.571 -16.134 -23.496  0.00  0.00    +0.067 C 
ATOM      3  C   UNL     1      34.449 -14.785 -23.158  0.00  0.00    +0.025 C 
ATOM      4  C   UNL     1      33.431 -14.341 -25.304  0.00  0.00    +0.015 C 
ATOM      5  C   UNL     1      34.124 -16.586 -24.737  0.00  0.00    +0.010 C 
ATOM      6  C   UNL     1      33.554 -15.690 -25.641  0.00  0.00    +0.002 C 
ENDROOT
BRANCH   2  11
ATOM      7  N   UNL     1      35.939 -18.075 -22.933  0.00  0.00    -0.110 NA
ATOM      8  N   UNL     1      34.958 -16.961 -21.222  0.00  0.00    -0.087 NA
ATOM      9  N   UNL     1      36.199 -18.591 -21.724  0.00  0.00    -0.140 N 
ATOM     10  N   UNL     1      35.639 -17.963 -20.680  0.00  0.00    -0.022 NA
ATOM     11  C   UNL     1      35.158 -17.057 -22.565  0.00  0.00    +0.074 C 
ATOM     12  H   UNL     1      36.770 -19.386 -21.608  0.00  0.00    +0.197 HD
ENDBRANCH   2  11
BRANCH   1  14
ATOM     13  O   UNL     1      34.224 -11.473 -25.743  0.00  0.00    -0.270 OA
ATOM     14  N   UNL     1      33.755 -12.541 -23.725  0.00  0.00    -0.280 N 
ATOM     15  C   UNL     1      33.926 -11.412 -24.551  0.00  0.00    +0.250 C 
ATOM     16  H   UNL     1      33.518 -12.355 -22.788  0.00  0.00    +0.155 HD
BRANCH  15  18
ATOM     17  F   UNL     1      35.386  -6.876 -23.729  0.00  0.00    -0.204 F 
ATOM     18  C   UNL     1      33.764 -10.114 -23.876  0.00  0.00    +0.056 C 
ATOM     19  C   UNL     1      34.671  -9.098 -24.131  0.00  0.00    +0.034 C 
ATOM     20  C   UNL     1      32.707  -9.932 -22.997  0.00  0.00    +0.005 C 
ATOM     21  C   UNL     1      34.517  -7.868 -23.492  0.00  0.00    +0.140 C 
ATOM     22  C   UNL     1      32.554  -8.702 -22.358  0.00  0.00    +0.002 C 
ATOM     23  C   UNL     1      33.458  -7.670 -22.605  0.00  0.00    +0.030 C 
ENDBRANCH  15  18
ENDBRANCH   1  14
TORSDOF 3
ENDMDL
MODEL 9
REMARK VINA RESULT:     -10.0      7.198     11.521
REMARK  Name = 6470990
REMARK  3 active torsions:
REMARK  status: ('A' for Active; 'I' for Inactive)
REMARK    1  A    between atoms: C_1  and  N_14
REMARK    2  A    between atoms: C_2  and  C_11
REMARK    3  A    between atoms: C_15  and  C_18
REMARK                            x       y       z     vdW  Elec       q    Type
REMARK                         _______ _______ _______ _____ _____    ______ ____
ROOT
ATOM      1  C   UNL     1      33.412 -15.648 -21.701  0.00  0.00    +0.051 C 
ATOM      2  C   UNL     1      33.075 -14.085 -23.512  0.00  0.00    +0.067 C 
ATOM      3  C   UNL     1      33.514 -15.328 -23.055  0.00  0.00    +0.025 C 
ATOM      4  C   UNL     1      32.873 -14.725 -20.804  0.00  0.00    +0.015 C 
ATOM      5  C   UNL     1      32.537 -13.161 -22.616  0.00  0.00    +0.010 C 
ATOM      6  C   UNL     1      32.436 -13.482 -21.262  0.00  0.00    +0.002 C 
ENDROOT
BRANCH   2  11
ATOM      7  N   UNL     1      32.892 -14.612 -25.888  0.00  0.00    -0.110 NA
ATOM      8  N   UNL     1      33.585 -12.528 -25.334  0.00  0.00    -0.087 NA
ATOM      9  N   UNL     1      33.151 -13.825 -26.941  0.00  0.00    -0.140 N 
ATOM     10  N   UNL     1      33.564 -12.580 -26.661  0.00  0.00    -0.022 NA
ATOM     11  C   UNL     1      33.179 -13.755 -24.906  0.00  0.00    +0.074 C 
ATOM     12  H   UNL     1      33.042 -14.141 -27.867  0.00  0.00    +0.197 HD
ENDBRANCH   2  11
BRANCH   1  14
ATOM     13  O   UNL     1      35.731 -17.281 -22.560  0.00  0.00    -0.270 OA
ATOM     14  N   UNL     1      33.849 -16.892 -21.243  0.00  0.00    -0.280 N 
ATOM     15  C   UNL     1      34.961 -17.644 -21.674  0.00  0.00    +0.250 C 
ATOM     16  H   UNL     1      33.310 -17.296 -20.525  0.00  0.00    +0.155 HD
BRANCH  15  18
ATOM     17  F   UNL     1      33.088 -21.669 -19.759  0.00  0.00    -0.204 F 
ATOM     18  C   UNL     1      35.127 -18.948 -21.010  0.00  0.00    +0.056 C 
ATOM     19  C   UNL     1      34.006 -19.698 -20.697  0.00  0.00    +0.034 C 
ATOM     20  C   UNL     1      36.403 -19.401 -20.713  0.00  0.00    +0.005 C 
ATOM     21  C   UNL     1      34.163 -20.933 -20.069  0.00  0.00    +0.140 C 
ATOM     22  C   UNL     1      36.561 -20.636 -20.085  0.00  0.00    +0.002 C 
ATOM     23  C   UNL     1      35.441 -21.402 -19.763  0.00  0.00    +0.030 C 
ENDBRANCH  15  18
ENDBRANCH   1  14
TORSDOF 3
ENDMDL
