MODEL 1
REMARK VINA RESULT:      -8.6      0.000      0.000
REMARK  Name = 9047
REMARK  4 active torsions:
REMARK  status: ('A' for Active; 'I' for Inactive)
REMARK    1  A    between atoms: S_1  and  N_4
REMARK    2  A    between atoms: S_1  and  C_14
REMARK    3  A    between atoms: C_8  and  O_12
REMARK    4  A    between atoms: C_17  and  N_20
REMARK                            x       y       z     vdW  Elec       q    Type
REMARK                         _______ _______ _______ _____ _____    ______ ____
ROOT
ATOM      1  S   UNL     1      34.275 -16.190 -21.424  0.00  0.00    +0.075 S 
ATOM      2  O   UNL     1      34.875 -15.367 -20.380  0.00  0.00    -0.150 OA
ATOM      3  O   UNL     1      32.839 -16.091 -21.657  0.00  0.00    -0.150 OA
ENDROOT
BRANCH   1   4
ATOM      4  N   UNL     1      35.121 -15.889 -22.894  0.00  0.00    -0.195 N 
ATOM      5  N   UNL     1      33.722 -14.364 -24.028  0.00  0.00    -0.222 NA
ATOM      6  N   UNL     1      33.557 -16.090 -26.232  0.00  0.00    -0.206 NA
ATOM      7  C   UNL     1      34.351 -15.550 -24.061  0.00  0.00    +0.201 C 
ATOM      8  C   UNL     1      34.276 -16.400 -25.134  0.00  0.00    +0.259 C 
ATOM      9  C   UNL     1      33.004 -14.052 -25.125  0.00  0.00    +0.121 C 
ATOM     10  C   UNL     1      32.923 -14.901 -26.207  0.00  0.00    +0.123 C 
ATOM     11  H   UNL     1      36.102 -15.947 -22.935  0.00  0.00    +0.175 HD
BRANCH   8  12
ATOM     12  O   UNL     1      34.926 -17.603 -25.137  0.00  0.00    -0.454 OA
ATOM     13  C   UNL     1      34.174 -18.742 -24.734  0.00  0.00    +0.254 C 
ENDBRANCH   8  12
ENDBRANCH   1   4
BRANCH   1  14
ATOM     14  C   UNL     1      34.672 -17.855 -21.082  0.00  0.00    +0.125 C 
ATOM     15  C   UNL     1      33.655 -18.784 -20.866  0.00  0.00    +0.021 C 
ATOM     16  C   UNL     1      36.006 -18.256 -21.024  0.00  0.00    +0.021 C 
ATOM     17  C   UNL     1      35.306 -20.516 -20.534  0.00  0.00    +0.042 C 
ATOM     18  C   UNL     1      33.972 -20.115 -20.592  0.00  0.00    +0.015 C 
ATOM     19  C   UNL     1      36.324 -19.587 -20.750  0.00  0.00    +0.015 C 
BRANCH  17  20
ATOM     20  N   UNL     1      35.628 -21.861 -20.258  0.00  0.00    -0.357 N 
ATOM     21  H   UNL     1      36.498 -22.227 -20.539  0.00  0.00    +0.142 HD
ATOM     22  H   UNL     1      34.983 -22.435 -19.783  0.00  0.00    +0.142 HD
ENDBRANCH  17  20
ENDBRANCH   1  14
TORSDOF 4
ENDMDL
MODEL 2
REMARK VINA RESULT:      -8.2      6.132      9.645
REMARK  Name = 9047
REMARK  4 active torsions:
REMARK  status: ('A' for Active; 'I' for Inactive)
REMARK    1  A    between atoms: S_1  and  N_4
REMARK    2  A    between atoms: S_1  and  C_14
REMARK    3  A    between atoms: C_8  and  O_12
REMARK    4  A    between atoms: C_17  and  N_20
REMARK                            x       y       z     vdW  Elec       q    Type
REMARK                         _______ _______ _______ _____ _____    ______ ____
ROOT
ATOM      1  S   UNL     1      33.905 -23.089 -17.793  0.00  0.00    +0.075 S 
ATOM      2  O   UNL     1      35.163 -23.139 -17.056  0.00  0.00    -0.150 OA
ATOM      3  O   UNL     1      33.420 -24.302 -18.439  0.00  0.00    -0.150 OA
ENDROOT
BRANCH   1   4
ATOM      4  N   UNL     1      32.692 -22.472 -16.737  0.00  0.00    -0.195 N 
ATOM      5  N   UNL     1      32.769 -23.945 -14.895  0.00  0.00    -0.222 NA
ATOM      6  N   UNL     1      30.051 -24.557 -15.216  0.00  0.00    -0.206 NA
ATOM      7  C   UNL     1      32.019 -23.397 -15.865  0.00  0.00    +0.201 C 
ATOM      8  C   UNL     1      30.689 -23.691 -16.030  0.00  0.00    +0.259 C 
ATOM      9  C   UNL     1      32.132 -24.810 -14.082  0.00  0.00    +0.121 C 
ATOM     10  C   UNL     1      30.797 -25.110 -14.240  0.00  0.00    +0.123 C 
ATOM     11  H   UNL     1      32.465 -21.515 -16.730  0.00  0.00    +0.175 HD
BRANCH   8  12
ATOM     12  O   UNL     1      29.952 -23.119 -17.029  0.00  0.00    -0.454 OA
ATOM     13  C   UNL     1      28.578 -22.872 -16.753  0.00  0.00    +0.254 C 
ENDBRANCH   8  12
ENDBRANCH   1   4
BRANCH   1  14
ATOM     14  C   UNL     1      34.045 -21.832 -18.997  0.00  0.00    +0.125 C 
ATOM     15  C   UNL     1      35.301 -21.462 -19.476  0.00  0.00    +0.021 C 
ATOM     16  C   UNL     1      32.901 -21.198 -19.479  0.00  0.00    +0.021 C 
ATOM     17  C   UNL     1      34.269 -19.823 -20.919  0.00  0.00    +0.042 C 
ATOM     18  C   UNL     1      35.413 -20.457 -20.438  0.00  0.00    +0.015 C 
ATOM     19  C   UNL     1      33.012 -20.193 -20.440  0.00  0.00    +0.015 C 
BRANCH  17  20
ATOM     20  N   UNL     1      34.380 -18.808 -21.892  0.00  0.00    -0.357 N 
ATOM     21  H   UNL     1      34.308 -17.862 -21.628  0.00  0.00    +0.142 HD
ATOM     22  H   UNL     1      34.532 -19.045 -22.836  0.00  0.00    +0.142 HD
ENDBRANCH  17  20
ENDBRANCH   1  14
TORSDOF 4
ENDMDL
MODEL 3
REMARK VINA RESULT:      -8.0      9.614     12.256
REMARK  Name = 9047
REMARK  4 active torsions:
REMARK  status: ('A' for Active; 'I' for Inactive)
REMARK    1  A    between atoms: S_1  and  N_4
REMARK    2  A    between atoms: S_1  and  C_14
REMARK    3  A    between atoms: C_8  and  O_12
REMARK    4  A    between atoms: C_17  and  N_20
REMARK                            x       y       z     vdW  Elec       q    Type
REMARK                         _______ _______ _______ _____ _____    ______ ____
ROOT
ATOM      1  S   UNL     1      35.100 -23.832 -15.752  0.00  0.00    +0.075 S 
ATOM      2  O   UNL     1      35.628 -22.918 -16.758  0.00  0.00    -0.150 OA
ATOM      3  O   UNL     1      35.248 -25.267 -15.959  0.00  0.00    -0.150 OA
ENDROOT
BRANCH   1   4
ATOM      4  N   UNL     1      35.776 -23.397 -14.228  0.00  0.00    -0.195 N 
ATOM      5  N   UNL     1      38.007 -24.147 -14.384  0.00  0.00    -0.222 NA
ATOM      6  N   UNL     1      37.679 -25.729 -12.092  0.00  0.00    -0.206 NA
ATOM      7  C   UNL     1      36.848 -24.201 -13.708  0.00  0.00    +0.201 C 
ATOM      8  C   UNL     1      36.679 -24.973 -12.586  0.00  0.00    +0.259 C 
ATOM      9  C   UNL     1      39.008 -24.903 -13.890  0.00  0.00    +0.121 C 
ATOM     10  C   UNL     1      38.846 -25.680 -12.764  0.00  0.00    +0.123 C 
ATOM     11  H   UNL     1      35.438 -22.620 -13.727  0.00  0.00    +0.175 HD
BRANCH   8  12
ATOM     12  O   UNL     1      35.485 -25.009 -11.920  0.00  0.00    -0.454 OA
ATOM     13  C   UNL     1      35.457 -24.434 -10.618  0.00  0.00    +0.254 C 
ENDBRANCH   8  12
ENDBRANCH   1   4
BRANCH   1  14
ATOM     14  C   UNL     1      33.405 -23.470 -15.541  0.00  0.00    +0.125 C 
ATOM     15  C   UNL     1      32.860 -23.406 -14.259  0.00  0.00    +0.021 C 
ATOM     16  C   UNL     1      32.596 -23.246 -16.655  0.00  0.00    +0.021 C 
ATOM     17  C   UNL     1      30.696 -22.894 -15.205  0.00  0.00    +0.042 C 
ATOM     18  C   UNL     1      31.505 -23.118 -14.091  0.00  0.00    +0.015 C 
ATOM     19  C   UNL     1      31.242 -22.958 -16.487  0.00  0.00    +0.015 C 
BRANCH  17  20
ATOM     20  N   UNL     1      29.327 -22.602 -15.036  0.00  0.00    -0.357 N 
ATOM     21  H   UNL     1      28.664 -22.966 -15.666  0.00  0.00    +0.142 HD
ATOM     22  H   UNL     1      29.034 -22.034 -14.286  0.00  0.00    +0.142 HD
ENDBRANCH  17  20
ENDBRANCH   1  14
TORSDOF 4
ENDMDL
MODEL 4
REMARK VINA RESULT:      -7.8      7.311     11.256
REMARK  Name = 9047
REMARK  4 active torsions:
REMARK  status: ('A' for Active; 'I' for Inactive)
REMARK    1  A    between atoms: S_1  and  N_4
REMARK    2  A    between atoms: S_1  and  C_14
REMARK    3  A    between atoms: C_8  and  O_12
REMARK    4  A    between atoms: C_17  and  N_20
REMARK                            x       y       z     vdW  Elec       q    Type
REMARK                         _______ _______ _______ _____ _____    ______ ____
ROOT
ATOM      1  S   UNL     1      34.929 -23.467 -15.638  0.00  0.00    +0.075 S 
ATOM      2  O   UNL     1      35.266 -24.869 -15.857  0.00  0.00    -0.150 OA
ATOM      3  O   UNL     1      33.623 -23.137 -15.080  0.00  0.00    -0.150 OA
ENDROOT
BRANCH   1   4
ATOM      4  N   UNL     1      36.166 -22.765 -14.665  0.00  0.00    -0.195 N 
ATOM      5  N   UNL     1      38.044 -24.123 -15.107  0.00  0.00    -0.222 NA
ATOM      6  N   UNL     1      38.317 -24.705 -12.377  0.00  0.00    -0.206 NA
ATOM      7  C   UNL     1      37.212 -23.623 -14.179  0.00  0.00    +0.201 C 
ATOM      8  C   UNL     1      37.338 -23.903 -12.842  0.00  0.00    +0.259 C 
ATOM      9  C   UNL     1      39.023 -24.925 -14.643  0.00  0.00    +0.121 C 
ATOM     10  C   UNL     1      39.156 -25.211 -13.302  0.00  0.00    +0.123 C 
ATOM     11  H   UNL     1      36.157 -21.805 -14.449  0.00  0.00    +0.175 HD
BRANCH   8  12
ATOM     12  O   UNL     1      36.473 -23.380 -11.920  0.00  0.00    -0.454 OA
ATOM     13  C   UNL     1      35.711 -24.308 -11.155  0.00  0.00    +0.254 C 
ENDBRANCH   8  12
ENDBRANCH   1   4
BRANCH   1  14
ATOM     14  C   UNL     1      35.113 -22.632 -17.160  0.00  0.00    +0.125 C 
ATOM     15  C   UNL     1      36.323 -22.012 -17.474  0.00  0.00    +0.021 C 
ATOM     16  C   UNL     1      34.051 -22.582 -18.062  0.00  0.00    +0.021 C 
ATOM     17  C   UNL     1      35.407 -21.294 -19.591  0.00  0.00    +0.042 C 
ATOM     18  C   UNL     1      36.470 -21.344 -18.689  0.00  0.00    +0.015 C 
ATOM     19  C   UNL     1      34.197 -21.913 -19.277  0.00  0.00    +0.015 C 
BRANCH  17  20
ATOM     20  N   UNL     1      35.555 -20.620 -20.821  0.00  0.00    -0.357 N 
ATOM     21  H   UNL     1      36.405 -20.173 -21.038  0.00  0.00    +0.142 HD
ATOM     22  H   UNL     1      34.809 -20.597 -21.463  0.00  0.00    +0.142 HD
ENDBRANCH  17  20
ENDBRANCH   1  14
TORSDOF 4
ENDMDL
MODEL 5
REMARK VINA RESULT:      -7.8      8.435     11.879
REMARK  Name = 9047
REMARK  4 active torsions:
REMARK  status: ('A' for Active; 'I' for Inactive)
REMARK    1  A    between atoms: S_1  and  N_4
REMARK    2  A    between atoms: S_1  and  C_14
REMARK    3  A    between atoms: C_8  and  O_12
REMARK    4  A    between atoms: C_17  and  N_20
REMARK                            x       y       z     vdW  Elec       q    Type
REMARK                         _______ _______ _______ _____ _____    ______ ____
ROOT
ATOM      1  S   UNL     1      32.850 -24.377 -13.955  0.00  0.00    +0.075 S 
ATOM      2  O   UNL     1      31.935 -25.512 -13.988  0.00  0.00    -0.150 OA
ATOM      3  O   UNL     1      32.643 -23.336 -12.956  0.00  0.00    -0.150 OA
ENDROOT
BRANCH   1   4
ATOM      4  N   UNL     1      34.456 -24.989 -13.827  0.00  0.00    -0.195 N 
ATOM      5  N   UNL     1      34.963 -24.718 -11.539  0.00  0.00    -0.222 NA
ATOM      6  N   UNL     1      37.213 -23.171 -12.179  0.00  0.00    -0.206 NA
ATOM      7  C   UNL     1      35.309 -24.442 -12.807  0.00  0.00    +0.201 C 
ATOM      8  C   UNL     1      36.407 -23.686 -13.129  0.00  0.00    +0.259 C 
ATOM      9  C   UNL     1      35.769 -24.204 -10.589  0.00  0.00    +0.121 C 
ATOM     10  C   UNL     1      36.873 -23.443 -10.904  0.00  0.00    +0.123 C 
ATOM     11  H   UNL     1      34.780 -25.692 -14.435  0.00  0.00    +0.175 HD
BRANCH   8  12
ATOM     12  O   UNL     1      36.733 -23.420 -14.430  0.00  0.00    -0.454 OA
ATOM     13  C   UNL     1      37.862 -24.103 -14.963  0.00  0.00    +0.254 C 
ENDBRANCH   8  12
ENDBRANCH   1   4
BRANCH   1  14
ATOM     14  C   UNL     1      32.842 -23.641 -15.539  0.00  0.00    +0.125 C 
ATOM     15  C   UNL     1      31.653 -23.139 -16.068  0.00  0.00    +0.021 C 
ATOM     16  C   UNL     1      34.023 -23.556 -16.275  0.00  0.00    +0.021 C 
ATOM     17  C   UNL     1      32.827 -22.467 -18.070  0.00  0.00    +0.042 C 
ATOM     18  C   UNL     1      31.646 -22.552 -17.334  0.00  0.00    +0.015 C 
ATOM     19  C   UNL     1      34.016 -22.969 -17.541  0.00  0.00    +0.015 C 
BRANCH  17  20
ATOM     20  N   UNL     1      32.822 -21.873 -19.349  0.00  0.00    -0.357 N 
ATOM     21  H   UNL     1      32.218 -21.118 -19.538  0.00  0.00    +0.142 HD
ATOM     22  H   UNL     1      33.422 -22.212 -20.052  0.00  0.00    +0.142 HD
ENDBRANCH  17  20
ENDBRANCH   1  14
TORSDOF 4
ENDMDL
MODEL 6
REMARK VINA RESULT:      -7.7      3.588      7.359
REMARK  Name = 9047
REMARK  4 active torsions:
REMARK  status: ('A' for Active; 'I' for Inactive)
REMARK    1  A    between atoms: S_1  and  N_4
REMARK    2  A    between atoms: S_1  and  C_14
REMARK    3  A    between atoms: C_8  and  O_12
REMARK    4  A    between atoms: C_17  and  N_20
REMARK                            x       y       z     vdW  Elec       q    Type
REMARK                         _______ _______ _______ _____ _____    ______ ____
ROOT
ATOM      1  S   UNL     1      33.278 -13.183 -23.988  0.00  0.00    +0.075 S 
ATOM      2  O   UNL     1      33.380 -13.625 -25.374  0.00  0.00    -0.150 OA
ATOM      3  O   UNL     1      32.031 -13.409 -23.268  0.00  0.00    -0.150 OA
ENDROOT
BRANCH   1   4
ATOM      4  N   UNL     1      34.586 -13.877 -23.108  0.00  0.00    -0.195 N 
ATOM      5  N   UNL     1      34.857 -15.996 -24.111  0.00  0.00    -0.222 NA
ATOM      6  N   UNL     1      34.494 -17.260 -21.634  0.00  0.00    -0.206 NA
ATOM      7  C   UNL     1      34.631 -15.308 -22.979  0.00  0.00    +0.201 C 
ATOM      8  C   UNL     1      34.452 -15.919 -21.764  0.00  0.00    +0.259 C 
ATOM      9  C   UNL     1      34.899 -17.336 -23.981  0.00  0.00    +0.121 C 
ATOM     10  C   UNL     1      34.720 -17.957 -22.764  0.00  0.00    +0.123 C 
ATOM     11  H   UNL     1      35.283 -13.310 -22.705  0.00  0.00    +0.175 HD
BRANCH   8  12
ATOM     12  O   UNL     1      34.222 -15.192 -20.628  0.00  0.00    -0.454 OA
ATOM     13  C   UNL     1      32.863 -15.005 -20.249  0.00  0.00    +0.254 C 
ENDBRANCH   8  12
ENDBRANCH   1   4
BRANCH   1  14
ATOM     14  C   UNL     1      33.646 -11.476 -23.946  0.00  0.00    +0.125 C 
ATOM     15  C   UNL     1      34.700 -10.972 -24.707  0.00  0.00    +0.021 C 
ATOM     16  C   UNL     1      32.887 -10.618 -23.151  0.00  0.00    +0.021 C 
ATOM     17  C   UNL     1      34.236  -8.751 -23.878  0.00  0.00    +0.042 C 
ATOM     18  C   UNL     1      34.995  -9.608 -24.673  0.00  0.00    +0.015 C 
ATOM     19  C   UNL     1      33.181  -9.255 -23.117  0.00  0.00    +0.015 C 
BRANCH  17  20
ATOM     20  N   UNL     1      34.532  -7.372 -23.843  0.00  0.00    -0.357 N 
ATOM     21  H   UNL     1      35.444  -7.070 -23.629  0.00  0.00    +0.142 HD
ATOM     22  H   UNL     1      33.827  -6.712 -24.035  0.00  0.00    +0.142 HD
ENDBRANCH  17  20
ENDBRANCH   1  14
TORSDOF 4
ENDMDL
MODEL 7
REMARK VINA RESULT:      -7.6      2.014      3.373
REMARK  Name = 9047
REMARK  4 active torsions:
REMARK  status: ('A' for Active; 'I' for Inactive)
REMARK    1  A    between atoms: S_1  and  N_4
REMARK    2  A    between atoms: S_1  and  C_14
REMARK    3  A    between atoms: C_8  and  O_12
REMARK    4  A    between atoms: C_17  and  N_20
REMARK                            x       y       z     vdW  Elec       q    Type
REMARK                         _______ _______ _______ _____ _____    ______ ____
ROOT
ATOM      1  S   UNL     1      34.752 -16.907 -21.436  0.00  0.00    +0.075 S 
ATOM      2  O   UNL     1      35.554 -17.027 -22.648  0.00  0.00    -0.150 OA
ATOM      3  O   UNL     1      35.304 -16.184 -20.297  0.00  0.00    -0.150 OA
ENDROOT
BRANCH   1   4
ATOM      4  N   UNL     1      33.229 -16.225 -21.868  0.00  0.00    -0.195 N 
ATOM      5  N   UNL     1      33.663 -15.190 -23.944  0.00  0.00    -0.222 NA
ATOM      6  N   UNL     1      32.787 -12.721 -22.943  0.00  0.00    -0.206 NA
ATOM      7  C   UNL     1      33.225 -15.041 -22.683  0.00  0.00    +0.201 C 
ATOM      8  C   UNL     1      32.795 -13.837 -22.185  0.00  0.00    +0.259 C 
ATOM      9  C   UNL     1      33.654 -14.076 -24.702  0.00  0.00    +0.121 C 
ATOM     10  C   UNL     1      33.224 -12.863 -24.209  0.00  0.00    +0.123 C 
ATOM     11  H   UNL     1      32.387 -16.635 -21.567  0.00  0.00    +0.175 HD
BRANCH   8  12
ATOM     12  O   UNL     1      32.357 -13.715 -20.896  0.00  0.00    -0.454 OA
ATOM     13  C   UNL     1      31.901 -12.429 -20.490  0.00  0.00    +0.254 C 
ENDBRANCH   8  12
ENDBRANCH   1   4
BRANCH   1  14
ATOM     14  C   UNL     1      34.322 -18.518 -20.921  0.00  0.00    +0.125 C 
ATOM     15  C   UNL     1      35.320 -19.457 -20.661  0.00  0.00    +0.021 C 
ATOM     16  C   UNL     1      32.980 -18.868 -20.771  0.00  0.00    +0.021 C 
ATOM     17  C   UNL     1      33.635 -21.095 -20.100  0.00  0.00    +0.042 C 
ATOM     18  C   UNL     1      34.977 -20.745 -20.250  0.00  0.00    +0.015 C 
ATOM     19  C   UNL     1      32.637 -20.157 -20.360  0.00  0.00    +0.015 C 
BRANCH  17  20
ATOM     20  N   UNL     1      33.287 -22.397 -19.684  0.00  0.00    -0.357 N 
ATOM     21  H   UNL     1      33.990 -23.070 -19.533  0.00  0.00    +0.142 HD
ATOM     22  H   UNL     1      32.341 -22.632 -19.542  0.00  0.00    +0.142 HD
ENDBRANCH  17  20
ENDBRANCH   1  14
TORSDOF 4
ENDMDL
MODEL 8
REMARK VINA RESULT:      -7.6      1.969      3.327
REMARK  Name = 9047
REMARK  4 active torsions:
REMARK  status: ('A' for Active; 'I' for Inactive)
REMARK    1  A    between atoms: S_1  and  N_4
REMARK    2  A    between atoms: S_1  and  C_14
REMARK    3  A    between atoms: C_8  and  O_12
REMARK    4  A    between atoms: C_17  and  N_20
REMARK                            x       y       z     vdW  Elec       q    Type
REMARK                         _______ _______ _______ _____ _____    ______ ____
ROOT
ATOM      1  S   UNL     1      35.165 -18.534 -22.353  0.00  0.00    +0.075 S 
ATOM      2  O   UNL     1      35.073 -19.167 -23.663  0.00  0.00    -0.150 OA
ATOM      3  O   UNL     1      36.403 -17.857 -21.984  0.00  0.00    -0.150 OA
ENDROOT
BRANCH   1   4
ATOM      4  N   UNL     1      33.841 -17.444 -22.192  0.00  0.00    -0.195 N 
ATOM      5  N   UNL     1      33.888 -16.225 -24.212  0.00  0.00    -0.222 NA
ATOM      6  N   UNL     1      34.097 -13.811 -22.799  0.00  0.00    -0.206 NA
ATOM      7  C   UNL     1      33.921 -16.178 -22.870  0.00  0.00    +0.201 C 
ATOM      8  C   UNL     1      34.023 -15.002 -22.171  0.00  0.00    +0.259 C 
ATOM      9  C   UNL     1      33.962 -15.035 -24.840  0.00  0.00    +0.121 C 
ATOM     10  C   UNL     1      34.065 -13.850 -24.145  0.00  0.00    +0.123 C 
ATOM     11  H   UNL     1      33.053 -17.680 -21.652  0.00  0.00    +0.175 HD
BRANCH   8  12
ATOM     12  O   UNL     1      34.056 -14.987 -20.804  0.00  0.00    -0.454 OA
ATOM     13  C   UNL     1      32.815 -14.799 -20.132  0.00  0.00    +0.254 C 
ENDBRANCH   8  12
ENDBRANCH   1   4
BRANCH   1  14
ATOM     14  C   UNL     1      34.814 -19.749 -21.149  0.00  0.00    +0.125 C 
ATOM     15  C   UNL     1      35.855 -20.461 -20.552  0.00  0.00    +0.021 C 
ATOM     16  C   UNL     1      33.494 -20.010 -20.785  0.00  0.00    +0.021 C 
ATOM     17  C   UNL     1      34.253 -21.693 -19.228  0.00  0.00    +0.042 C 
ATOM     18  C   UNL     1      35.574 -21.433 -19.591  0.00  0.00    +0.015 C 
ATOM     19  C   UNL     1      33.213 -20.982 -19.825  0.00  0.00    +0.015 C 
BRANCH  17  20
ATOM     20  N   UNL     1      33.969 -22.675 -18.256  0.00  0.00    -0.357 N 
ATOM     21  H   UNL     1      34.597 -23.419 -18.109  0.00  0.00    +0.142 HD
ATOM     22  H   UNL     1      33.143 -22.615 -17.723  0.00  0.00    +0.142 HD
ENDBRANCH  17  20
ENDBRANCH   1  14
TORSDOF 4
ENDMDL
MODEL 9
REMARK VINA RESULT:      -7.5      8.735     11.146
REMARK  Name = 9047
REMARK  4 active torsions:
REMARK  status: ('A' for Active; 'I' for Inactive)
REMARK    1  A    between atoms: S_1  and  N_4
REMARK    2  A    between atoms: S_1  and  C_14
REMARK    3  A    between atoms: C_8  and  O_12
REMARK    4  A    between atoms: C_17  and  N_20
REMARK                            x       y       z     vdW  Elec       q    Type
REMARK                         _______ _______ _______ _____ _____    ______ ____
ROOT
ATOM      1  S   UNL     1      32.077 -24.389 -13.665  0.00  0.00    +0.075 S 
ATOM      2  O   UNL     1      31.570 -25.467 -12.823  0.00  0.00    -0.150 OA
ATOM      3  O   UNL     1      32.540 -23.161 -13.030  0.00  0.00    -0.150 OA
ENDROOT
BRANCH   1   4
ATOM      4  N   UNL     1      33.328 -25.031 -14.660  0.00  0.00    -0.195 N 
ATOM      5  N   UNL     1      35.288 -24.077 -13.758  0.00  0.00    -0.222 NA
ATOM      6  N   UNL     1      35.943 -22.965 -16.248  0.00  0.00    -0.206 NA
ATOM      7  C   UNL     1      34.517 -24.244 -14.845  0.00  0.00    +0.201 C 
ATOM      8  C   UNL     1      34.829 -23.703 -16.066  0.00  0.00    +0.259 C 
ATOM      9  C   UNL     1      36.402 -23.339 -13.939  0.00  0.00    +0.121 C 
ATOM     10  C   UNL     1      36.722 -22.793 -15.163  0.00  0.00    +0.123 C 
ATOM     11  H   UNL     1      33.232 -25.911 -15.090  0.00  0.00    +0.175 HD
BRANCH   8  12
ATOM     12  O   UNL     1      34.022 -23.889 -17.155  0.00  0.00    -0.454 OA
ATOM     13  C   UNL     1      33.835 -22.771 -18.015  0.00  0.00    +0.254 C 
ENDBRANCH   8  12
ENDBRANCH   1   4
BRANCH   1  14
ATOM     14  C   UNL     1      30.832 -23.986 -14.820  0.00  0.00    +0.125 C 
ATOM     15  C   UNL     1      30.984 -22.876 -15.651  0.00  0.00    +0.021 C 
ATOM     16  C   UNL     1      29.684 -24.772 -14.911  0.00  0.00    +0.021 C 
ATOM     17  C   UNL     1      28.841 -23.339 -16.665  0.00  0.00    +0.042 C 
ATOM     18  C   UNL     1      29.989 -22.553 -16.573  0.00  0.00    +0.015 C 
ATOM     19  C   UNL     1      28.688 -24.449 -15.834  0.00  0.00    +0.015 C 
BRANCH  17  20
ATOM     20  N   UNL     1      27.834 -23.014 -17.598  0.00  0.00    -0.357 N 
ATOM     21  H   UNL     1      28.048 -22.448 -18.374  0.00  0.00    +0.142 HD
ATOM     22  H   UNL     1      26.919 -23.355 -17.473  0.00  0.00    +0.142 HD
ENDBRANCH  17  20
ENDBRANCH   1  14
TORSDOF 4
ENDMDL
