MODEL 1
REMARK VINA RESULT:      -8.3      0.000      0.000
REMARK  Name = 9861547
REMARK  6 active torsions:
REMARK  status: ('A' for Active; 'I' for Inactive)
REMARK    1  A    between atoms: C_1  and  S_7
REMARK    2  A    between atoms: C_6  and  O_17
REMARK    3  A    between atoms: S_7  and  N_10
REMARK    4  A    between atoms: C_11  and  S_15
REMARK    5  A    between atoms: O_17  and  C_18
REMARK    6  A    between atoms: C_18  and  C_19
REMARK                            x       y       z     vdW  Elec       q    Type
REMARK                         _______ _______ _______ _____ _____    ______ ____
ROOT
ATOM      1  C   UNL     1      34.626 -19.900 -20.835  0.00  0.00    +0.122 C 
ATOM      2  C   UNL     1      33.301 -20.216 -20.588  0.00  0.00    +0.023 C 
ATOM      3  C   UNL     1      35.659 -20.688 -20.357  0.00  0.00    +0.023 C 
ATOM      4  C   UNL     1      32.999 -21.352 -19.839  0.00  0.00    +0.038 C 
ATOM      5  C   UNL     1      35.357 -21.826 -19.608  0.00  0.00    +0.038 C 
ATOM      6  C   UNL     1      34.027 -22.158 -19.349  0.00  0.00    +0.140 C 
ENDROOT
BRANCH   1   7
ATOM      7  S   UNL     1      35.007 -18.458 -21.783  0.00  0.00    +0.063 S 
ATOM      8  O   UNL     1      36.441 -18.243 -21.690  0.00  0.00    -0.153 OA
ATOM      9  O   UNL     1      34.369 -18.603 -23.079  0.00  0.00    -0.153 OA
BRANCH   7  10
ATOM     10  N   UNL     1      34.195 -17.270 -20.881  0.00  0.00    -0.155 NA
ATOM     11  C   UNL     1      33.966 -14.873 -20.973  0.00  0.00    +0.063 C 
ATOM     12  C   UNL     1      34.920 -15.998 -20.577  0.00  0.00    +0.106 C 
ATOM     13  C   UNL     1      32.597 -15.511 -20.790  0.00  0.00    +0.031 C 
ATOM     14  C   UNL     1      32.794 -16.944 -21.268  0.00  0.00    +0.097 C 
BRANCH  11  15
ATOM     15  S   UNL     1      34.235 -14.351 -22.703  0.00  0.00    -0.167 S 
ATOM     16  H   UNL     1      35.470 -14.750 -23.111  0.00  0.00    +0.102 HD
ENDBRANCH  11  15
ENDBRANCH   7  10
ENDBRANCH   1   7
BRANCH   6  17
ATOM     17  O   UNL     1      33.732 -23.269 -18.620  0.00  0.00    -0.461 OA
BRANCH  17  18
ATOM     18  C   UNL     1      33.739 -23.133 -17.200  0.00  0.00    +0.281 C 
BRANCH  18  19
ATOM     19  C   UNL     1      32.364 -23.107 -16.700  0.00  0.00    -0.044 C 
ATOM     20  C   UNL     1      31.236 -23.084 -16.291  0.00  0.00    -0.086 C 
ATOM     21  C   UNL     1      29.861 -23.057 -15.792  0.00  0.00    +0.090 C 
ENDBRANCH  18  19
ENDBRANCH  17  18
ENDBRANCH   6  17
TORSDOF 6
ENDMDL
MODEL 2
REMARK VINA RESULT:      -8.2      5.015      8.815
REMARK  Name = 9861547
REMARK  6 active torsions:
REMARK  status: ('A' for Active; 'I' for Inactive)
REMARK    1  A    between atoms: C_1  and  S_7
REMARK    2  A    between atoms: C_6  and  O_17
REMARK    3  A    between atoms: S_7  and  N_10
REMARK    4  A    between atoms: C_11  and  S_15
REMARK    5  A    between atoms: O_17  and  C_18
REMARK    6  A    between atoms: C_18  and  C_19
REMARK                            x       y       z     vdW  Elec       q    Type
REMARK                         _______ _______ _______ _____ _____    ______ ____
ROOT
ATOM      1  C   UNL     1      35.375 -22.756 -16.863  0.00  0.00    +0.122 C 
ATOM      2  C   UNL     1      36.513 -22.072 -17.256  0.00  0.00    +0.023 C 
ATOM      3  C   UNL     1      34.268 -22.854 -17.689  0.00  0.00    +0.023 C 
ATOM      4  C   UNL     1      36.545 -21.467 -18.511  0.00  0.00    +0.038 C 
ATOM      5  C   UNL     1      34.300 -22.249 -18.945  0.00  0.00    +0.038 C 
ATOM      6  C   UNL     1      35.439 -21.554 -19.356  0.00  0.00    +0.140 C 
ENDROOT
BRANCH   1   7
ATOM      7  S   UNL     1      35.335 -23.523 -15.271  0.00  0.00    +0.063 S 
ATOM      8  O   UNL     1      35.806 -22.546 -14.305  0.00  0.00    -0.153 OA
ATOM      9  O   UNL     1      34.031 -24.140 -15.114  0.00  0.00    -0.153 OA
BRANCH   7  10
ATOM     10  N   UNL     1      36.512 -24.730 -15.479  0.00  0.00    -0.155 NA
ATOM     11  C   UNL     1      38.172 -25.793 -14.093  0.00  0.00    +0.063 C 
ATOM     12  C   UNL     1      37.858 -24.513 -14.864  0.00  0.00    +0.106 C 
ATOM     13  C   UNL     1      37.394 -26.851 -14.861  0.00  0.00    +0.031 C 
ATOM     14  C   UNL     1      36.102 -26.144 -15.251  0.00  0.00    +0.097 C 
BRANCH  11  15
ATOM     15  S   UNL     1      37.610 -25.678 -12.358  0.00  0.00    -0.167 S 
ATOM     16  H   UNL     1      38.431 -24.842 -11.669  0.00  0.00    +0.102 HD
ENDBRANCH  11  15
ENDBRANCH   7  10
ENDBRANCH   1   7
BRANCH   6  17
ATOM     17  O   UNL     1      35.471 -20.964 -20.582  0.00  0.00    -0.461 OA
BRANCH  17  18
ATOM     18  C   UNL     1      34.750 -19.743 -20.734  0.00  0.00    +0.281 C 
BRANCH  18  19
ATOM     19  C   UNL     1      34.676 -19.386 -22.151  0.00  0.00    -0.044 C 
ATOM     20  C   UNL     1      34.614 -19.091 -23.313  0.00  0.00    -0.086 C 
ATOM     21  C   UNL     1      34.539 -18.733 -24.729  0.00  0.00    +0.090 C 
ENDBRANCH  18  19
ENDBRANCH  17  18
ENDBRANCH   6  17
TORSDOF 6
ENDMDL
MODEL 3
REMARK VINA RESULT:      -8.1      1.081      1.383
REMARK  Name = 9861547
REMARK  6 active torsions:
REMARK  status: ('A' for Active; 'I' for Inactive)
REMARK    1  A    between atoms: C_1  and  S_7
REMARK    2  A    between atoms: C_6  and  O_17
REMARK    3  A    between atoms: S_7  and  N_10
REMARK    4  A    between atoms: C_11  and  S_15
REMARK    5  A    between atoms: O_17  and  C_18
REMARK    6  A    between atoms: C_18  and  C_19
REMARK                            x       y       z     vdW  Elec       q    Type
REMARK                         _______ _______ _______ _____ _____    ______ ____
ROOT
ATOM      1  C   UNL     1      34.778 -19.880 -20.765  0.00  0.00    +0.122 C 
ATOM      2  C   UNL     1      33.501 -20.296 -20.431  0.00  0.00    +0.023 C 
ATOM      3  C   UNL     1      35.901 -20.526 -20.275  0.00  0.00    +0.023 C 
ATOM      4  C   UNL     1      33.340 -21.389 -19.581  0.00  0.00    +0.038 C 
ATOM      5  C   UNL     1      35.740 -21.620 -19.425  0.00  0.00    +0.038 C 
ATOM      6  C   UNL     1      34.459 -22.052 -19.078  0.00  0.00    +0.140 C 
ENDROOT
BRANCH   1   7
ATOM      7  S   UNL     1      34.981 -18.494 -21.842  0.00  0.00    +0.063 S 
ATOM      8  O   UNL     1      36.403 -18.211 -21.926  0.00  0.00    -0.153 OA
ATOM      9  O   UNL     1      34.213 -18.757 -23.046  0.00  0.00    -0.153 OA
BRANCH   7  10
ATOM     10  N   UNL     1      34.213 -17.281 -20.934  0.00  0.00    -0.155 NA
ATOM     11  C   UNL     1      33.990 -14.886 -21.073  0.00  0.00    +0.063 C 
ATOM     12  C   UNL     1      34.956 -16.006 -20.693  0.00  0.00    +0.106 C 
ATOM     13  C   UNL     1      32.628 -15.512 -20.815  0.00  0.00    +0.031 C 
ATOM     14  C   UNL     1      32.798 -16.957 -21.267  0.00  0.00    +0.097 C 
BRANCH  11  15
ATOM     15  S   UNL     1      34.185 -14.406 -22.825  0.00  0.00    -0.167 S 
ATOM     16  H   UNL     1      34.198 -15.522 -23.602  0.00  0.00    +0.102 HD
ENDBRANCH  11  15
ENDBRANCH   7  10
ENDBRANCH   1   7
BRANCH   6  17
ATOM     17  O   UNL     1      34.303 -23.120 -18.249  0.00  0.00    -0.461 OA
BRANCH  17  18
ATOM     18  C   UNL     1      33.147 -23.128 -17.412  0.00  0.00    +0.281 C 
BRANCH  18  19
ATOM     19  C   UNL     1      33.535 -23.448 -16.039  0.00  0.00    -0.044 C 
ATOM     20  C   UNL     1      33.855 -23.710 -14.912  0.00  0.00    -0.086 C 
ATOM     21  C   UNL     1      34.245 -24.029 -13.538  0.00  0.00    +0.090 C 
ENDBRANCH  18  19
ENDBRANCH  17  18
ENDBRANCH   6  17
TORSDOF 6
ENDMDL
MODEL 4
REMARK VINA RESULT:      -8.0      6.132      9.618
REMARK  Name = 9861547
REMARK  6 active torsions:
REMARK  status: ('A' for Active; 'I' for Inactive)
REMARK    1  A    between atoms: C_1  and  S_7
REMARK    2  A    between atoms: C_6  and  O_17
REMARK    3  A    between atoms: S_7  and  N_10
REMARK    4  A    between atoms: C_11  and  S_15
REMARK    5  A    between atoms: O_17  and  C_18
REMARK    6  A    between atoms: C_18  and  C_19
REMARK                            x       y       z     vdW  Elec       q    Type
REMARK                         _______ _______ _______ _____ _____    ______ ____
ROOT
ATOM      1  C   UNL     1      35.427 -23.747 -13.170  0.00  0.00    +0.122 C 
ATOM      2  C   UNL     1      34.157 -24.292 -13.248  0.00  0.00    +0.023 C 
ATOM      3  C   UNL     1      35.954 -22.990 -14.203  0.00  0.00    +0.023 C 
ATOM      4  C   UNL     1      33.391 -24.076 -14.392  0.00  0.00    +0.038 C 
ATOM      5  C   UNL     1      35.188 -22.773 -15.348  0.00  0.00    +0.038 C 
ATOM      6  C   UNL     1      33.906 -23.317 -15.443  0.00  0.00    +0.140 C 
ENDROOT
BRANCH   1   7
ATOM      7  S   UNL     1      36.398 -24.023 -11.719  0.00  0.00    +0.063 S 
ATOM      8  O   UNL     1      36.994 -22.752 -11.346  0.00  0.00    -0.153 OA
ATOM      9  O   UNL     1      35.575 -24.753 -10.773  0.00  0.00    -0.153 OA
BRANCH   7  10
ATOM     10  N   UNL     1      37.598 -25.052 -12.340  0.00  0.00    -0.155 NA
ATOM     11  C   UNL     1      37.726 -26.724 -14.071  0.00  0.00    +0.063 C 
ATOM     12  C   UNL     1      37.220 -26.464 -12.653  0.00  0.00    +0.106 C 
ATOM     13  C   UNL     1      38.912 -25.777 -14.185  0.00  0.00    +0.031 C 
ATOM     14  C   UNL     1      38.457 -24.530 -13.439  0.00  0.00    +0.097 C 
BRANCH  11  15
ATOM     15  S   UNL     1      36.443 -26.341 -15.315  0.00  0.00    -0.167 S 
ATOM     16  H   UNL     1      36.768 -25.189 -15.961  0.00  0.00    +0.102 HD
ENDBRANCH  11  15
ENDBRANCH   7  10
ENDBRANCH   1   7
BRANCH   6  17
ATOM     17  O   UNL     1      33.157 -23.104 -16.559  0.00  0.00    -0.461 OA
BRANCH  17  18
ATOM     18  C   UNL     1      33.780 -23.361 -17.817  0.00  0.00    +0.281 C 
BRANCH  18  19
ATOM     19  C   UNL     1      33.512 -22.255 -18.736  0.00  0.00    -0.044 C 
ATOM     20  C   UNL     1      33.291 -21.348 -19.491  0.00  0.00    -0.086 C 
ATOM     21  C   UNL     1      33.022 -20.244 -20.412  0.00  0.00    +0.090 C 
ENDBRANCH  18  19
ENDBRANCH  17  18
ENDBRANCH   6  17
TORSDOF 6
ENDMDL
MODEL 5
REMARK VINA RESULT:      -8.0      4.930      8.700
REMARK  Name = 9861547
REMARK  6 active torsions:
REMARK  status: ('A' for Active; 'I' for Inactive)
REMARK    1  A    between atoms: C_1  and  S_7
REMARK    2  A    between atoms: C_6  and  O_17
REMARK    3  A    between atoms: S_7  and  N_10
REMARK    4  A    between atoms: C_11  and  S_15
REMARK    5  A    between atoms: O_17  and  C_18
REMARK    6  A    between atoms: C_18  and  C_19
REMARK                            x       y       z     vdW  Elec       q    Type
REMARK                         _______ _______ _______ _____ _____    ______ ____
ROOT
ATOM      1  C   UNL     1      35.377 -22.754 -16.846  0.00  0.00    +0.122 C 
ATOM      2  C   UNL     1      34.273 -22.807 -17.680  0.00  0.00    +0.023 C 
ATOM      3  C   UNL     1      36.531 -22.083 -17.215  0.00  0.00    +0.023 C 
ATOM      4  C   UNL     1      34.324 -22.172 -18.920  0.00  0.00    +0.038 C 
ATOM      5  C   UNL     1      36.582 -21.447 -18.455  0.00  0.00    +0.038 C 
ATOM      6  C   UNL     1      35.478 -21.491 -19.309  0.00  0.00    +0.140 C 
ENDROOT
BRANCH   1   7
ATOM      7  S   UNL     1      35.311 -23.560 -15.275  0.00  0.00    +0.063 S 
ATOM      8  O   UNL     1      35.751 -22.602 -14.275  0.00  0.00    -0.153 OA
ATOM      9  O   UNL     1      34.011 -24.195 -15.161  0.00  0.00    -0.153 OA
BRANCH   7  10
ATOM     10  N   UNL     1      36.506 -24.749 -15.487  0.00  0.00    -0.155 NA
ATOM     11  C   UNL     1      38.209 -25.763 -14.117  0.00  0.00    +0.063 C 
ATOM     12  C   UNL     1      37.858 -24.500 -14.900  0.00  0.00    +0.106 C 
ATOM     13  C   UNL     1      37.436 -26.845 -14.857  0.00  0.00    +0.031 C 
ATOM     14  C   UNL     1      36.125 -26.166 -15.233  0.00  0.00    +0.097 C 
BRANCH  11  15
ATOM     15  S   UNL     1      37.675 -25.635 -12.374  0.00  0.00    -0.167 S 
ATOM     16  H   UNL     1      37.926 -24.380 -11.913  0.00  0.00    +0.102 HD
ENDBRANCH  11  15
ENDBRANCH   7  10
ENDBRANCH   1   7
BRANCH   6  17
ATOM     17  O   UNL     1      35.527 -20.870 -20.518  0.00  0.00    -0.461 OA
BRANCH  17  18
ATOM     18  C   UNL     1      36.473 -19.812 -20.667  0.00  0.00    +0.281 C 
BRANCH  18  19
ATOM     19  C   UNL     1      35.770 -18.554 -20.919  0.00  0.00    -0.044 C 
ATOM     20  C   UNL     1      35.196 -17.521 -21.128  0.00  0.00    -0.086 C 
ATOM     21  C   UNL     1      34.495 -16.263 -21.382  0.00  0.00    +0.090 C 
ENDBRANCH  18  19
ENDBRANCH  17  18
ENDBRANCH   6  17
TORSDOF 6
ENDMDL
MODEL 6
REMARK VINA RESULT:      -8.0      3.366      7.359
REMARK  Name = 9861547
REMARK  6 active torsions:
REMARK  status: ('A' for Active; 'I' for Inactive)
REMARK    1  A    between atoms: C_1  and  S_7
REMARK    2  A    between atoms: C_6  and  O_17
REMARK    3  A    between atoms: S_7  and  N_10
REMARK    4  A    between atoms: C_11  and  S_15
REMARK    5  A    between atoms: O_17  and  C_18
REMARK    6  A    between atoms: C_18  and  C_19
REMARK                            x       y       z     vdW  Elec       q    Type
REMARK                         _______ _______ _______ _____ _____    ______ ____
ROOT
ATOM      1  C   UNL     1      33.827 -21.695 -19.190  0.00  0.00    +0.122 C 
ATOM      2  C   UNL     1      32.809 -20.890 -19.672  0.00  0.00    +0.023 C 
ATOM      3  C   UNL     1      35.139 -21.530 -19.602  0.00  0.00    +0.023 C 
ATOM      4  C   UNL     1      33.111 -19.890 -20.595  0.00  0.00    +0.038 C 
ATOM      5  C   UNL     1      35.441 -20.528 -20.526  0.00  0.00    +0.038 C 
ATOM      6  C   UNL     1      34.426 -19.709 -21.023  0.00  0.00    +0.140 C 
ENDROOT
BRANCH   1   7
ATOM      7  S   UNL     1      33.444 -22.964 -18.020  0.00  0.00    +0.063 S 
ATOM      8  O   UNL     1      32.054 -22.793 -17.632  0.00  0.00    -0.153 OA
ATOM      9  O   UNL     1      33.901 -24.225 -18.574  0.00  0.00    -0.153 OA
BRANCH   7  10
ATOM     10  N   UNL     1      34.453 -22.511 -16.731  0.00  0.00    -0.155 NA
ATOM     11  C   UNL     1      35.452 -23.617 -14.837  0.00  0.00    +0.063 C 
ATOM     12  C   UNL     1      34.140 -23.047 -15.371  0.00  0.00    +0.106 C 
ATOM     13  C   UNL     1      36.501 -22.776 -15.550  0.00  0.00    +0.031 C 
ATOM     14  C   UNL     1      35.926 -22.581 -16.947  0.00  0.00    +0.097 C 
BRANCH  11  15
ATOM     15  S   UNL     1      35.624 -25.388 -15.249  0.00  0.00    -0.167 S 
ATOM     16  H   UNL     1      34.827 -25.686 -16.311  0.00  0.00    +0.102 HD
ENDBRANCH  11  15
ENDBRANCH   7  10
ENDBRANCH   1   7
BRANCH   6  17
ATOM     17  O   UNL     1      34.721 -18.731 -21.923  0.00  0.00    -0.461 OA
BRANCH  17  18
ATOM     18  C   UNL     1      35.448 -17.603 -21.441  0.00  0.00    +0.281 C 
BRANCH  18  19
ATOM     19  C   UNL     1      34.524 -16.509 -21.143  0.00  0.00    -0.044 C 
ATOM     20  C   UNL     1      33.766 -15.611 -20.900  0.00  0.00    -0.086 C 
ATOM     21  C   UNL     1      32.842 -14.516 -20.605  0.00  0.00    +0.090 C 
ENDBRANCH  18  19
ENDBRANCH  17  18
ENDBRANCH   6  17
TORSDOF 6
ENDMDL
MODEL 7
REMARK VINA RESULT:      -7.9      6.953      8.904
REMARK  Name = 9861547
REMARK  6 active torsions:
REMARK  status: ('A' for Active; 'I' for Inactive)
REMARK    1  A    between atoms: C_1  and  S_7
REMARK    2  A    between atoms: C_6  and  O_17
REMARK    3  A    between atoms: S_7  and  N_10
REMARK    4  A    between atoms: C_11  and  S_15
REMARK    5  A    between atoms: O_17  and  C_18
REMARK    6  A    between atoms: C_18  and  C_19
REMARK                            x       y       z     vdW  Elec       q    Type
REMARK                         _______ _______ _______ _____ _____    ______ ____
ROOT
ATOM      1  C   UNL     1      34.012 -24.063 -15.128  0.00  0.00    +0.122 C 
ATOM      2  C   UNL     1      33.370 -24.238 -13.914  0.00  0.00    +0.023 C 
ATOM      3  C   UNL     1      33.365 -23.501 -16.215  0.00  0.00    +0.023 C 
ATOM      4  C   UNL     1      32.041 -23.841 -13.783  0.00  0.00    +0.038 C 
ATOM      5  C   UNL     1      32.034 -23.102 -16.084  0.00  0.00    +0.038 C 
ATOM      6  C   UNL     1      31.372 -23.273 -14.867  0.00  0.00    +0.140 C 
ENDROOT
BRANCH   1   7
ATOM      7  S   UNL     1      35.698 -24.569 -15.294  0.00  0.00    +0.063 S 
ATOM      8  O   UNL     1      35.696 -25.955 -15.729  0.00  0.00    -0.153 OA
ATOM      9  O   UNL     1      36.385 -23.556 -16.074  0.00  0.00    -0.153 OA
BRANCH   7  10
ATOM     10  N   UNL     1      36.208 -24.482 -13.676  0.00  0.00    -0.155 NA
ATOM     11  C   UNL     1      38.113 -25.244 -12.412  0.00  0.00    +0.063 C 
ATOM     12  C   UNL     1      36.809 -25.705 -13.061  0.00  0.00    +0.106 C 
ATOM     13  C   UNL     1      37.829 -23.787 -12.080  0.00  0.00    +0.031 C 
ATOM     14  C   UNL     1      37.009 -23.294 -13.266  0.00  0.00    +0.097 C 
BRANCH  11  15
ATOM     15  S   UNL     1      39.521 -25.405 -13.565  0.00  0.00    -0.167 S 
ATOM     16  H   UNL     1      40.587 -24.714 -13.078  0.00  0.00    +0.102 HD
ENDBRANCH  11  15
ENDBRANCH   7  10
ENDBRANCH   1   7
BRANCH   6  17
ATOM     17  O   UNL     1      30.074 -22.883 -14.739  0.00  0.00    -0.461 OA
BRANCH  17  18
ATOM     18  C   UNL     1      29.082 -23.732 -15.312  0.00  0.00    +0.281 C 
BRANCH  18  19
ATOM     19  C   UNL     1      28.125 -22.929 -16.073  0.00  0.00    -0.044 C 
ATOM     20  C   UNL     1      27.339 -22.272 -16.698  0.00  0.00    -0.086 C 
ATOM     21  C   UNL     1      26.381 -21.471 -17.460  0.00  0.00    +0.090 C 
ENDBRANCH  18  19
ENDBRANCH  17  18
ENDBRANCH   6  17
TORSDOF 6
ENDMDL
MODEL 8
REMARK VINA RESULT:      -7.9      1.544      1.780
REMARK  Name = 9861547
REMARK  6 active torsions:
REMARK  status: ('A' for Active; 'I' for Inactive)
REMARK    1  A    between atoms: C_1  and  S_7
REMARK    2  A    between atoms: C_6  and  O_17
REMARK    3  A    between atoms: S_7  and  N_10
REMARK    4  A    between atoms: C_11  and  S_15
REMARK    5  A    between atoms: O_17  and  C_18
REMARK    6  A    between atoms: C_18  and  C_19
REMARK                            x       y       z     vdW  Elec       q    Type
REMARK                         _______ _______ _______ _____ _____    ______ ____
ROOT
ATOM      1  C   UNL     1      34.832 -19.343 -20.772  0.00  0.00    +0.122 C 
ATOM      2  C   UNL     1      33.452 -19.455 -20.786  0.00  0.00    +0.023 C 
ATOM      3  C   UNL     1      35.635 -20.349 -20.259  0.00  0.00    +0.023 C 
ATOM      4  C   UNL     1      32.856 -20.605 -20.270  0.00  0.00    +0.038 C 
ATOM      5  C   UNL     1      35.038 -21.500 -19.744  0.00  0.00    +0.038 C 
ATOM      6  C   UNL     1      33.648 -21.628 -19.749  0.00  0.00    +0.140 C 
ENDROOT
BRANCH   1   7
ATOM      7  S   UNL     1      35.586 -17.884 -21.425  0.00  0.00    +0.063 S 
ATOM      8  O   UNL     1      35.537 -16.868 -20.389  0.00  0.00    -0.153 OA
ATOM      9  O   UNL     1      36.856 -18.272 -22.012  0.00  0.00    -0.153 OA
BRANCH   7  10
ATOM     10  N   UNL     1      34.487 -17.492 -22.659  0.00  0.00    -0.155 NA
ATOM     11  C   UNL     1      33.408 -15.489 -23.452  0.00  0.00    +0.063 C 
ATOM     12  C   UNL     1      33.383 -16.536 -22.340  0.00  0.00    +0.106 C 
ATOM     13  C   UNL     1      33.983 -16.261 -24.630  0.00  0.00    +0.031 C 
ATOM     14  C   UNL     1      35.042 -17.156 -24.000  0.00  0.00    +0.097 C 
BRANCH  11  15
ATOM     15  S   UNL     1      34.467 -14.068 -23.004  0.00  0.00    -0.167 S 
ATOM     16  H   UNL     1      34.740 -14.109 -21.672  0.00  0.00    +0.102 HD
ENDBRANCH  11  15
ENDBRANCH   7  10
ENDBRANCH   1   7
BRANCH   6  17
ATOM     17  O   UNL     1      33.067 -22.751 -19.248  0.00  0.00    -0.461 OA
BRANCH  17  18
ATOM     18  C   UNL     1      33.462 -23.158 -17.939  0.00  0.00    +0.281 C 
BRANCH  18  19
ATOM     19  C   UNL     1      32.315 -23.096 -17.034  0.00  0.00    -0.044 C 
ATOM     20  C   UNL     1      31.372 -23.046 -16.294  0.00  0.00    -0.086 C 
ATOM     21  C   UNL     1      30.222 -22.985 -15.390  0.00  0.00    +0.090 C 
ENDBRANCH  18  19
ENDBRANCH  17  18
ENDBRANCH   6  17
TORSDOF 6
ENDMDL
MODEL 9
REMARK VINA RESULT:      -7.6      5.163      7.914
REMARK  Name = 9861547
REMARK  6 active torsions:
REMARK  status: ('A' for Active; 'I' for Inactive)
REMARK    1  A    between atoms: C_1  and  S_7
REMARK    2  A    between atoms: C_6  and  O_17
REMARK    3  A    between atoms: S_7  and  N_10
REMARK    4  A    between atoms: C_11  and  S_15
REMARK    5  A    between atoms: O_17  and  C_18
REMARK    6  A    between atoms: C_18  and  C_19
REMARK                            x       y       z     vdW  Elec       q    Type
REMARK                         _______ _______ _______ _____ _____    ______ ____
ROOT
ATOM      1  C   UNL     1      32.012 -12.501 -21.726  0.00  0.00    +0.122 C 
ATOM      2  C   UNL     1      32.378 -12.787 -23.030  0.00  0.00    +0.023 C 
ATOM      3  C   UNL     1      32.339 -13.349 -20.680  0.00  0.00    +0.023 C 
ATOM      4  C   UNL     1      33.090 -13.955 -23.298  0.00  0.00    +0.038 C 
ATOM      5  C   UNL     1      33.053 -14.517 -20.948  0.00  0.00    +0.038 C 
ATOM      6  C   UNL     1      33.428 -14.820 -22.258  0.00  0.00    +0.140 C 
ENDROOT
BRANCH   1   7
ATOM      7  S   UNL     1      31.108 -11.021 -21.387  0.00  0.00    +0.063 S 
ATOM      8  O   UNL     1      30.242 -10.769 -22.525  0.00  0.00    -0.153 OA
ATOM      9  O   UNL     1      30.550 -11.143 -20.053  0.00  0.00    -0.153 OA
BRANCH   7  10
ATOM     10  N   UNL     1      32.370  -9.884 -21.371  0.00  0.00    -0.155 NA
ATOM     11  C   UNL     1      32.810  -7.763 -22.427  0.00  0.00    +0.063 C 
ATOM     12  C   UNL     1      32.781  -9.270 -22.671  0.00  0.00    +0.106 C 
ATOM     13  C   UNL     1      33.118  -7.667 -20.939  0.00  0.00    +0.031 C 
ATOM     14  C   UNL     1      32.331  -8.820 -20.329  0.00  0.00    +0.097 C 
BRANCH  11  15
ATOM     15  S   UNL     1      31.202  -6.993 -22.827  0.00  0.00    -0.167 S 
ATOM     16  H   UNL     1      31.358  -6.134 -23.871  0.00  0.00    +0.102 HD
ENDBRANCH  11  15
ENDBRANCH   7  10
ENDBRANCH   1   7
BRANCH   6  17
ATOM     17  O   UNL     1      34.125 -15.959 -22.520  0.00  0.00    -0.461 OA
BRANCH  17  18
ATOM     18  C   UNL     1      34.814 -16.565 -21.427  0.00  0.00    +0.281 C 
BRANCH  18  19
ATOM     19  C   UNL     1      34.254 -17.891 -21.164  0.00  0.00    -0.044 C 
ATOM     20  C   UNL     1      33.794 -18.978 -20.950  0.00  0.00    -0.086 C 
ATOM     21  C   UNL     1      33.234 -20.304 -20.689  0.00  0.00    +0.090 C 
ENDBRANCH  18  19
ENDBRANCH  17  18
ENDBRANCH   6  17
TORSDOF 6
ENDMDL
