MODEL 1
REMARK VINA RESULT:      -7.1      0.000      0.000
REMARK  Name = 4369374
REMARK  2 active torsions:
REMARK  status: ('A' for Active; 'I' for Inactive)
REMARK    1  A    between atoms: C_5  and  N_13
REMARK    2  A    between atoms: C_6  and  N_14
REMARK                            x       y       z     vdW  Elec       q    Type
REMARK                         _______ _______ _______ _____ _____    ______ ____
ROOT
ATOM      1  O   UNL     1      39.772 -24.768 -13.521  0.00  0.00    -0.266 OA
ATOM      2  O   UNL     1      36.415 -26.835 -15.902  0.00  0.00    -0.247 OA
ATOM      3  N   UNL     1      35.906 -25.772 -13.928  0.00  0.00    -0.287 N 
ATOM      4  N   UNL     1      38.100 -25.802 -14.714  0.00  0.00    -0.273 N 
ATOM      5  C   UNL     1      36.303 -25.050 -12.837  0.00  0.00    +0.223 A 
ATOM      6  C   UNL     1      37.570 -24.664 -12.606  0.00  0.00    +0.138 A 
ATOM      7  C   UNL     1      38.586 -25.072 -13.639  0.00  0.00    +0.277 A 
ATOM      8  C   UNL     1      36.776 -26.185 -14.920  0.00  0.00    +0.328 A 
ATOM      9  H   UNL     1      34.953 -26.009 -14.011  0.00  0.00    +0.172 HD
ATOM     10  H   UNL     1      38.754 -26.077 -15.397  0.00  0.00    +0.173 HD
ENDROOT
BRANCH   5  13
ATOM     11  O   UNL     1      34.478 -23.852 -12.204  0.00  0.00    -0.125 OA
ATOM     12  O   UNL     1      35.458 -25.161 -10.730  0.00  0.00    -0.125 OA
ATOM     13  N   UNL     1      35.345 -24.660 -11.854  0.00  0.00    +0.075 N 
ENDBRANCH   5  13
BRANCH   6  14
ATOM     14  N   UNL     1      38.075 -23.947 -11.559  0.00  0.00    -0.351 N 
ATOM     15  H   UNL     1      37.474 -23.621 -10.850  0.00  0.00    +0.143 HD
ATOM     16  H   UNL     1      39.039 -23.755 -11.513  0.00  0.00    +0.143 HD
ENDBRANCH   6  14
TORSDOF 2
ENDMDL
MODEL 2
REMARK VINA RESULT:      -7.1      1.791      2.829
REMARK  Name = 4369374
REMARK  2 active torsions:
REMARK  status: ('A' for Active; 'I' for Inactive)
REMARK    1  A    between atoms: C_5  and  N_13
REMARK    2  A    between atoms: C_6  and  N_14
REMARK                            x       y       z     vdW  Elec       q    Type
REMARK                         _______ _______ _______ _____ _____    ______ ____
ROOT
ATOM      1  O   UNL     1      35.652 -24.668 -15.806  0.00  0.00    -0.266 OA
ATOM      2  O   UNL     1      39.641 -26.689 -14.707  0.00  0.00    -0.247 OA
ATOM      3  N   UNL     1      38.691 -25.200 -13.236  0.00  0.00    -0.287 N 
ATOM      4  N   UNL     1      37.643 -25.680 -15.263  0.00  0.00    -0.273 N 
ATOM      5  C   UNL     1      37.680 -24.338 -12.915  0.00  0.00    +0.223 A 
ATOM      6  C   UNL     1      36.619 -24.089 -13.702  0.00  0.00    +0.138 A 
ATOM      7  C   UNL     1      36.579 -24.826 -15.014  0.00  0.00    +0.277 A 
ATOM      8  C   UNL     1      38.729 -25.914 -14.420  0.00  0.00    +0.328 A 
ATOM      9  H   UNL     1      39.428 -25.317 -12.594  0.00  0.00    +0.172 HD
ATOM     10  H   UNL     1      37.631 -26.168 -16.118  0.00  0.00    +0.173 HD
ENDROOT
BRANCH   5  13
ATOM     11  O   UNL     1      38.376 -22.596 -11.631  0.00  0.00    -0.125 OA
ATOM     12  O   UNL     1      37.069 -24.124 -10.736  0.00  0.00    -0.125 OA
ATOM     13  N   UNL     1      37.711 -23.636 -11.672  0.00  0.00    +0.075 N 
ENDBRANCH   5  13
BRANCH   6  14
ATOM     14  N   UNL     1      35.560 -23.255 -13.482  0.00  0.00    -0.351 N 
ATOM     15  H   UNL     1      34.939 -23.044 -14.217  0.00  0.00    +0.143 HD
ATOM     16  H   UNL     1      35.417 -22.865 -12.591  0.00  0.00    +0.143 HD
ENDBRANCH   6  14
TORSDOF 2
ENDMDL
MODEL 3
REMARK VINA RESULT:      -7.1      1.477      3.041
REMARK  Name = 4369374
REMARK  2 active torsions:
REMARK  status: ('A' for Active; 'I' for Inactive)
REMARK    1  A    between atoms: C_5  and  N_13
REMARK    2  A    between atoms: C_6  and  N_14
REMARK                            x       y       z     vdW  Elec       q    Type
REMARK                         _______ _______ _______ _____ _____    ______ ____
ROOT
ATOM      1  O   UNL     1      36.276 -26.396 -15.573  0.00  0.00    -0.266 OA
ATOM      2  O   UNL     1      40.802 -25.850 -14.919  0.00  0.00    -0.247 OA
ATOM      3  N   UNL     1      39.328 -24.965 -13.393  0.00  0.00    -0.287 N 
ATOM      4  N   UNL     1      38.536 -26.127 -15.252  0.00  0.00    -0.273 N 
ATOM      5  C   UNL     1      38.044 -24.751 -12.976  0.00  0.00    +0.223 A 
ATOM      6  C   UNL     1      36.954 -25.187 -13.631  0.00  0.00    +0.138 A 
ATOM      7  C   UNL     1      37.205 -25.955 -14.900  0.00  0.00    +0.277 A 
ATOM      8  C   UNL     1      39.644 -25.660 -14.546  0.00  0.00    +0.328 A 
ATOM      9  H   UNL     1      40.064 -24.606 -12.845  0.00  0.00    +0.172 HD
ATOM     10  H   UNL     1      38.716 -26.627 -16.081  0.00  0.00    +0.173 HD
ENDROOT
BRANCH   5  13
ATOM     11  O   UNL     1      37.088 -24.569 -10.921  0.00  0.00    -0.125 OA
ATOM     12  O   UNL     1      38.314 -22.904 -11.678  0.00  0.00    -0.125 OA
ATOM     13  N   UNL     1      37.797 -24.023 -11.772  0.00  0.00    +0.075 N 
ENDBRANCH   5  13
BRANCH   6  14
ATOM     14  N   UNL     1      35.635 -25.032 -13.308  0.00  0.00    -0.351 N 
ATOM     15  H   UNL     1      34.937 -25.338 -13.931  0.00  0.00    +0.143 HD
ATOM     16  H   UNL     1      35.383 -24.615 -12.454  0.00  0.00    +0.143 HD
ENDBRANCH   6  14
TORSDOF 2
ENDMDL
MODEL 4
REMARK VINA RESULT:      -7.0      2.122      4.361
REMARK  Name = 4369374
REMARK  2 active torsions:
REMARK  status: ('A' for Active; 'I' for Inactive)
REMARK    1  A    between atoms: C_5  and  N_13
REMARK    2  A    between atoms: C_6  and  N_14
REMARK                            x       y       z     vdW  Elec       q    Type
REMARK                         _______ _______ _______ _____ _____    ______ ____
ROOT
ATOM      1  O   UNL     1      35.934 -23.383 -14.896  0.00  0.00    -0.266 OA
ATOM      2  O   UNL     1      36.998 -26.672 -11.855  0.00  0.00    -0.247 OA
ATOM      3  N   UNL     1      38.586 -25.978 -13.364  0.00  0.00    -0.287 N 
ATOM      4  N   UNL     1      36.459 -25.024 -13.375  0.00  0.00    -0.273 N 
ATOM      5  C   UNL     1      38.955 -25.175 -14.408  0.00  0.00    +0.223 A 
ATOM      6  C   UNL     1      38.145 -24.275 -14.992  0.00  0.00    +0.138 A 
ATOM      7  C   UNL     1      36.751 -24.175 -14.432  0.00  0.00    +0.277 A 
ATOM      8  C   UNL     1      37.327 -25.948 -12.794  0.00  0.00    +0.328 A 
ATOM      9  H   UNL     1      39.250 -26.609 -13.002  0.00  0.00    +0.172 HD
ATOM     10  H   UNL     1      35.550 -24.971 -13.000  0.00  0.00    +0.173 HD
ENDROOT
BRANCH   5  13
ATOM     11  O   UNL     1      40.449 -26.051 -15.880  0.00  0.00    -0.125 OA
ATOM     12  O   UNL     1      41.139 -24.548 -14.427  0.00  0.00    -0.125 OA
ATOM     13  N   UNL     1      40.275 -25.265 -14.943  0.00  0.00    +0.075 N 
ENDBRANCH   5  13
BRANCH   6  14
ATOM     14  N   UNL     1      38.406 -23.428 -16.031  0.00  0.00    -0.351 N 
ATOM     15  H   UNL     1      38.607 -23.791 -16.924  0.00  0.00    +0.143 HD
ATOM     16  H   UNL     1      38.394 -22.455 -15.888  0.00  0.00    +0.143 HD
ENDBRANCH   6  14
TORSDOF 2
ENDMDL
MODEL 5
REMARK VINA RESULT:      -6.9      1.748      3.512
REMARK  Name = 4369374
REMARK  2 active torsions:
REMARK  status: ('A' for Active; 'I' for Inactive)
REMARK    1  A    between atoms: C_5  and  N_13
REMARK    2  A    between atoms: C_6  and  N_14
REMARK                            x       y       z     vdW  Elec       q    Type
REMARK                         _______ _______ _______ _____ _____    ______ ____
ROOT
ATOM      1  O   UNL     1      37.956 -24.545 -11.416  0.00  0.00    -0.266 OA
ATOM      2  O   UNL     1      40.994 -25.394 -14.772  0.00  0.00    -0.247 OA
ATOM      3  N   UNL     1      38.760 -25.786 -15.149  0.00  0.00    -0.287 N 
ATOM      4  N   UNL     1      39.477 -24.967 -13.088  0.00  0.00    -0.273 N 
ATOM      5  C   UNL     1      37.467 -25.776 -14.706  0.00  0.00    +0.223 A 
ATOM      6  C   UNL     1      37.091 -25.381 -13.478  0.00  0.00    +0.138 A 
ATOM      7  C   UNL     1      38.194 -24.926 -12.561  0.00  0.00    +0.277 A 
ATOM      8  C   UNL     1      39.830 -25.384 -14.370  0.00  0.00    +0.328 A 
ATOM      9  H   UNL     1      38.938 -26.093 -16.068  0.00  0.00    +0.172 HD
ATOM     10  H   UNL     1      40.209 -24.673 -12.498  0.00  0.00    +0.173 HD
ENDROOT
BRANCH   5  13
ATOM     11  O   UNL     1      36.549 -27.308 -16.113  0.00  0.00    -0.125 OA
ATOM     12  O   UNL     1      35.454 -25.441 -15.707  0.00  0.00    -0.125 OA
ATOM     13  N   UNL     1      36.415 -26.206 -15.571  0.00  0.00    +0.075 N 
ENDBRANCH   5  13
BRANCH   6  14
ATOM     14  N   UNL     1      35.839 -25.331 -12.934  0.00  0.00    -0.351 N 
ATOM     15  H   UNL     1      35.378 -24.466 -12.839  0.00  0.00    +0.143 HD
ATOM     16  H   UNL     1      35.398 -26.158 -12.637  0.00  0.00    +0.143 HD
ENDBRANCH   6  14
TORSDOF 2
ENDMDL
MODEL 6
REMARK VINA RESULT:      -6.9      2.215      3.527
REMARK  Name = 4369374
REMARK  2 active torsions:
REMARK  status: ('A' for Active; 'I' for Inactive)
REMARK    1  A    between atoms: C_5  and  N_13
REMARK    2  A    between atoms: C_6  and  N_14
REMARK                            x       y       z     vdW  Elec       q    Type
REMARK                         _______ _______ _______ _____ _____    ______ ____
ROOT
ATOM      1  O   UNL     1      37.190 -26.528 -12.044  0.00  0.00    -0.266 OA
ATOM      2  O   UNL     1      40.823 -25.638 -14.730  0.00  0.00    -0.247 OA
ATOM      3  N   UNL     1      38.814 -24.615 -15.178  0.00  0.00    -0.287 N 
ATOM      4  N   UNL     1      39.007 -26.087 -13.381  0.00  0.00    -0.273 N 
ATOM      5  C   UNL     1      37.496 -24.412 -14.874  0.00  0.00    +0.223 A 
ATOM      6  C   UNL     1      36.857 -25.002 -13.849  0.00  0.00    +0.138 A 
ATOM      7  C   UNL     1      37.680 -25.938 -13.005  0.00  0.00    +0.277 A 
ATOM      8  C   UNL     1      39.637 -25.458 -14.454  0.00  0.00    +0.328 A 
ATOM      9  H   UNL     1      39.195 -24.137 -15.950  0.00  0.00    +0.172 HD
ATOM     10  H   UNL     1      39.557 -26.698 -12.839  0.00  0.00    +0.173 HD
ENDROOT
BRANCH   5  13
ATOM     11  O   UNL     1      35.649 -23.968 -16.123  0.00  0.00    -0.125 OA
ATOM     12  O   UNL     1      37.153 -22.385 -15.842  0.00  0.00    -0.125 OA
ATOM     13  N   UNL     1      36.710 -23.525 -15.670  0.00  0.00    +0.075 N 
ENDBRANCH   5  13
BRANCH   6  14
ATOM     14  N   UNL     1      35.555 -24.874 -13.457  0.00  0.00    -0.351 N 
ATOM     15  H   UNL     1      34.882 -24.535 -14.090  0.00  0.00    +0.143 HD
ATOM     16  H   UNL     1      35.290 -25.119 -12.542  0.00  0.00    +0.143 HD
ENDBRANCH   6  14
TORSDOF 2
ENDMDL
MODEL 7
REMARK VINA RESULT:      -6.8      1.389      3.767
REMARK  Name = 4369374
REMARK  2 active torsions:
REMARK  status: ('A' for Active; 'I' for Inactive)
REMARK    1  A    between atoms: C_5  and  N_13
REMARK    2  A    between atoms: C_6  and  N_14
REMARK                            x       y       z     vdW  Elec       q    Type
REMARK                         _______ _______ _______ _____ _____    ______ ____
ROOT
ATOM      1  O   UNL     1      36.027 -24.651 -12.553  0.00  0.00    -0.266 OA
ATOM      2  O   UNL     1      36.489 -27.366 -16.244  0.00  0.00    -0.247 OA
ATOM      3  N   UNL     1      38.369 -26.532 -15.218  0.00  0.00    -0.287 N 
ATOM      4  N   UNL     1      36.252 -26.007 -14.396  0.00  0.00    -0.273 N 
ATOM      5  C   UNL     1      38.942 -25.779 -14.230  0.00  0.00    +0.223 A 
ATOM      6  C   UNL     1      38.250 -25.111 -13.291  0.00  0.00    +0.138 A 
ATOM      7  C   UNL     1      36.751 -25.224 -13.366  0.00  0.00    +0.277 A 
ATOM      8  C   UNL     1      37.002 -26.687 -15.354  0.00  0.00    +0.328 A 
ATOM      9  H   UNL     1      38.960 -26.987 -15.862  0.00  0.00    +0.172 HD
ATOM     10  H   UNL     1      35.273 -26.090 -14.458  0.00  0.00    +0.173 HD
ENDROOT
BRANCH   5  13
ATOM     11  O   UNL     1      40.996 -26.699 -13.909  0.00  0.00    -0.125 OA
ATOM     12  O   UNL     1      40.848 -24.546 -14.340  0.00  0.00    -0.125 OA
ATOM     13  N   UNL     1      40.363 -25.667 -14.154  0.00  0.00    +0.075 N 
ENDBRANCH   5  13
BRANCH   6  14
ATOM     14  N   UNL     1      38.715 -24.335 -12.268  0.00  0.00    -0.351 N 
ATOM     15  H   UNL     1      38.135 -23.646 -11.870  0.00  0.00    +0.143 HD
ATOM     16  H   UNL     1      39.629 -24.464 -11.928  0.00  0.00    +0.143 HD
ENDBRANCH   6  14
TORSDOF 2
ENDMDL
MODEL 8
REMARK VINA RESULT:      -6.7      1.403      3.520
REMARK  Name = 4369374
REMARK  2 active torsions:
REMARK  status: ('A' for Active; 'I' for Inactive)
REMARK    1  A    between atoms: C_5  and  N_13
REMARK    2  A    between atoms: C_6  and  N_14
REMARK                            x       y       z     vdW  Elec       q    Type
REMARK                         _______ _______ _______ _____ _____    ______ ____
ROOT
ATOM      1  O   UNL     1      38.763 -23.319 -11.705  0.00  0.00    -0.266 OA
ATOM      2  O   UNL     1      34.227 -23.961 -12.170  0.00  0.00    -0.247 OA
ATOM      3  N   UNL     1      35.677 -25.221 -13.432  0.00  0.00    -0.287 N 
ATOM      4  N   UNL     1      36.497 -23.635 -11.933  0.00  0.00    -0.273 N 
ATOM      5  C   UNL     1      36.956 -25.548 -13.790  0.00  0.00    +0.223 A 
ATOM      6  C   UNL     1      38.056 -24.973 -13.274  0.00  0.00    +0.138 A 
ATOM      7  C   UNL     1      37.823 -23.906 -12.238  0.00  0.00    +0.277 A 
ATOM      8  C   UNL     1      35.379 -24.253 -12.490  0.00  0.00    +0.328 A 
ATOM      9  H   UNL     1      34.933 -25.698 -13.867  0.00  0.00    +0.172 HD
ATOM     10  H   UNL     1      36.330 -22.938 -11.258  0.00  0.00    +0.173 HD
ENDROOT
BRANCH   5  13
ATOM     11  O   UNL     1      38.141 -27.319 -14.583  0.00  0.00    -0.125 OA
ATOM     12  O   UNL     1      36.407 -26.594 -15.731  0.00  0.00    -0.125 OA
ATOM     13  N   UNL     1      37.185 -26.559 -14.771  0.00  0.00    +0.075 N 
ENDBRANCH   5  13
BRANCH   6  14
ATOM     14  N   UNL     1      39.370 -25.219 -13.555  0.00  0.00    -0.351 N 
ATOM     15  H   UNL     1      39.849 -25.936 -13.079  0.00  0.00    +0.143 HD
ATOM     16  H   UNL     1      39.837 -24.681 -14.233  0.00  0.00    +0.143 HD
ENDBRANCH   6  14
TORSDOF 2
ENDMDL
MODEL 9
REMARK VINA RESULT:      -6.6      2.013      3.559
REMARK  Name = 4369374
REMARK  2 active torsions:
REMARK  status: ('A' for Active; 'I' for Inactive)
REMARK    1  A    between atoms: C_5  and  N_13
REMARK    2  A    between atoms: C_6  and  N_14
REMARK                            x       y       z     vdW  Elec       q    Type
REMARK                         _______ _______ _______ _____ _____    ______ ____
ROOT
ATOM      1  O   UNL     1      38.289 -22.288 -12.034  0.00  0.00    -0.266 OA
ATOM      2  O   UNL     1      35.190 -25.108 -10.124  0.00  0.00    -0.247 OA
ATOM      3  N   UNL     1      35.269 -24.907 -12.412  0.00  0.00    -0.287 N 
ATOM      4  N   UNL     1      36.744 -23.694 -11.075  0.00  0.00    -0.273 N 
ATOM      5  C   UNL     1      35.827 -24.355 -13.532  0.00  0.00    +0.223 A 
ATOM      6  C   UNL     1      36.839 -23.471 -13.516  0.00  0.00    +0.138 A 
ATOM      7  C   UNL     1      37.364 -23.089 -12.158  0.00  0.00    +0.277 A 
ATOM      8  C   UNL     1      35.694 -24.610 -11.130  0.00  0.00    +0.328 A 
ATOM      9  H   UNL     1      34.529 -25.548 -12.525  0.00  0.00    +0.172 HD
ATOM     10  H   UNL     1      37.076 -23.453 -10.180  0.00  0.00    +0.173 HD
ENDROOT
BRANCH   5  13
ATOM     11  O   UNL     1      34.390 -24.050 -15.267  0.00  0.00    -0.125 OA
ATOM     12  O   UNL     1      35.890 -25.657 -15.394  0.00  0.00    -0.125 OA
ATOM     13  N   UNL     1      35.334 -24.713 -14.823  0.00  0.00    +0.075 N 
ENDBRANCH   5  13
BRANCH   6  14
ATOM     14  N   UNL     1      37.468 -22.861 -14.564  0.00  0.00    -0.351 N 
ATOM     15  H   UNL     1      37.094 -22.935 -15.472  0.00  0.00    +0.143 HD
ATOM     16  H   UNL     1      38.293 -22.348 -14.412  0.00  0.00    +0.143 HD
ENDBRANCH   6  14
TORSDOF 2
ENDMDL
