MODEL 1
REMARK VINA RESULT:      -9.4      0.000      0.000
REMARK  Name = 22850133
REMARK  12 active torsions:
REMARK  status: ('A' for Active; 'I' for Inactive)
REMARK    1  A    between atoms: C_1  and  C_8
REMARK    2  A    between atoms: C_1  and  N_20
REMARK    3  A    between atoms: C_1  and  C_33
REMARK    4  A    between atoms: C_4  and  C_10
REMARK    5  A    between atoms: C_10  and  O_11
REMARK    6  A    between atoms: O_11  and  C_12
REMARK    7  A    between atoms: C_12  and  C_13
REMARK    8  A    between atoms: C_21  and  C_24
REMARK    9  A    between atoms: C_25  and  C_28
REMARK   10  A    between atoms: N_27  and  C_30
REMARK   11  A    between atoms: C_30  and  C_31
REMARK   12  A    between atoms: C_33  and  C_35
REMARK                            x       y       z     vdW  Elec       q    Type
REMARK                         _______ _______ _______ _____ _____    ______ ____
ROOT
ATOM      1  C   UNL     1      33.480 -14.402 -24.366  0.00  0.00    +0.149 C 
ENDROOT
BRANCH   1   8
ATOM      2  O   UNL     1      35.488 -15.610 -23.945  0.00  0.00    -0.273 OA
ATOM      3  N   UNL     1      33.940 -15.502 -22.228  0.00  0.00    -0.270 N 
ATOM      4  C   UNL     1      34.770 -16.143 -21.215  0.00  0.00    +0.175 C 
ATOM      5  C   UNL     1      34.072 -15.840 -19.895  0.00  0.00    +0.033 C 
ATOM      6  C   UNL     1      32.665 -15.066 -21.665  0.00  0.00    +0.094 C 
ATOM      7  C   UNL     1      32.603 -15.715 -20.290  0.00  0.00    +0.024 C 
ATOM      8  C   UNL     1      34.405 -15.224 -23.503  0.00  0.00    +0.244 C 
BRANCH   4  10
ATOM      9  O   UNL     1      34.132 -18.131 -22.414  0.00  0.00    -0.248 OA
ATOM     10  C   UNL     1      34.781 -17.611 -21.516  0.00  0.00    +0.336 C 
BRANCH  10  11
ATOM     11  O   UNL     1      35.610 -18.250 -20.642  0.00  0.00    -0.442 OA
BRANCH  11  12
ATOM     12  C   UNL     1      36.019 -19.564 -21.033  0.00  0.00    +0.235 C 
BRANCH  12  13
ATOM     13  C   UNL     1      35.402 -20.565 -20.101  0.00  0.00    +0.021 C 
ATOM     14  C   UNL     1      34.037 -20.822 -20.174  0.00  0.00    -0.001 C 
ATOM     15  C   UNL     1      36.199 -21.226 -19.173  0.00  0.00    -0.001 C 
ATOM     16  C   UNL     1      33.463 -21.753 -19.308  0.00  0.00    -0.000 C 
ATOM     17  C   UNL     1      35.624 -22.157 -18.308  0.00  0.00    -0.000 C 
ATOM     18  C   UNL     1      34.256 -22.420 -18.376  0.00  0.00    -0.000 C 
ENDBRANCH  12  13
ENDBRANCH  11  12
ENDBRANCH  10  11
ENDBRANCH   4  10
ENDBRANCH   1   8
BRANCH   1  20
ATOM     19  O   UNL     1      31.961 -12.370 -22.956  0.00  0.00    -0.272 OA
ATOM     20  N   UNL     1      33.847 -13.033 -24.151  0.00  0.00    -0.296 N 
ATOM     21  C   UNL     1      33.054 -12.124 -23.461  0.00  0.00    +0.253 C 
ATOM     22  H   UNL     1      34.708 -12.719 -24.513  0.00  0.00    +0.150 HD
BRANCH  21  24
ATOM     23  O   UNL     1      34.232 -10.341 -24.598  0.00  0.00    -0.335 OA
ATOM     24  C   UNL     1      33.687 -10.762 -23.358  0.00  0.00    +0.227 C 
ATOM     25  C   UNL     1      33.083  -9.638 -24.111  0.00  0.00    +0.227 C 
BRANCH  25  28
ATOM     26  O   UNL     1      34.480  -7.752 -23.883  0.00  0.00    -0.272 OA
ATOM     27  N   UNL     1      32.306  -7.665 -23.059  0.00  0.00    -0.302 N 
ATOM     28  C   UNL     1      33.381  -8.264 -23.692  0.00  0.00    +0.253 C 
ATOM     29  H   UNL     1      31.471  -8.179 -22.964  0.00  0.00    +0.150 HD
BRANCH  27  30
ATOM     30  C   UNL     1      32.348  -6.321 -22.529  0.00  0.00    +0.089 C 
BRANCH  30  31
ATOM     31  C   UNL     1      31.981  -6.267 -21.052  0.00  0.00    +0.021 C 
ATOM     32  C   UNL     1      32.501  -7.468 -20.273  0.00  0.00    +0.002 C 
ENDBRANCH  30  31
ENDBRANCH  27  30
ENDBRANCH  25  28
ENDBRANCH  21  24
ENDBRANCH   1  20
BRANCH   1  33
ATOM     33  C   UNL     1      33.532 -14.850 -25.837  0.00  0.00    +0.027 C 
ATOM     34  C   UNL     1      33.092 -16.316 -25.943  0.00  0.00    +0.002 C 
BRANCH  33  35
ATOM     35  C   UNL     1      32.701 -13.942 -26.771  0.00  0.00    +0.002 C 
ATOM     36  C   UNL     1      33.515 -12.829 -27.419  0.00  0.00    +0.000 C 
ENDBRANCH  33  35
ENDBRANCH   1  33
TORSDOF 12
ENDMDL
MODEL 2
REMARK VINA RESULT:      -8.6      3.431      7.113
REMARK  Name = 22850133
REMARK  12 active torsions:
REMARK  status: ('A' for Active; 'I' for Inactive)
REMARK    1  A    between atoms: C_1  and  C_8
REMARK    2  A    between atoms: C_1  and  N_20
REMARK    3  A    between atoms: C_1  and  C_33
REMARK    4  A    between atoms: C_4  and  C_10
REMARK    5  A    between atoms: C_10  and  O_11
REMARK    6  A    between atoms: O_11  and  C_12
REMARK    7  A    between atoms: C_12  and  C_13
REMARK    8  A    between atoms: C_21  and  C_24
REMARK    9  A    between atoms: C_25  and  C_28
REMARK   10  A    between atoms: N_27  and  C_30
REMARK   11  A    between atoms: C_30  and  C_31
REMARK   12  A    between atoms: C_33  and  C_35
REMARK                            x       y       z     vdW  Elec       q    Type
REMARK                         _______ _______ _______ _____ _____    ______ ____
ROOT
ATOM      1  C   UNL     1      32.824  -8.076 -22.307  0.00  0.00    +0.149 C 
ENDROOT
BRANCH   1   8
ATOM      2  O   UNL     1      31.380  -9.901 -22.810  0.00  0.00    -0.273 OA
ATOM      3  N   UNL     1      33.476  -9.910 -23.792  0.00  0.00    -0.270 N 
ATOM      4  C   UNL     1      33.253 -11.070 -24.647  0.00  0.00    +0.175 C 
ATOM      5  C   UNL     1      34.392 -11.030 -25.659  0.00  0.00    +0.033 C 
ATOM      6  C   UNL     1      34.791  -9.325 -24.032  0.00  0.00    +0.094 C 
ATOM      7  C   UNL     1      35.522 -10.344 -24.894  0.00  0.00    +0.024 C 
ATOM      8  C   UNL     1      32.480  -9.377 -22.990  0.00  0.00    +0.244 C 
BRANCH   4  10
ATOM      9  O   UNL     1      32.828 -12.358 -22.657  0.00  0.00    -0.248 OA
ATOM     10  C   UNL     1      33.328 -12.285 -23.772  0.00  0.00    +0.336 C 
BRANCH  10  11
ATOM     11  O   UNL     1      34.029 -13.265 -24.411  0.00  0.00    -0.442 OA
BRANCH  11  12
ATOM     12  C   UNL     1      33.261 -14.398 -24.827  0.00  0.00    +0.235 C 
BRANCH  12  13
ATOM     13  C   UNL     1      33.958 -15.651 -24.384  0.00  0.00    +0.021 C 
ATOM     14  C   UNL     1      34.508 -15.717 -23.108  0.00  0.00    -0.001 C 
ATOM     15  C   UNL     1      34.049 -16.733 -25.251  0.00  0.00    -0.001 C 
ATOM     16  C   UNL     1      35.157 -16.881 -22.695  0.00  0.00    -0.000 C 
ATOM     17  C   UNL     1      34.698 -17.897 -24.839  0.00  0.00    -0.000 C 
ATOM     18  C   UNL     1      35.251 -17.970 -23.561  0.00  0.00    -0.000 C 
ENDBRANCH  12  13
ENDBRANCH  11  12
ENDBRANCH  10  11
ENDBRANCH   4  10
ENDBRANCH   1   8
BRANCH   1  20
ATOM     19  O   UNL     1      33.523  -6.318 -24.509  0.00  0.00    -0.272 OA
ATOM     20  N   UNL     1      31.999  -7.076 -22.918  0.00  0.00    -0.296 N 
ATOM     21  C   UNL     1      32.418  -6.274 -23.974  0.00  0.00    +0.253 C 
ATOM     22  H   UNL     1      31.087  -6.949 -22.571  0.00  0.00    +0.150 HD
BRANCH  21  24
ATOM     23  O   UNL     1      30.781  -4.598 -23.364  0.00  0.00    -0.335 OA
ATOM     24  C   UNL     1      31.347  -5.325 -24.442  0.00  0.00    +0.227 C 
ATOM     25  C   UNL     1      31.578  -3.868 -24.304  0.00  0.00    +0.227 C 
BRANCH  25  28
ATOM     26  O   UNL     1      29.740  -2.455 -24.737  0.00  0.00    -0.272 OA
ATOM     27  N   UNL     1      31.369  -2.739 -26.375  0.00  0.00    -0.302 N 
ATOM     28  C   UNL     1      30.793  -2.946 -25.133  0.00  0.00    +0.253 C 
ATOM     29  H   UNL     1      32.220  -3.191 -26.579  0.00  0.00    +0.150 HD
BRANCH  27  30
ATOM     30  C   UNL     1      30.782  -1.891 -27.388  0.00  0.00    +0.089 C 
BRANCH  30  31
ATOM     31  C   UNL     1      31.248  -2.256 -28.792  0.00  0.00    +0.021 C 
ATOM     32  C   UNL     1      32.038  -3.558 -28.829  0.00  0.00    +0.002 C 
ENDBRANCH  30  31
ENDBRANCH  27  30
ENDBRANCH  25  28
ENDBRANCH  21  24
ENDBRANCH   1  20
BRANCH   1  33
ATOM     33  C   UNL     1      32.671  -8.181 -20.780  0.00  0.00    +0.027 C 
ATOM     34  C   UNL     1      32.287  -6.811 -20.207  0.00  0.00    +0.002 C 
BRANCH  33  35
ATOM     35  C   UNL     1      31.667  -9.275 -20.351  0.00  0.00    +0.002 C 
ATOM     36  C   UNL     1      32.176 -10.157 -19.218  0.00  0.00    +0.000 C 
ENDBRANCH  33  35
ENDBRANCH   1  33
TORSDOF 12
ENDMDL
MODEL 3
REMARK VINA RESULT:      -8.6      1.545      2.046
REMARK  Name = 22850133
REMARK  12 active torsions:
REMARK  status: ('A' for Active; 'I' for Inactive)
REMARK    1  A    between atoms: C_1  and  C_8
REMARK    2  A    between atoms: C_1  and  N_20
REMARK    3  A    between atoms: C_1  and  C_33
REMARK    4  A    between atoms: C_4  and  C_10
REMARK    5  A    between atoms: C_10  and  O_11
REMARK    6  A    between atoms: O_11  and  C_12
REMARK    7  A    between atoms: C_12  and  C_13
REMARK    8  A    between atoms: C_21  and  C_24
REMARK    9  A    between atoms: C_25  and  C_28
REMARK   10  A    between atoms: N_27  and  C_30
REMARK   11  A    between atoms: C_30  and  C_31
REMARK   12  A    between atoms: C_33  and  C_35
REMARK                            x       y       z     vdW  Elec       q    Type
REMARK                         _______ _______ _______ _____ _____    ______ ____
ROOT
ATOM      1  C   UNL     1      32.674 -12.996 -23.659  0.00  0.00    +0.149 C 
ENDROOT
BRANCH   1   8
ATOM      2  O   UNL     1      34.947 -13.701 -23.590  0.00  0.00    -0.273 OA
ATOM      3  N   UNL     1      33.515 -14.599 -22.010  0.00  0.00    -0.270 N 
ATOM      4  C   UNL     1      34.535 -15.304 -21.243  0.00  0.00    +0.175 C 
ATOM      5  C   UNL     1      33.850 -15.666 -19.930  0.00  0.00    +0.033 C 
ATOM      6  C   UNL     1      32.201 -14.733 -21.387  0.00  0.00    +0.094 C 
ATOM      7  C   UNL     1      32.381 -15.805 -20.322  0.00  0.00    +0.024 C 
ATOM      8  C   UNL     1      33.825 -13.789 -23.091  0.00  0.00    +0.244 C 
BRANCH   4  10
ATOM      9  O   UNL     1      35.220 -16.506 -23.213  0.00  0.00    -0.248 OA
ATOM     10  C   UNL     1      34.914 -16.522 -22.028  0.00  0.00    +0.336 C 
BRANCH  10  11
ATOM     11  O   UNL     1      34.859 -17.620 -21.221  0.00  0.00    -0.442 OA
BRANCH  11  12
ATOM     12  C   UNL     1      34.492 -18.842 -21.870  0.00  0.00    +0.235 C 
BRANCH  12  13
ATOM     13  C   UNL     1      34.530 -19.958 -20.868  0.00  0.00    +0.021 C 
ATOM     14  C   UNL     1      33.342 -20.447 -20.337  0.00  0.00    -0.001 C 
ATOM     15  C   UNL     1      35.753 -20.494 -20.479  0.00  0.00    -0.001 C 
ATOM     16  C   UNL     1      33.377 -21.485 -19.405  0.00  0.00    -0.000 C 
ATOM     17  C   UNL     1      35.788 -21.532 -19.547  0.00  0.00    -0.000 C 
ATOM     18  C   UNL     1      34.599 -22.026 -19.011  0.00  0.00    -0.000 C 
ENDBRANCH  12  13
ENDBRANCH  11  12
ENDBRANCH  10  11
ENDBRANCH   4  10
ENDBRANCH   1   8
BRANCH   1  20
ATOM     19  O   UNL     1      30.831 -11.486 -22.002  0.00  0.00    -0.272 OA
ATOM     20  N   UNL     1      32.836 -11.657 -23.174  0.00  0.00    -0.296 N 
ATOM     21  C   UNL     1      31.897 -11.008 -22.381  0.00  0.00    +0.253 C 
ATOM     22  H   UNL     1      33.657 -11.170 -23.416  0.00  0.00    +0.150 HD
BRANCH  21  24
ATOM     23  O   UNL     1      33.333  -9.118 -22.856  0.00  0.00    -0.335 OA
ATOM     24  C   UNL     1      32.327  -9.619 -21.991  0.00  0.00    +0.227 C 
ATOM     25  C   UNL     1      32.042  -8.499 -22.919  0.00  0.00    +0.227 C 
BRANCH  25  28
ATOM     26  O   UNL     1      33.001  -6.652 -21.808  0.00  0.00    -0.272 OA
ATOM     27  N   UNL     1      30.824  -6.491 -22.615  0.00  0.00    -0.302 N 
ATOM     28  C   UNL     1      32.032  -7.129 -22.392  0.00  0.00    +0.253 C 
ATOM     29  H   UNL     1      30.118  -6.979 -23.096  0.00  0.00    +0.150 HD
BRANCH  27  30
ATOM     30  C   UNL     1      30.549  -5.143 -22.173  0.00  0.00    +0.089 C 
BRANCH  30  31
ATOM     31  C   UNL     1      31.101  -4.094 -23.132  0.00  0.00    +0.021 C 
ATOM     32  C   UNL     1      31.039  -4.538 -24.587  0.00  0.00    +0.002 C 
ENDBRANCH  30  31
ENDBRANCH  27  30
ENDBRANCH  25  28
ENDBRANCH  21  24
ENDBRANCH   1  20
BRANCH   1  33
ATOM     33  C   UNL     1      32.608 -13.114 -25.192  0.00  0.00    +0.027 C 
ATOM     34  C   UNL     1      33.590 -12.121 -25.825  0.00  0.00    +0.002 C 
BRANCH  33  35
ATOM     35  C   UNL     1      32.856 -14.554 -25.695  0.00  0.00    +0.002 C 
ATOM     36  C   UNL     1      33.398 -14.616 -27.117  0.00  0.00    +0.000 C 
ENDBRANCH  33  35
ENDBRANCH   1  33
TORSDOF 12
ENDMDL
MODEL 4
REMARK VINA RESULT:      -8.6      2.492      4.429
REMARK  Name = 22850133
REMARK  12 active torsions:
REMARK  status: ('A' for Active; 'I' for Inactive)
REMARK    1  A    between atoms: C_1  and  C_8
REMARK    2  A    between atoms: C_1  and  N_20
REMARK    3  A    between atoms: C_1  and  C_33
REMARK    4  A    between atoms: C_4  and  C_10
REMARK    5  A    between atoms: C_10  and  O_11
REMARK    6  A    between atoms: O_11  and  C_12
REMARK    7  A    between atoms: C_12  and  C_13
REMARK    8  A    between atoms: C_21  and  C_24
REMARK    9  A    between atoms: C_25  and  C_28
REMARK   10  A    between atoms: N_27  and  C_30
REMARK   11  A    between atoms: C_30  and  C_31
REMARK   12  A    between atoms: C_33  and  C_35
REMARK                            x       y       z     vdW  Elec       q    Type
REMARK                         _______ _______ _______ _____ _____    ______ ____
ROOT
ATOM      1  C   UNL     1      34.240 -17.795 -22.272  0.00  0.00    +0.149 C 
ENDROOT
BRANCH   1   8
ATOM      2  O   UNL     1      35.949 -18.173 -20.658  0.00  0.00    -0.273 OA
ATOM      3  N   UNL     1      34.176 -19.660 -20.687  0.00  0.00    -0.270 N 
ATOM      4  C   UNL     1      34.563 -20.403 -19.493  0.00  0.00    +0.175 C 
ATOM      5  C   UNL     1      33.322 -21.204 -19.117  0.00  0.00    +0.033 C 
ATOM      6  C   UNL     1      32.903 -20.140 -21.216  0.00  0.00    +0.094 C 
ATOM      7  C   UNL     1      32.625 -21.429 -20.457  0.00  0.00    +0.024 C 
ATOM      8  C   UNL     1      34.875 -18.548 -21.130  0.00  0.00    +0.244 C 
BRANCH   4  10
ATOM      9  O   UNL     1      36.307 -21.215 -20.941  0.00  0.00    -0.248 OA
ATOM     10  C   UNL     1      35.705 -21.293 -19.878  0.00  0.00    +0.336 C 
BRANCH  10  11
ATOM     11  O   UNL     1      35.952 -22.179 -18.871  0.00  0.00    -0.442 OA
BRANCH  11  12
ATOM     12  C   UNL     1      36.774 -21.689 -17.808  0.00  0.00    +0.235 C 
BRANCH  12  13
ATOM     13  C   UNL     1      36.459 -22.453 -16.555  0.00  0.00    +0.021 C 
ATOM     14  C   UNL     1      35.151 -22.849 -16.301  0.00  0.00    -0.001 C 
ATOM     15  C   UNL     1      37.478 -22.757 -15.660  0.00  0.00    -0.001 C 
ATOM     16  C   UNL     1      34.858 -23.559 -15.136  0.00  0.00    -0.000 C 
ATOM     17  C   UNL     1      37.185 -23.468 -14.495  0.00  0.00    -0.000 C 
ATOM     18  C   UNL     1      35.875 -23.868 -14.234  0.00  0.00    -0.000 C 
ENDBRANCH  12  13
ENDBRANCH  11  12
ENDBRANCH  10  11
ENDBRANCH   4  10
ENDBRANCH   1   8
BRANCH   1  20
ATOM     19  O   UNL     1      31.973 -16.779 -20.771  0.00  0.00    -0.272 OA
ATOM     20  N   UNL     1      34.037 -16.456 -21.801  0.00  0.00    -0.296 N 
ATOM     21  C   UNL     1      32.914 -16.055 -21.086  0.00  0.00    +0.253 C 
ATOM     22  H   UNL     1      34.729 -15.784 -21.996  0.00  0.00    +0.150 HD
BRANCH  21  24
ATOM     23  O   UNL     1      33.749 -13.841 -21.596  0.00  0.00    -0.335 OA
ATOM     24  C   UNL     1      32.965 -14.603 -20.693  0.00  0.00    +0.227 C 
ATOM     25  C   UNL     1      32.336 -13.602 -21.586  0.00  0.00    +0.227 C 
BRANCH  25  28
ATOM     26  O   UNL     1      31.809 -12.116 -19.831  0.00  0.00    -0.272 OA
ATOM     27  N   UNL     1      31.837 -11.328 -22.021  0.00  0.00    -0.302 N 
ATOM     28  C   UNL     1      31.977 -12.290 -21.035  0.00  0.00    +0.253 C 
ATOM     29  H   UNL     1      31.998 -11.589 -22.957  0.00  0.00    +0.150 HD
BRANCH  27  30
ATOM     30  C   UNL     1      31.465  -9.960 -21.744  0.00  0.00    +0.089 C 
BRANCH  30  31
ATOM     31  C   UNL     1      32.602  -8.982 -22.019  0.00  0.00    +0.021 C 
ATOM     32  C   UNL     1      32.355  -7.608 -21.410  0.00  0.00    +0.002 C 
ENDBRANCH  30  31
ENDBRANCH  27  30
ENDBRANCH  25  28
ENDBRANCH  21  24
ENDBRANCH   1  20
BRANCH   1  33
ATOM     33  C   UNL     1      35.083 -17.897 -23.555  0.00  0.00    +0.027 C 
ATOM     34  C   UNL     1      34.594 -19.080 -24.399  0.00  0.00    +0.002 C 
BRANCH  33  35
ATOM     35  C   UNL     1      35.094 -16.585 -24.372  0.00  0.00    +0.002 C 
ATOM     36  C   UNL     1      34.008 -16.524 -25.439  0.00  0.00    +0.000 C 
ENDBRANCH  33  35
ENDBRANCH   1  33
TORSDOF 12
ENDMDL
MODEL 5
REMARK VINA RESULT:      -8.3      3.185      5.708
REMARK  Name = 22850133
REMARK  12 active torsions:
REMARK  status: ('A' for Active; 'I' for Inactive)
REMARK    1  A    between atoms: C_1  and  C_8
REMARK    2  A    between atoms: C_1  and  N_20
REMARK    3  A    between atoms: C_1  and  C_33
REMARK    4  A    between atoms: C_4  and  C_10
REMARK    5  A    between atoms: C_10  and  O_11
REMARK    6  A    between atoms: O_11  and  C_12
REMARK    7  A    between atoms: C_12  and  C_13
REMARK    8  A    between atoms: C_21  and  C_24
REMARK    9  A    between atoms: C_25  and  C_28
REMARK   10  A    between atoms: N_27  and  C_30
REMARK   11  A    between atoms: C_30  and  C_31
REMARK   12  A    between atoms: C_33  and  C_35
REMARK                            x       y       z     vdW  Elec       q    Type
REMARK                         _______ _______ _______ _____ _____    ______ ____
ROOT
ATOM      1  C   UNL     1      34.782 -17.091 -21.328  0.00  0.00    +0.149 C 
ENDROOT
BRANCH   1   8
ATOM      2  O   UNL     1      33.017 -18.658 -21.639  0.00  0.00    -0.273 OA
ATOM      3  N   UNL     1      35.000 -19.462 -20.757  0.00  0.00    -0.270 N 
ATOM      4  C   UNL     1      34.630 -20.872 -20.776  0.00  0.00    +0.175 C 
ATOM      5  C   UNL     1      35.944 -21.619 -20.577  0.00  0.00    +0.033 C 
ATOM      6  C   UNL     1      36.376 -19.284 -20.302  0.00  0.00    +0.094 C 
ATOM      7  C   UNL     1      36.786 -20.644 -19.757  0.00  0.00    +0.024 C 
ATOM      8  C   UNL     1      34.175 -18.470 -21.264  0.00  0.00    +0.244 C 
BRANCH   4  10
ATOM      9  O   UNL     1      32.554 -20.628 -19.581  0.00  0.00    -0.248 OA
ATOM     10  C   UNL     1      33.684 -21.096 -19.636  0.00  0.00    +0.336 C 
BRANCH  10  11
ATOM     11  O   UNL     1      34.279 -21.885 -18.697  0.00  0.00    -0.442 OA
BRANCH  11  12
ATOM     12  C   UNL     1      33.645 -23.146 -18.461  0.00  0.00    +0.235 C 
BRANCH  12  13
ATOM     13  C   UNL     1      33.085 -23.159 -17.068  0.00  0.00    +0.021 C 
ATOM     14  C   UNL     1      31.729 -22.927 -16.870  0.00  0.00    -0.001 C 
ATOM     15  C   UNL     1      33.927 -23.402 -15.989  0.00  0.00    -0.001 C 
ATOM     16  C   UNL     1      31.208 -22.938 -15.576  0.00  0.00    -0.000 C 
ATOM     17  C   UNL     1      33.406 -23.413 -14.695  0.00  0.00    -0.000 C 
ATOM     18  C   UNL     1      32.047 -23.182 -14.490  0.00  0.00    -0.000 C 
ENDBRANCH  12  13
ENDBRANCH  11  12
ENDBRANCH  10  11
ENDBRANCH   4  10
ENDBRANCH   1   8
BRANCH   1  20
ATOM     19  O   UNL     1      35.745 -18.396 -23.735  0.00  0.00    -0.272 OA
ATOM     20  N   UNL     1      34.622 -16.648 -22.682  0.00  0.00    -0.296 N 
ATOM     21  C   UNL     1      35.119 -17.340 -23.781  0.00  0.00    +0.253 C 
ATOM     22  H   UNL     1      34.135 -15.808 -22.843  0.00  0.00    +0.150 HD
BRANCH  21  24
ATOM     23  O   UNL     1      33.674 -17.272 -25.721  0.00  0.00    -0.335 OA
ATOM     24  C   UNL     1      34.789 -16.669 -25.087  0.00  0.00    +0.227 C 
ATOM     25  C   UNL     1      33.502 -15.945 -25.209  0.00  0.00    +0.227 C 
BRANCH  25  28
ATOM     26  O   UNL     1      33.111 -15.242 -27.427  0.00  0.00    -0.272 OA
ATOM     27  N   UNL     1      33.550 -13.649 -25.787  0.00  0.00    -0.302 N 
ATOM     28  C   UNL     1      33.356 -14.935 -26.263  0.00  0.00    +0.253 C 
ATOM     29  H   UNL     1      33.742 -13.528 -24.829  0.00  0.00    +0.150 HD
BRANCH  27  30
ATOM     30  C   UNL     1      33.484 -12.476 -26.628  0.00  0.00    +0.089 C 
BRANCH  30  31
ATOM     31  C   UNL     1      34.240 -11.293 -26.035  0.00  0.00    +0.021 C 
ATOM     32  C   UNL     1      33.997 -11.129 -24.541  0.00  0.00    +0.002 C 
ENDBRANCH  30  31
ENDBRANCH  27  30
ENDBRANCH  25  28
ENDBRANCH  21  24
ENDBRANCH   1  20
BRANCH   1  33
ATOM     33  C   UNL     1      34.167 -16.153 -20.275  0.00  0.00    +0.027 C 
ATOM     34  C   UNL     1      34.965 -14.844 -20.225  0.00  0.00    +0.002 C 
BRANCH  33  35
ATOM     35  C   UNL     1      32.662 -15.889 -20.512  0.00  0.00    +0.002 C 
ATOM     36  C   UNL     1      32.367 -14.496 -21.053  0.00  0.00    +0.000 C 
ENDBRANCH  33  35
ENDBRANCH   1  33
TORSDOF 12
ENDMDL
MODEL 6
REMARK VINA RESULT:      -8.2      1.949     10.510
REMARK  Name = 22850133
REMARK  12 active torsions:
REMARK  status: ('A' for Active; 'I' for Inactive)
REMARK    1  A    between atoms: C_1  and  C_8
REMARK    2  A    between atoms: C_1  and  N_20
REMARK    3  A    between atoms: C_1  and  C_33
REMARK    4  A    between atoms: C_4  and  C_10
REMARK    5  A    between atoms: C_10  and  O_11
REMARK    6  A    between atoms: O_11  and  C_12
REMARK    7  A    between atoms: C_12  and  C_13
REMARK    8  A    between atoms: C_21  and  C_24
REMARK    9  A    between atoms: C_25  and  C_28
REMARK   10  A    between atoms: N_27  and  C_30
REMARK   11  A    between atoms: C_30  and  C_31
REMARK   12  A    between atoms: C_33  and  C_35
REMARK                            x       y       z     vdW  Elec       q    Type
REMARK                         _______ _______ _______ _____ _____    ______ ____
ROOT
ATOM      1  C   UNL     1      33.179 -14.668 -22.689  0.00  0.00    +0.149 C 
ENDROOT
BRANCH   1   8
ATOM      2  O   UNL     1      34.686 -12.845 -22.416  0.00  0.00    -0.273 OA
ATOM      3  N   UNL     1      33.677 -13.081 -24.486  0.00  0.00    -0.270 N 
ATOM      4  C   UNL     1      34.431 -12.030 -25.159  0.00  0.00    +0.175 C 
ATOM      5  C   UNL     1      34.181 -12.266 -26.644  0.00  0.00    +0.033 C 
ATOM      6  C   UNL     1      32.784 -13.767 -25.416  0.00  0.00    +0.094 C 
ATOM      7  C   UNL     1      32.797 -12.911 -26.673  0.00  0.00    +0.024 C 
ATOM      8  C   UNL     1      33.925 -13.449 -23.173  0.00  0.00    +0.244 C 
BRANCH   4  10
ATOM      9  O   UNL     1      32.770 -10.591 -24.176  0.00  0.00    -0.248 OA
ATOM     10  C   UNL     1      33.868 -10.719 -24.700  0.00  0.00    +0.336 C 
BRANCH  10  11
ATOM     11  O   UNL     1      34.761  -9.723 -24.962  0.00  0.00    -0.442 OA
BRANCH  11  12
ATOM     12  C   UNL     1      34.909  -8.743 -23.930  0.00  0.00    +0.235 C 
BRANCH  12  13
ATOM     13  C   UNL     1      34.115  -7.524 -24.296  0.00  0.00    +0.021 C 
ATOM     14  C   UNL     1      34.509  -6.746 -25.379  0.00  0.00    -0.001 C 
ATOM     15  C   UNL     1      32.993  -7.181 -23.550  0.00  0.00    -0.001 C 
ATOM     16  C   UNL     1      33.772  -5.612 -25.721  0.00  0.00    -0.000 C 
ATOM     17  C   UNL     1      32.255  -6.047 -23.891  0.00  0.00    -0.000 C 
ATOM     18  C   UNL     1      32.645  -5.264 -24.976  0.00  0.00    -0.000 C 
ENDBRANCH  12  13
ENDBRANCH  11  12
ENDBRANCH  10  11
ENDBRANCH   4  10
ENDBRANCH   1   8
BRANCH   1  20
ATOM     19  O   UNL     1      34.374 -16.982 -23.970  0.00  0.00    -0.272 OA
ATOM     20  N   UNL     1      34.170 -15.550 -22.145  0.00  0.00    -0.296 N 
ATOM     21  C   UNL     1      34.689 -16.641 -22.833  0.00  0.00    +0.253 C 
ATOM     22  H   UNL     1      34.500 -15.375 -21.234  0.00  0.00    +0.150 HD
BRANCH  21  24
ATOM     23  O   UNL     1      35.609 -17.138 -20.651  0.00  0.00    -0.335 OA
ATOM     24  C   UNL     1      35.731 -17.384 -22.042  0.00  0.00    +0.227 C 
ATOM     25  C   UNL     1      35.293 -18.455 -21.117  0.00  0.00    +0.227 C 
BRANCH  25  28
ATOM     26  O   UNL     1      37.451 -19.400 -21.012  0.00  0.00    -0.272 OA
ATOM     27  N   UNL     1      35.685 -20.474 -19.943  0.00  0.00    -0.302 N 
ATOM     28  C   UNL     1      36.268 -19.467 -20.694  0.00  0.00    +0.253 C 
ATOM     29  H   UNL     1      34.721 -20.419 -19.753  0.00  0.00    +0.150 HD
BRANCH  27  30
ATOM     30  C   UNL     1      36.424 -21.602 -19.424  0.00  0.00    +0.089 C 
BRANCH  30  31
ATOM     31  C   UNL     1      36.045 -21.933 -17.986  0.00  0.00    +0.021 C 
ATOM     32  C   UNL     1      37.150 -21.594 -16.994  0.00  0.00    +0.002 C 
ENDBRANCH  30  31
ENDBRANCH  27  30
ENDBRANCH  25  28
ENDBRANCH  21  24
ENDBRANCH   1  20
BRANCH   1  33
ATOM     33  C   UNL     1      32.056 -14.291 -21.707  0.00  0.00    +0.027 C 
ATOM     34  C   UNL     1      32.407 -14.803 -20.304  0.00  0.00    +0.002 C 
BRANCH  33  35
ATOM     35  C   UNL     1      31.750 -12.776 -21.697  0.00  0.00    +0.002 C 
ATOM     36  C   UNL     1      31.804 -12.154 -20.307  0.00  0.00    +0.000 C 
ENDBRANCH  33  35
ENDBRANCH   1  33
TORSDOF 12
ENDMDL
MODEL 7
REMARK VINA RESULT:      -8.1      6.887     13.016
REMARK  Name = 22850133
REMARK  12 active torsions:
REMARK  status: ('A' for Active; 'I' for Inactive)
REMARK    1  A    between atoms: C_1  and  C_8
REMARK    2  A    between atoms: C_1  and  N_20
REMARK    3  A    between atoms: C_1  and  C_33
REMARK    4  A    between atoms: C_4  and  C_10
REMARK    5  A    between atoms: C_10  and  O_11
REMARK    6  A    between atoms: O_11  and  C_12
REMARK    7  A    between atoms: C_12  and  C_13
REMARK    8  A    between atoms: C_21  and  C_24
REMARK    9  A    between atoms: C_25  and  C_28
REMARK   10  A    between atoms: N_27  and  C_30
REMARK   11  A    between atoms: C_30  and  C_31
REMARK   12  A    between atoms: C_33  and  C_35
REMARK                            x       y       z     vdW  Elec       q    Type
REMARK                         _______ _______ _______ _____ _____    ______ ____
ROOT
ATOM      1  C   UNL     1      35.859 -23.227 -14.781  0.00  0.00    +0.149 C 
ENDROOT
BRANCH   1   8
ATOM      2  O   UNL     1      37.492 -22.839 -16.468  0.00  0.00    -0.273 OA
ATOM      3  N   UNL     1      35.269 -22.708 -17.100  0.00  0.00    -0.270 N 
ATOM      4  C   UNL     1      35.512 -22.554 -18.529  0.00  0.00    +0.175 C 
ATOM      5  C   UNL     1      34.160 -22.822 -19.181  0.00  0.00    +0.033 C 
ATOM      6  C   UNL     1      33.840 -22.784 -16.813  0.00  0.00    +0.094 C 
ATOM      7  C   UNL     1      33.159 -22.387 -18.114  0.00  0.00    +0.024 C 
ATOM      8  C   UNL     1      36.295 -22.911 -16.190  0.00  0.00    +0.244 C 
BRANCH   4  10
ATOM      9  O   UNL     1      36.849 -20.599 -18.099  0.00  0.00    -0.248 OA
ATOM     10  C   UNL     1      35.968 -21.145 -18.751  0.00  0.00    +0.336 C 
BRANCH  10  11
ATOM     11  O   UNL     1      35.253 -20.589 -19.771  0.00  0.00    -0.442 OA
BRANCH  11  12
ATOM     12  C   UNL     1      35.976 -20.387 -20.989  0.00  0.00    +0.235 C 
BRANCH  12  13
ATOM     13  C   UNL     1      35.487 -19.129 -21.645  0.00  0.00    +0.021 C 
ATOM     14  C   UNL     1      35.117 -19.151 -22.985  0.00  0.00    -0.001 C 
ATOM     15  C   UNL     1      35.409 -17.953 -20.908  0.00  0.00    -0.001 C 
ATOM     16  C   UNL     1      34.663 -17.982 -23.596  0.00  0.00    -0.000 C 
ATOM     17  C   UNL     1      34.954 -16.783 -21.518  0.00  0.00    -0.000 C 
ATOM     18  C   UNL     1      34.581 -16.799 -22.862  0.00  0.00    -0.000 C 
ENDBRANCH  12  13
ENDBRANCH  11  12
ENDBRANCH  10  11
ENDBRANCH   4  10
ENDBRANCH   1   8
BRANCH   1  20
ATOM     19  O   UNL     1      33.874 -23.651 -12.705  0.00  0.00    -0.272 OA
ATOM     20  N   UNL     1      34.613 -23.926 -14.897  0.00  0.00    -0.296 N 
ATOM     21  C   UNL     1      33.718 -24.083 -13.845  0.00  0.00    +0.253 C 
ATOM     22  H   UNL     1      34.378 -24.319 -15.770  0.00  0.00    +0.150 HD
BRANCH  21  24
ATOM     23  O   UNL     1      31.661 -25.137 -13.126  0.00  0.00    -0.335 OA
ATOM     24  C   UNL     1      32.478 -24.836 -14.245  0.00  0.00    +0.227 C 
ATOM     25  C   UNL     1      31.160 -24.182 -14.068  0.00  0.00    +0.227 C 
BRANCH  25  28
ATOM     26  O   UNL     1      29.513 -25.777 -14.621  0.00  0.00    -0.272 OA
ATOM     27  N   UNL     1      29.614 -23.784 -15.818  0.00  0.00    -0.302 N 
ATOM     28  C   UNL     1      30.014 -24.678 -14.839  0.00  0.00    +0.253 C 
ATOM     29  H   UNL     1      30.097 -22.929 -15.897  0.00  0.00    +0.150 HD
BRANCH  27  30
ATOM     30  C   UNL     1      28.523 -24.044 -16.729  0.00  0.00    +0.089 C 
BRANCH  30  31
ATOM     31  C   UNL     1      27.727 -22.786 -17.055  0.00  0.00    +0.021 C 
ATOM     32  C   UNL     1      27.011 -22.213 -15.839  0.00  0.00    +0.002 C 
ENDBRANCH  30  31
ENDBRANCH  27  30
ENDBRANCH  25  28
ENDBRANCH  21  24
ENDBRANCH   1  20
BRANCH   1  33
ATOM     33  C   UNL     1      36.948 -23.993 -14.009  0.00  0.00    +0.027 C 
ATOM     34  C   UNL     1      37.166 -23.335 -12.641  0.00  0.00    +0.002 C 
BRANCH  33  35
ATOM     35  C   UNL     1      36.638 -25.500 -13.870  0.00  0.00    +0.002 C 
ATOM     36  C   UNL     1      37.232 -26.349 -14.987  0.00  0.00    +0.000 C 
ENDBRANCH  33  35
ENDBRANCH   1  33
TORSDOF 12
ENDMDL
MODEL 8
REMARK VINA RESULT:      -8.1      3.502      7.317
REMARK  Name = 22850133
REMARK  12 active torsions:
REMARK  status: ('A' for Active; 'I' for Inactive)
REMARK    1  A    between atoms: C_1  and  C_8
REMARK    2  A    between atoms: C_1  and  N_20
REMARK    3  A    between atoms: C_1  and  C_33
REMARK    4  A    between atoms: C_4  and  C_10
REMARK    5  A    between atoms: C_10  and  O_11
REMARK    6  A    between atoms: O_11  and  C_12
REMARK    7  A    between atoms: C_12  and  C_13
REMARK    8  A    between atoms: C_21  and  C_24
REMARK    9  A    between atoms: C_25  and  C_28
REMARK   10  A    between atoms: N_27  and  C_30
REMARK   11  A    between atoms: C_30  and  C_31
REMARK   12  A    between atoms: C_33  and  C_35
REMARK                            x       y       z     vdW  Elec       q    Type
REMARK                         _______ _______ _______ _____ _____    ______ ____
ROOT
ATOM      1  C   UNL     1      32.536  -7.737 -22.820  0.00  0.00    +0.149 C 
ENDROOT
BRANCH   1   8
ATOM      2  O   UNL     1      31.185  -9.650 -23.243  0.00  0.00    -0.273 OA
ATOM      3  N   UNL     1      33.379  -9.723 -23.974  0.00  0.00    -0.270 N 
ATOM      4  C   UNL     1      33.272 -10.988 -24.693  0.00  0.00    +0.175 C 
ATOM      5  C   UNL     1      34.520 -11.042 -25.567  0.00  0.00    +0.033 C 
ATOM      6  C   UNL     1      34.705  -9.135 -24.139  0.00  0.00    +0.094 C 
ATOM      7  C   UNL     1      35.544 -10.233 -24.775  0.00  0.00    +0.024 C 
ATOM      8  C   UNL     1      32.290  -9.122 -23.363  0.00  0.00    +0.244 C 
BRANCH   4  10
ATOM      9  O   UNL     1      32.704 -11.995 -22.581  0.00  0.00    -0.248 OA
ATOM     10  C   UNL     1      33.263 -12.080 -23.666  0.00  0.00    +0.336 C 
BRANCH  10  11
ATOM     11  O   UNL     1      33.966 -13.151 -24.133  0.00  0.00    -0.442 OA
BRANCH  11  12
ATOM     12  C   UNL     1      33.176 -14.256 -24.583  0.00  0.00    +0.235 C 
BRANCH  12  13
ATOM     13  C   UNL     1      33.898 -15.533 -24.268  0.00  0.00    +0.021 C 
ATOM     14  C   UNL     1      33.994 -16.526 -25.237  0.00  0.00    -0.001 C 
ATOM     15  C   UNL     1      34.463 -15.714 -23.011  0.00  0.00    -0.001 C 
ATOM     16  C   UNL     1      34.665 -17.714 -24.946  0.00  0.00    -0.000 C 
ATOM     17  C   UNL     1      35.134 -16.902 -22.719  0.00  0.00    -0.000 C 
ATOM     18  C   UNL     1      35.234 -17.901 -23.687  0.00  0.00    -0.000 C 
ENDBRANCH  12  13
ENDBRANCH  11  12
ENDBRANCH  10  11
ENDBRANCH   4  10
ENDBRANCH   1   8
BRANCH   1  20
ATOM     19  O   UNL     1      34.110  -6.194 -24.708  0.00  0.00    -0.272 OA
ATOM     20  N   UNL     1      32.053  -6.827 -23.817  0.00  0.00    -0.296 N 
ATOM     21  C   UNL     1      32.884  -6.126 -24.684  0.00  0.00    +0.253 C 
ATOM     22  H   UNL     1      31.081  -6.690 -23.892  0.00  0.00    +0.150 HD
BRANCH  21  24
ATOM     23  O   UNL     1      31.004  -4.641 -25.027  0.00  0.00    -0.335 OA
ATOM     24  C   UNL     1      32.118  -5.259 -25.647  0.00  0.00    +0.227 C 
ATOM     25  C   UNL     1      32.091  -3.795 -25.420  0.00  0.00    +0.227 C 
BRANCH  25  28
ATOM     26  O   UNL     1      30.719  -2.258 -26.568  0.00  0.00    -0.272 OA
ATOM     27  N   UNL     1      32.724  -2.937 -27.534  0.00  0.00    -0.302 N 
ATOM     28  C   UNL     1      31.758  -2.911 -26.543  0.00  0.00    +0.253 C 
ATOM     29  H   UNL     1      33.518  -3.504 -27.401  0.00  0.00    +0.150 HD
BRANCH  27  30
ATOM     30  C   UNL     1      32.623  -2.173 -28.757  0.00  0.00    +0.089 C 
BRANCH  30  31
ATOM     31  C   UNL     1      32.785  -3.041 -29.999  0.00  0.00    +0.021 C 
ATOM     32  C   UNL     1      32.388  -4.491 -29.758  0.00  0.00    +0.002 C 
ENDBRANCH  30  31
ENDBRANCH  27  30
ENDBRANCH  25  28
ENDBRANCH  21  24
ENDBRANCH   1  20
BRANCH   1  33
ATOM     33  C   UNL     1      31.899  -7.553 -21.431  0.00  0.00    +0.027 C 
ATOM     34  C   UNL     1      32.653  -8.406 -20.403  0.00  0.00    +0.002 C 
BRANCH  33  35
ATOM     35  C   UNL     1      31.828  -6.072 -20.993  0.00  0.00    +0.002 C 
ATOM     36  C   UNL     1      30.525  -5.385 -21.381  0.00  0.00    +0.000 C 
ENDBRANCH  33  35
ENDBRANCH   1  33
TORSDOF 12
ENDMDL
MODEL 9
REMARK VINA RESULT:      -8.0      3.769     11.372
REMARK  Name = 22850133
REMARK  12 active torsions:
REMARK  status: ('A' for Active; 'I' for Inactive)
REMARK    1  A    between atoms: C_1  and  C_8
REMARK    2  A    between atoms: C_1  and  N_20
REMARK    3  A    between atoms: C_1  and  C_33
REMARK    4  A    between atoms: C_4  and  C_10
REMARK    5  A    between atoms: C_10  and  O_11
REMARK    6  A    between atoms: O_11  and  C_12
REMARK    7  A    between atoms: C_12  and  C_13
REMARK    8  A    between atoms: C_21  and  C_24
REMARK    9  A    between atoms: C_25  and  C_28
REMARK   10  A    between atoms: N_27  and  C_30
REMARK   11  A    between atoms: C_30  and  C_31
REMARK   12  A    between atoms: C_33  and  C_35
REMARK                            x       y       z     vdW  Elec       q    Type
REMARK                         _______ _______ _______ _____ _____    ______ ____
ROOT
ATOM      1  C   UNL     1      34.777 -20.066 -20.569  0.00  0.00    +0.149 C 
ENDROOT
BRANCH   1   8
ATOM      2  O   UNL     1      35.635 -17.884 -20.155  0.00  0.00    -0.273 OA
ATOM      3  N   UNL     1      34.955 -18.359 -22.316  0.00  0.00    -0.270 N 
ATOM      4  C   UNL     1      35.424 -17.116 -22.915  0.00  0.00    +0.175 C 
ATOM      5  C   UNL     1      35.405 -17.378 -24.416  0.00  0.00    +0.033 C 
ATOM      6  C   UNL     1      34.405 -19.256 -23.328  0.00  0.00    +0.094 C 
ATOM      7  C   UNL     1      34.287 -18.405 -24.583  0.00  0.00    +0.024 C 
ATOM      8  C   UNL     1      35.168 -18.669 -20.982  0.00  0.00    +0.244 C 
BRANCH   4  10
ATOM      9  O   UNL     1      33.410 -16.250 -21.918  0.00  0.00    -0.248 OA
ATOM     10  C   UNL     1      34.453 -16.043 -22.525  0.00  0.00    +0.336 C 
BRANCH  10  11
ATOM     11  O   UNL     1      34.914 -14.833 -22.951  0.00  0.00    -0.442 OA
BRANCH  11  12
ATOM     12  C   UNL     1      33.926 -13.804 -23.066  0.00  0.00    +0.235 C 
BRANCH  12  13
ATOM     13  C   UNL     1      33.660 -13.543 -24.520  0.00  0.00    +0.021 C 
ATOM     14  C   UNL     1      33.916 -12.283 -25.050  0.00  0.00    -0.001 C 
ATOM     15  C   UNL     1      33.159 -14.561 -25.323  0.00  0.00    -0.001 C 
ATOM     16  C   UNL     1      33.668 -12.039 -26.402  0.00  0.00    -0.000 C 
ATOM     17  C   UNL     1      32.911 -14.317 -26.674  0.00  0.00    -0.000 C 
ATOM     18  C   UNL     1      33.166 -13.056 -27.212  0.00  0.00    -0.000 C 
ENDBRANCH  12  13
ENDBRANCH  11  12
ENDBRANCH  10  11
ENDBRANCH   4  10
ENDBRANCH   1   8
BRANCH   1  20
ATOM     19  O   UNL     1      35.630 -22.755 -19.888  0.00  0.00    -0.272 OA
ATOM     20  N   UNL     1      35.702 -20.452 -19.545  0.00  0.00    -0.296 N 
ATOM     21  C   UNL     1      36.055 -21.772 -19.286  0.00  0.00    +0.253 C 
ATOM     22  H   UNL     1      36.109 -19.745 -18.994  0.00  0.00    +0.150 HD
BRANCH  21  24
ATOM     23  O   UNL     1      36.924 -20.856 -17.221  0.00  0.00    -0.335 OA
ATOM     24  C   UNL     1      37.063 -21.895 -18.175  0.00  0.00    +0.227 C 
ATOM     25  C   UNL     1      36.580 -22.183 -16.804  0.00  0.00    +0.227 C 
BRANCH  25  28
ATOM     26  O   UNL     1      38.697 -22.950 -16.103  0.00  0.00    -0.272 OA
ATOM     27  N   UNL     1      36.911 -23.015 -14.612  0.00  0.00    -0.302 N 
ATOM     28  C   UNL     1      37.519 -22.743 -15.826  0.00  0.00    +0.253 C 
ATOM     29  H   UNL     1      35.955 -22.806 -14.509  0.00  0.00    +0.150 HD
BRANCH  27  30
ATOM     30  C   UNL     1      37.612 -23.593 -13.489  0.00  0.00    +0.089 C 
BRANCH  30  31
ATOM     31  C   UNL     1      37.702 -25.112 -13.579  0.00  0.00    +0.021 C 
ATOM     32  C   UNL     1      39.133 -25.607 -13.748  0.00  0.00    +0.002 C 
ENDBRANCH  30  31
ENDBRANCH  27  30
ENDBRANCH  25  28
ENDBRANCH  21  24
ENDBRANCH   1  20
BRANCH   1  33
ATOM     33  C   UNL     1      33.298 -20.138 -20.150  0.00  0.00    +0.027 C 
ATOM     34  C   UNL     1      32.436 -19.394 -21.178  0.00  0.00    +0.002 C 
BRANCH  33  35
ATOM     35  C   UNL     1      32.803 -21.587 -19.940  0.00  0.00    +0.002 C 
ATOM     36  C   UNL     1      32.699 -21.988 -18.474  0.00  0.00    +0.000 C 
ENDBRANCH  33  35
ENDBRANCH   1  33
TORSDOF 12
ENDMDL
