MODEL 1
REMARK VINA RESULT:      -4.8      0.000      0.000
REMARK  Name = 14221359
REMARK  5 active torsions:
REMARK  status: ('A' for Active; 'I' for Inactive)
REMARK    1  A    between atoms: CA_1  and  N_2
REMARK    2  A    between atoms: CA_1  and  C_7
REMARK    3  A    between atoms: CA_1  and  C_10
REMARK    4  A    between atoms: C_7  and  O_8
REMARK    5  A    between atoms: C_10  and  N_12
REMARK                            x       y       z     vdW  Elec       q    Type
REMARK                         _______ _______ _______ _____ _____    ______ ____
ROOT
ATOM      1  CA  UNL     1      38.743 -25.345 -14.254  0.00  0.00    +0.016 C 
ENDROOT
BRANCH   1   2
ATOM      2  N   UNL     1      38.332 -26.747 -14.393  0.00  0.00    +0.387 N 
ATOM      3  H1  UNL     1      37.623 -26.823 -15.122  0.00  0.00    -0.089 HD
ATOM      4  H2  UNL     1      37.947 -27.078 -13.508  0.00  0.00    -0.089 HD
ATOM      5  H3  UNL     1      39.141 -27.315 -14.645  0.00  0.00    -0.089 HD
ENDBRANCH   1   2
BRANCH   1   7
ATOM      6  OXT UNL     1      41.068 -24.604 -14.365  0.00  0.00    -0.253 OA
ATOM      7  C   UNL     1      40.137 -25.231 -14.854  0.00  0.00    +0.291 C 
BRANCH   7   8
ATOM      8  O   UNL     1      40.253 -25.927 -16.016  0.00  0.00    -0.482 OA
ATOM      9  H   UNL     1      40.416 -26.849 -15.995  0.00  0.00    +0.295 HD
ENDBRANCH   7   8
ENDBRANCH   1   7
BRANCH   1  10
ATOM     10  C   UNL     1      37.716 -24.381 -14.886  0.00  0.00    -0.076 C 
ATOM     11  C   UNL     1      36.966 -23.500 -13.881  0.00  0.00    -0.026 C 
BRANCH  10  12
ATOM     12  N   UNL     1      38.372 -23.529 -15.884  0.00  0.00    +0.381 N 
ATOM     13  H   UNL     1      38.117 -22.555 -15.719  0.00  0.00    -0.089 HD
ATOM     14  H   UNL     1      38.071 -23.807 -16.818  0.00  0.00    -0.089 HD
ATOM     15  H   UNL     1      39.383 -23.634 -15.808  0.00  0.00    -0.089 HD
ENDBRANCH  10  12
ENDBRANCH   1  10
TORSDOF 5
ENDMDL
MODEL 2
REMARK VINA RESULT:      -4.7      2.663      3.236
REMARK  Name = 14221359
REMARK  5 active torsions:
REMARK  status: ('A' for Active; 'I' for Inactive)
REMARK    1  A    between atoms: CA_1  and  N_2
REMARK    2  A    between atoms: CA_1  and  C_7
REMARK    3  A    between atoms: CA_1  and  C_10
REMARK    4  A    between atoms: C_7  and  O_8
REMARK    5  A    between atoms: C_10  and  N_12
REMARK                            x       y       z     vdW  Elec       q    Type
REMARK                         _______ _______ _______ _____ _____    ______ ____
ROOT
ATOM      1  CA  UNL     1      37.710 -26.501 -14.244  0.00  0.00    +0.016 C 
ENDROOT
BRANCH   1   2
ATOM      2  N   UNL     1      36.980 -26.502 -12.971  0.00  0.00    +0.387 N 
ATOM      3  H1  UNL     1      36.541 -27.413 -12.833  0.00  0.00    -0.089 HD
ATOM      4  H2  UNL     1      36.263 -25.778 -12.990  0.00  0.00    -0.089 HD
ATOM      5  H3  UNL     1      37.630 -26.319 -12.206  0.00  0.00    -0.089 HD
ENDBRANCH   1   2
BRANCH   1   7
ATOM      6  OXT UNL     1      35.715 -25.668 -15.382  0.00  0.00    -0.253 OA
ATOM      7  C   UNL     1      36.668 -26.437 -15.352  0.00  0.00    +0.291 C 
BRANCH   7   8
ATOM      8  O   UNL     1      36.914 -27.337 -16.340  0.00  0.00    -0.482 OA
ATOM      9  H   UNL     1      36.590 -27.182 -17.206  0.00  0.00    +0.295 HD
ENDBRANCH   7   8
ENDBRANCH   1   7
BRANCH   1  10
ATOM     10  C   UNL     1      38.751 -25.362 -14.307  0.00  0.00    -0.076 C 
ATOM     11  C   UNL     1      40.209 -25.833 -14.352  0.00  0.00    -0.026 C 
BRANCH  10  12
ATOM     12  N   UNL     1      38.484 -24.498 -15.463  0.00  0.00    +0.381 N 
ATOM     13  H   UNL     1      39.010 -24.836 -16.268  0.00  0.00    -0.089 HD
ATOM     14  H   UNL     1      38.770 -23.543 -15.246  0.00  0.00    -0.089 HD
ATOM     15  H   UNL     1      37.488 -24.515 -15.676  0.00  0.00    -0.089 HD
ENDBRANCH  10  12
ENDBRANCH   1  10
TORSDOF 5
ENDMDL
MODEL 3
REMARK VINA RESULT:      -4.7      1.188      2.096
REMARK  Name = 14221359
REMARK  5 active torsions:
REMARK  status: ('A' for Active; 'I' for Inactive)
REMARK    1  A    between atoms: CA_1  and  N_2
REMARK    2  A    between atoms: CA_1  and  C_7
REMARK    3  A    between atoms: CA_1  and  C_10
REMARK    4  A    between atoms: C_7  and  O_8
REMARK    5  A    between atoms: C_10  and  N_12
REMARK                            x       y       z     vdW  Elec       q    Type
REMARK                         _______ _______ _______ _____ _____    ______ ____
ROOT
ATOM      1  CA  UNL     1      38.602 -25.495 -14.689  0.00  0.00    +0.016 C 
ENDROOT
BRANCH   1   2
ATOM      2  N   UNL     1      37.970 -24.282 -15.222  0.00  0.00    +0.387 N 
ATOM      3  H1  UNL     1      36.956 -24.380 -15.176  0.00  0.00    -0.089 HD
ATOM      4  H2  UNL     1      38.255 -24.149 -16.192  0.00  0.00    -0.089 HD
ATOM      5  H3  UNL     1      38.259 -23.476 -14.668  0.00  0.00    -0.089 HD
ENDBRANCH   1   2
BRANCH   1   7
ATOM      6  OXT UNL     1      40.885 -24.775 -14.199  0.00  0.00    -0.253 OA
ATOM      7  C   UNL     1      40.098 -25.359 -14.935  0.00  0.00    +0.291 C 
BRANCH   7   8
ATOM      8  O   UNL     1      40.488 -25.978 -16.080  0.00  0.00    -0.482 OA
ATOM      9  H   UNL     1      40.396 -25.540 -16.903  0.00  0.00    +0.295 HD
ENDBRANCH   7   8
ENDBRANCH   1   7
BRANCH   1  10
ATOM     10  C   UNL     1      38.237 -25.729 -13.207  0.00  0.00    -0.076 C 
ATOM     11  C   UNL     1      38.041 -24.448 -12.389  0.00  0.00    -0.026 C 
BRANCH  10  12
ATOM     12  N   UNL     1      37.029 -26.556 -13.111  0.00  0.00    +0.381 N 
ATOM     13  H   UNL     1      36.587 -26.407 -12.204  0.00  0.00    -0.089 HD
ATOM     14  H   UNL     1      37.282 -27.540 -13.208  0.00  0.00    -0.089 HD
ATOM     15  H   UNL     1      36.379 -26.298 -13.853  0.00  0.00    -0.089 HD
ENDBRANCH  10  12
ENDBRANCH   1  10
TORSDOF 5
ENDMDL
MODEL 4
REMARK VINA RESULT:      -4.6     10.218     11.010
REMARK  Name = 14221359
REMARK  5 active torsions:
REMARK  status: ('A' for Active; 'I' for Inactive)
REMARK    1  A    between atoms: CA_1  and  N_2
REMARK    2  A    between atoms: CA_1  and  C_7
REMARK    3  A    between atoms: CA_1  and  C_10
REMARK    4  A    between atoms: C_7  and  O_8
REMARK    5  A    between atoms: C_10  and  N_12
REMARK                            x       y       z     vdW  Elec       q    Type
REMARK                         _______ _______ _______ _____ _____    ______ ____
ROOT
ATOM      1  CA  UNL     1      41.770 -14.201 -15.707  0.00  0.00    +0.016 C 
ENDROOT
BRANCH   1   2
ATOM      2  N   UNL     1      40.959 -13.573 -14.658  0.00  0.00    +0.387 N 
ATOM      3  H1  UNL     1      40.865 -14.215 -13.871  0.00  0.00    -0.089 HD
ATOM      4  H2  UNL     1      40.035 -13.351 -15.029  0.00  0.00    -0.089 HD
ATOM      5  H3  UNL     1      41.414 -12.716 -14.343  0.00  0.00    -0.089 HD
ENDBRANCH   1   2
BRANCH   1   7
ATOM      6  OXT UNL     1      42.333 -16.577 -15.793  0.00  0.00    -0.253 OA
ATOM      7  C   UNL     1      41.494 -15.696 -15.643  0.00  0.00    +0.291 C 
BRANCH   7   8
ATOM      8  O   UNL     1      40.188 -15.967 -15.384  0.00  0.00    -0.482 OA
ATOM      9  H   UNL     1      39.579 -15.264 -15.264  0.00  0.00    +0.295 HD
ENDBRANCH   7   8
ENDBRANCH   1   7
BRANCH   1  10
ATOM     10  C   UNL     1      41.495 -13.579 -17.094  0.00  0.00    -0.076 C 
ATOM     11  C   UNL     1      42.561 -12.586 -17.569  0.00  0.00    -0.026 C 
BRANCH  10  12
ATOM     12  N   UNL     1      41.335 -14.637 -18.098  0.00  0.00    +0.381 N 
ATOM     13  H   UNL     1      40.483 -14.471 -18.633  0.00  0.00    -0.089 HD
ATOM     14  H   UNL     1      41.272 -15.542 -17.630  0.00  0.00    -0.089 HD
ATOM     15  H   UNL     1      42.138 -14.635 -18.726  0.00  0.00    -0.089 HD
ENDBRANCH  10  12
ENDBRANCH   1  10
TORSDOF 5
ENDMDL
MODEL 5
REMARK VINA RESULT:      -4.5      9.648     10.595
REMARK  Name = 14221359
REMARK  5 active torsions:
REMARK  status: ('A' for Active; 'I' for Inactive)
REMARK    1  A    between atoms: CA_1  and  N_2
REMARK    2  A    between atoms: CA_1  and  C_7
REMARK    3  A    between atoms: CA_1  and  C_10
REMARK    4  A    between atoms: C_7  and  O_8
REMARK    5  A    between atoms: C_10  and  N_12
REMARK                            x       y       z     vdW  Elec       q    Type
REMARK                         _______ _______ _______ _____ _____    ______ ____
ROOT
ATOM      1  CA  UNL     1      29.385 -23.084 -15.788  0.00  0.00    +0.016 C 
ENDROOT
BRANCH   1   2
ATOM      2  N   UNL     1      30.290 -22.671 -16.867  0.00  0.00    +0.387 N 
ATOM      3  H1  UNL     1      30.619 -23.496 -17.369  0.00  0.00    -0.089 HD
ATOM      4  H2  UNL     1      31.087 -22.174 -16.471  0.00  0.00    -0.089 HD
ATOM      5  H3  UNL     1      29.793 -22.057 -17.512  0.00  0.00    -0.089 HD
ENDBRANCH   1   2
BRANCH   1   7
ATOM      6  OXT UNL     1      27.855 -24.085 -17.409  0.00  0.00    -0.253 OA
ATOM      7  C   UNL     1      28.035 -23.372 -16.429  0.00  0.00    +0.291 C 
BRANCH   7   8
ATOM      8  O   UNL     1      27.016 -22.751 -15.779  0.00  0.00    -0.482 OA
ATOM      9  H   UNL     1      26.862 -21.836 -15.914  0.00  0.00    +0.295 HD
ENDBRANCH   7   8
ENDBRANCH   1   7
BRANCH   1  10
ATOM     10  C   UNL     1      29.955 -24.272 -14.984  0.00  0.00    -0.076 C 
ATOM     11  C   UNL     1      30.741 -23.875 -13.729  0.00  0.00    -0.026 C 
BRANCH  10  12
ATOM     12  N   UNL     1      28.875 -25.192 -14.609  0.00  0.00    +0.381 N 
ATOM     13  H   UNL     1      28.247 -24.729 -13.953  0.00  0.00    -0.089 HD
ATOM     14  H   UNL     1      29.273 -26.022 -14.171  0.00  0.00    -0.089 HD
ATOM     15  H   UNL     1      28.356 -25.463 -15.443  0.00  0.00    -0.089 HD
ENDBRANCH  10  12
ENDBRANCH   1  10
TORSDOF 5
ENDMDL
MODEL 6
REMARK VINA RESULT:      -4.4      4.139      4.934
REMARK  Name = 14221359
REMARK  5 active torsions:
REMARK  status: ('A' for Active; 'I' for Inactive)
REMARK    1  A    between atoms: CA_1  and  N_2
REMARK    2  A    between atoms: CA_1  and  C_7
REMARK    3  A    between atoms: CA_1  and  C_10
REMARK    4  A    between atoms: C_7  and  O_8
REMARK    5  A    between atoms: C_10  and  N_12
REMARK                            x       y       z     vdW  Elec       q    Type
REMARK                         _______ _______ _______ _____ _____    ______ ____
ROOT
ATOM      1  CA  UNL     1      37.090 -24.206 -11.766  0.00  0.00    +0.016 C 
ENDROOT
BRANCH   1   2
ATOM      2  N   UNL     1      37.339 -22.760 -11.798  0.00  0.00    +0.387 N 
ATOM      3  H1  UNL     1      38.344 -22.588 -11.768  0.00  0.00    -0.089 HD
ATOM      4  H2  UNL     1      36.895 -22.321 -10.991  0.00  0.00    -0.089 HD
ATOM      5  H3  UNL     1      36.952 -22.367 -12.656  0.00  0.00    -0.089 HD
ENDBRANCH   1   2
BRANCH   1   7
ATOM      6  OXT UNL     1      35.290 -25.159 -10.416  0.00  0.00    -0.253 OA
ATOM      7  C   UNL     1      35.652 -24.398 -11.304  0.00  0.00    +0.291 C 
BRANCH   7   8
ATOM      8  O   UNL     1      34.785 -23.606 -11.988  0.00  0.00    -0.482 OA
ATOM      9  H   UNL     1      34.846 -22.673 -11.916  0.00  0.00    +0.295 HD
ENDBRANCH   7   8
ENDBRANCH   1   7
BRANCH   1  10
ATOM     10  C   UNL     1      37.398 -24.872 -13.125  0.00  0.00    -0.076 C 
ATOM     11  C   UNL     1      38.795 -25.493 -13.228  0.00  0.00    -0.026 C 
BRANCH  10  12
ATOM     12  N   UNL     1      36.388 -25.893 -13.426  0.00  0.00    +0.381 N 
ATOM     13  H   UNL     1      35.457 -25.490 -13.323  0.00  0.00    -0.089 HD
ATOM     14  H   UNL     1      36.494 -26.676 -12.781  0.00  0.00    -0.089 HD
ATOM     15  H   UNL     1      36.513 -26.221 -14.383  0.00  0.00    -0.089 HD
ENDBRANCH  10  12
ENDBRANCH   1  10
TORSDOF 5
ENDMDL
MODEL 7
REMARK VINA RESULT:      -4.3      3.430      4.339
REMARK  Name = 14221359
REMARK  5 active torsions:
REMARK  status: ('A' for Active; 'I' for Inactive)
REMARK    1  A    between atoms: CA_1  and  N_2
REMARK    2  A    between atoms: CA_1  and  C_7
REMARK    3  A    between atoms: CA_1  and  C_10
REMARK    4  A    between atoms: C_7  and  O_8
REMARK    5  A    between atoms: C_10  and  N_12
REMARK                            x       y       z     vdW  Elec       q    Type
REMARK                         _______ _______ _______ _____ _____    ______ ____
ROOT
ATOM      1  CA  UNL     1      36.356 -23.756 -12.780  0.00  0.00    +0.016 C 
ENDROOT
BRANCH   1   2
ATOM      2  N   UNL     1      34.961 -23.557 -12.368  0.00  0.00    +0.387 N 
ATOM      3  H1  UNL     1      34.471 -23.017 -13.081  0.00  0.00    -0.089 HD
ATOM      4  H2  UNL     1      34.938 -23.052 -11.482  0.00  0.00    -0.089 HD
ATOM      5  H3  UNL     1      34.507 -24.463 -12.256  0.00  0.00    -0.089 HD
ENDBRANCH   1   2
BRANCH   1   7
ATOM      6  OXT UNL     1      38.293 -22.816 -11.625  0.00  0.00    -0.253 OA
ATOM      7  C   UNL     1      37.225 -23.415 -11.578  0.00  0.00    +0.291 C 
BRANCH   7   8
ATOM      8  O   UNL     1      36.676 -23.843 -10.411  0.00  0.00    -0.482 OA
ATOM      9  H   UNL     1      37.201 -24.310  -9.790  0.00  0.00    +0.295 HD
ENDBRANCH   7   8
ENDBRANCH   1   7
BRANCH   1  10
ATOM     10  C   UNL     1      36.594 -25.178 -13.333  0.00  0.00    -0.076 C 
ATOM     11  C   UNL     1      36.937 -25.232 -14.825  0.00  0.00    -0.026 C 
BRANCH  10  12
ATOM     12  N   UNL     1      37.651 -25.846 -12.566  0.00  0.00    +0.381 N 
ATOM     13  H   UNL     1      38.159 -25.156 -12.014  0.00  0.00    -0.089 HD
ATOM     14  H   UNL     1      38.295 -26.309 -13.208  0.00  0.00    -0.089 HD
ATOM     15  H   UNL     1      37.234 -26.539 -11.945  0.00  0.00    -0.089 HD
ENDBRANCH  10  12
ENDBRANCH   1  10
TORSDOF 5
ENDMDL
MODEL 8
REMARK VINA RESULT:      -4.2      7.069      7.990
REMARK  Name = 14221359
REMARK  5 active torsions:
REMARK  status: ('A' for Active; 'I' for Inactive)
REMARK    1  A    between atoms: CA_1  and  N_2
REMARK    2  A    between atoms: CA_1  and  C_7
REMARK    3  A    between atoms: CA_1  and  C_10
REMARK    4  A    between atoms: C_7  and  O_8
REMARK    5  A    between atoms: C_10  and  N_12
REMARK                            x       y       z     vdW  Elec       q    Type
REMARK                         _______ _______ _______ _____ _____    ______ ____
ROOT
ATOM      1  CA  UNL     1      34.067 -21.038 -19.621  0.00  0.00    +0.016 C 
ENDROOT
BRANCH   1   2
ATOM      2  N   UNL     1      32.734 -21.130 -20.228  0.00  0.00    +0.387 N 
ATOM      3  H1  UNL     1      32.099 -21.599 -19.584  0.00  0.00    -0.089 HD
ATOM      4  H2  UNL     1      32.793 -21.661 -21.097  0.00  0.00    -0.089 HD
ATOM      5  H3  UNL     1      32.386 -20.192 -20.426  0.00  0.00    -0.089 HD
ENDBRANCH   1   2
BRANCH   1   7
ATOM      6  OXT UNL     1      33.922 -23.476 -19.534  0.00  0.00    -0.253 OA
ATOM      7  C   UNL     1      34.428 -22.435 -19.134  0.00  0.00    +0.291 C 
BRANCH   7   8
ATOM      8  O   UNL     1      35.408 -22.412 -18.192  0.00  0.00    -0.482 OA
ATOM      9  H   UNL     1      35.404 -23.041 -17.498  0.00  0.00    +0.295 HD
ENDBRANCH   7   8
ENDBRANCH   1   7
BRANCH   1  10
ATOM     10  C   UNL     1      35.102 -20.435 -20.595  0.00  0.00    -0.076 C 
ATOM     11  C   UNL     1      34.627 -19.179 -21.332  0.00  0.00    -0.026 C 
BRANCH  10  12
ATOM     12  N   UNL     1      36.350 -20.138 -19.883  0.00  0.00    +0.381 N 
ATOM     13  H   UNL     1      37.142 -20.472 -20.433  0.00  0.00    -0.089 HD
ATOM     14  H   UNL     1      36.344 -20.606 -18.977  0.00  0.00    -0.089 HD
ATOM     15  H   UNL     1      36.432 -19.131 -19.745  0.00  0.00    -0.089 HD
ENDBRANCH  10  12
ENDBRANCH   1  10
TORSDOF 5
ENDMDL
MODEL 9
REMARK VINA RESULT:      -4.2      6.983      7.884
REMARK  Name = 14221359
REMARK  5 active torsions:
REMARK  status: ('A' for Active; 'I' for Inactive)
REMARK    1  A    between atoms: CA_1  and  N_2
REMARK    2  A    between atoms: CA_1  and  C_7
REMARK    3  A    between atoms: CA_1  and  C_10
REMARK    4  A    between atoms: C_7  and  O_8
REMARK    5  A    between atoms: C_10  and  N_12
REMARK                            x       y       z     vdW  Elec       q    Type
REMARK                         _______ _______ _______ _____ _____    ______ ____
ROOT
ATOM      1  CA  UNL     1      35.207 -21.307 -19.989  0.00  0.00    +0.016 C 
ENDROOT
BRANCH   1   2
ATOM      2  N   UNL     1      36.368 -20.705 -19.322  0.00  0.00    +0.387 N 
ATOM      3  H1  UNL     1      37.223 -21.128 -19.681  0.00  0.00    -0.089 HD
ATOM      4  H2  UNL     1      36.303 -20.865 -18.317  0.00  0.00    -0.089 HD
ATOM      5  H3  UNL     1      36.383 -19.701 -19.506  0.00  0.00    -0.089 HD
ENDBRANCH   1   2
BRANCH   1   7
ATOM      6  OXT UNL     1      33.980 -23.355 -19.472  0.00  0.00    -0.253 OA
ATOM      7  C   UNL     1      34.755 -22.473 -19.123  0.00  0.00    +0.291 C 
BRANCH   7   8
ATOM      8  O   UNL     1      35.324 -22.446 -17.888  0.00  0.00    -0.482 OA
ATOM      9  H   UNL     1      35.520 -23.248 -17.445  0.00  0.00    +0.295 HD
ENDBRANCH   7   8
ENDBRANCH   1   7
BRANCH   1  10
ATOM     10  C   UNL     1      34.097 -20.268 -20.259  0.00  0.00    -0.076 C 
ATOM     11  C   UNL     1      34.238 -19.513 -21.584  0.00  0.00    -0.026 C 
BRANCH  10  12
ATOM     12  N   UNL     1      32.780 -20.913 -20.204  0.00  0.00    +0.381 N 
ATOM     13  H   UNL     1      32.068 -20.213 -19.997  0.00  0.00    -0.089 HD
ATOM     14  H   UNL     1      32.781 -21.625 -19.473  0.00  0.00    -0.089 HD
ATOM     15  H   UNL     1      32.578 -21.349 -21.103  0.00  0.00    -0.089 HD
ENDBRANCH  10  12
ENDBRANCH   1  10
TORSDOF 5
ENDMDL
