MODEL 1
REMARK VINA RESULT:      -8.6      0.000      0.000
REMARK  Name = 28689
REMARK  4 active torsions:
REMARK  status: ('A' for Active; 'I' for Inactive)
REMARK    1  A    between atoms: C_4  and  C_13
REMARK    2  A    between atoms: C_4  and  C_21
REMARK    3  A    between atoms: C_18  and  O_19
REMARK    4  A    between atoms: C_26  and  O_27
REMARK                            x       y       z     vdW  Elec       q    Type
REMARK                         _______ _______ _______ _____ _____    ______ ____
ROOT
ATOM      1  O   UNL     1      35.368 -23.311 -13.789  0.00  0.00    -0.464 OA
ATOM      2  O   UNL     1      34.932 -26.203 -15.934  0.00  0.00    -0.270 OA
ATOM      3  N   UNL     1      36.658 -25.693 -14.532  0.00  0.00    -0.278 N 
ATOM      4  C   UNL     1      34.995 -23.923 -15.038  0.00  0.00    +0.238 C 
ATOM      5  C   UNL     1      35.495 -25.386 -15.203  0.00  0.00    +0.271 C 
ATOM      6  C   UNL     1      36.594 -23.636 -13.287  0.00  0.00    +0.153 C 
ATOM      7  C   UNL     1      37.252 -24.810 -13.631  0.00  0.00    +0.085 C 
ATOM      8  C   UNL     1      37.154 -22.772 -12.347  0.00  0.00    +0.038 C 
ATOM      9  C   UNL     1      38.478 -25.129 -13.047  0.00  0.00    +0.018 C 
ATOM     10  C   UNL     1      38.386 -23.080 -11.768  0.00  0.00    +0.003 C 
ATOM     11  C   UNL     1      39.048 -24.257 -12.119  0.00  0.00    +0.001 C 
ATOM     12  H   UNL     1      37.084 -26.566 -14.693  0.00  0.00    +0.155 HD
ENDROOT
BRANCH   4  13
ATOM     13  C   UNL     1      33.450 -23.972 -15.052  0.00  0.00    +0.026 C 
ATOM     14  C   UNL     1      32.769 -24.613 -14.020  0.00  0.00    +0.003 C 
ATOM     15  C   UNL     1      32.749 -23.376 -16.095  0.00  0.00    +0.003 C 
ATOM     16  C   UNL     1      31.375 -24.657 -14.033  0.00  0.00    +0.036 C 
ATOM     17  C   UNL     1      31.355 -23.420 -16.108  0.00  0.00    +0.036 C 
ATOM     18  C   UNL     1      30.668 -24.061 -15.077  0.00  0.00    +0.134 C 
BRANCH  18  19
ATOM     19  O   UNL     1      29.308 -24.104 -15.088  0.00  0.00    -0.506 OA
ATOM     20  H   UNL     1      28.813 -23.426 -14.672  0.00  0.00    +0.292 HD
ENDBRANCH  18  19
ENDBRANCH   4  13
BRANCH   4  21
ATOM     21  C   UNL     1      35.552 -22.984 -16.134  0.00  0.00    +0.026 C 
ATOM     22  C   UNL     1      36.693 -22.227 -15.882  0.00  0.00    +0.003 C 
ATOM     23  C   UNL     1      34.909 -22.899 -17.365  0.00  0.00    +0.003 C 
ATOM     24  C   UNL     1      37.195 -21.381 -16.870  0.00  0.00    +0.036 C 
ATOM     25  C   UNL     1      35.411 -22.051 -18.353  0.00  0.00    +0.036 C 
ATOM     26  C   UNL     1      36.554 -21.292 -18.105  0.00  0.00    +0.134 C 
BRANCH  26  27
ATOM     27  O   UNL     1      37.045 -20.465 -19.068  0.00  0.00    -0.506 OA
ATOM     28  H   UNL     1      37.904 -20.608 -19.416  0.00  0.00    +0.292 HD
ENDBRANCH  26  27
ENDBRANCH   4  21
TORSDOF 4
ENDMDL
MODEL 2
REMARK VINA RESULT:      -7.7      1.500      4.948
REMARK  Name = 28689
REMARK  4 active torsions:
REMARK  status: ('A' for Active; 'I' for Inactive)
REMARK    1  A    between atoms: C_4  and  C_13
REMARK    2  A    between atoms: C_4  and  C_21
REMARK    3  A    between atoms: C_18  and  O_19
REMARK    4  A    between atoms: C_26  and  O_27
REMARK                            x       y       z     vdW  Elec       q    Type
REMARK                         _______ _______ _______ _____ _____    ______ ____
ROOT
ATOM      1  O   UNL     1      35.570 -24.721 -16.122  0.00  0.00    -0.464 OA
ATOM      2  O   UNL     1      35.569 -21.298 -14.925  0.00  0.00    -0.270 OA
ATOM      3  N   UNL     1      36.456 -23.164 -13.960  0.00  0.00    -0.278 N 
ATOM      4  C   UNL     1      34.922 -23.457 -15.887  0.00  0.00    +0.238 C 
ATOM      5  C   UNL     1      35.688 -22.524 -14.906  0.00  0.00    +0.271 C 
ATOM      6  C   UNL     1      36.217 -25.287 -15.063  0.00  0.00    +0.153 C 
ATOM      7  C   UNL     1      36.673 -24.541 -13.984  0.00  0.00    +0.085 C 
ATOM      8  C   UNL     1      36.475 -26.656 -15.124  0.00  0.00    +0.038 C 
ATOM      9  C   UNL     1      37.382 -25.155 -12.952  0.00  0.00    +0.018 C 
ATOM     10  C   UNL     1      37.173 -27.278 -14.088  0.00  0.00    +0.003 C 
ATOM     11  C   UNL     1      37.625 -26.528 -13.003  0.00  0.00    +0.001 C 
ATOM     12  H   UNL     1      36.869 -22.631 -13.242  0.00  0.00    +0.155 HD
ENDROOT
BRANCH   4  13
ATOM     13  C   UNL     1      34.876 -22.733 -17.252  0.00  0.00    +0.026 C 
ATOM     14  C   UNL     1      36.013 -22.088 -17.732  0.00  0.00    +0.003 C 
ATOM     15  C   UNL     1      33.699 -22.729 -17.993  0.00  0.00    +0.003 C 
ATOM     16  C   UNL     1      35.972 -21.435 -18.963  0.00  0.00    +0.036 C 
ATOM     17  C   UNL     1      33.657 -22.075 -19.225  0.00  0.00    +0.036 C 
ATOM     18  C   UNL     1      34.794 -21.428 -19.710  0.00  0.00    +0.134 C 
BRANCH  18  19
ATOM     19  O   UNL     1      34.754 -20.791 -20.911  0.00  0.00    -0.506 OA
ATOM     20  H   UNL     1      35.468 -20.877 -21.512  0.00  0.00    +0.292 HD
ENDBRANCH  18  19
ENDBRANCH   4  13
BRANCH   4  21
ATOM     21  C   UNL     1      33.507 -23.814 -15.375  0.00  0.00    +0.026 C 
ATOM     22  C   UNL     1      33.361 -24.650 -14.272  0.00  0.00    +0.003 C 
ATOM     23  C   UNL     1      32.387 -23.298 -16.022  0.00  0.00    +0.003 C 
ATOM     24  C   UNL     1      32.084 -24.972 -13.811  0.00  0.00    +0.036 C 
ATOM     25  C   UNL     1      31.110 -23.621 -15.561  0.00  0.00    +0.036 C 
ATOM     26  C   UNL     1      30.959 -24.457 -14.455  0.00  0.00    +0.134 C 
BRANCH  26  27
ATOM     27  O   UNL     1      29.714 -24.772 -14.005  0.00  0.00    -0.506 OA
ATOM     28  H   UNL     1      28.957 -24.492 -14.483  0.00  0.00    +0.292 HD
ENDBRANCH  26  27
ENDBRANCH   4  21
TORSDOF 4
ENDMDL
MODEL 3
REMARK VINA RESULT:      -7.7      2.027      5.444
REMARK  Name = 28689
REMARK  4 active torsions:
REMARK  status: ('A' for Active; 'I' for Inactive)
REMARK    1  A    between atoms: C_4  and  C_13
REMARK    2  A    between atoms: C_4  and  C_21
REMARK    3  A    between atoms: C_18  and  O_19
REMARK    4  A    between atoms: C_26  and  O_27
REMARK                            x       y       z     vdW  Elec       q    Type
REMARK                         _______ _______ _______ _____ _____    ______ ____
ROOT
ATOM      1  O   UNL     1      34.275 -25.054 -15.014  0.00  0.00    -0.464 OA
ATOM      2  O   UNL     1      36.278 -22.600 -13.250  0.00  0.00    -0.270 OA
ATOM      3  N   UNL     1      34.025 -22.942 -13.181  0.00  0.00    -0.278 N 
ATOM      4  C   UNL     1      35.329 -24.074 -14.961  0.00  0.00    +0.238 C 
ATOM      5  C   UNL     1      35.279 -23.156 -13.707  0.00  0.00    +0.271 C 
ATOM      6  C   UNL     1      33.054 -24.670 -14.542  0.00  0.00    +0.153 C 
ATOM      7  C   UNL     1      32.901 -23.635 -13.630  0.00  0.00    +0.085 C 
ATOM      8  C   UNL     1      31.944 -25.406 -14.957  0.00  0.00    +0.038 C 
ATOM      9  C   UNL     1      31.638 -23.316 -13.130  0.00  0.00    +0.018 C 
ATOM     10  C   UNL     1      30.677 -25.084 -14.468  0.00  0.00    +0.003 C 
ATOM     11  C   UNL     1      30.524 -24.040 -13.557  0.00  0.00    +0.001 C 
ATOM     12  H   UNL     1      33.917 -22.278 -12.462  0.00  0.00    +0.155 HD
ENDROOT
BRANCH   4  13
ATOM     13  C   UNL     1      36.654 -24.867 -14.884  0.00  0.00    +0.026 C 
ATOM     14  C   UNL     1      37.868 -24.187 -14.903  0.00  0.00    +0.003 C 
ATOM     15  C   UNL     1      36.625 -26.256 -14.796  0.00  0.00    +0.003 C 
ATOM     16  C   UNL     1      39.064 -24.903 -14.834  0.00  0.00    +0.036 C 
ATOM     17  C   UNL     1      37.820 -26.971 -14.727  0.00  0.00    +0.036 C 
ATOM     18  C   UNL     1      39.040 -26.294 -14.746  0.00  0.00    +0.134 C 
BRANCH  18  19
ATOM     19  O   UNL     1      40.207 -26.992 -14.679  0.00  0.00    -0.506 OA
ATOM     20  H   UNL     1      40.904 -26.798 -15.274  0.00  0.00    +0.292 HD
ENDBRANCH  18  19
ENDBRANCH   4  13
BRANCH   4  21
ATOM     21  C   UNL     1      35.209 -23.277 -16.281  0.00  0.00    +0.026 C 
ATOM     22  C   UNL     1      34.038 -23.348 -17.029  0.00  0.00    +0.003 C 
ATOM     23  C   UNL     1      36.275 -22.493 -16.714  0.00  0.00    +0.003 C 
ATOM     24  C   UNL     1      33.931 -22.628 -18.219  0.00  0.00    +0.036 C 
ATOM     25  C   UNL     1      36.169 -21.774 -17.905  0.00  0.00    +0.036 C 
ATOM     26  C   UNL     1      34.996 -21.841 -18.657  0.00  0.00    +0.134 C 
BRANCH  26  27
ATOM     27  O   UNL     1      34.891 -21.140 -19.819  0.00  0.00    -0.506 OA
ATOM     28  H   UNL     1      35.633 -20.678 -20.156  0.00  0.00    +0.292 HD
ENDBRANCH  26  27
ENDBRANCH   4  21
TORSDOF 4
ENDMDL
MODEL 4
REMARK VINA RESULT:      -6.8     15.132     18.045
REMARK  Name = 28689
REMARK  4 active torsions:
REMARK  status: ('A' for Active; 'I' for Inactive)
REMARK    1  A    between atoms: C_4  and  C_13
REMARK    2  A    between atoms: C_4  and  C_21
REMARK    3  A    between atoms: C_18  and  O_19
REMARK    4  A    between atoms: C_26  and  O_27
REMARK                            x       y       z     vdW  Elec       q    Type
REMARK                         _______ _______ _______ _____ _____    ______ ____
ROOT
ATOM      1  O   UNL     1      32.309  -7.961 -21.572  0.00  0.00    -0.464 OA
ATOM      2  O   UNL     1      29.986  -8.368 -24.326  0.00  0.00    -0.270 OA
ATOM      3  N   UNL     1      30.266  -9.665 -22.471  0.00  0.00    -0.278 N 
ATOM      4  C   UNL     1      31.987  -7.952 -22.975  0.00  0.00    +0.238 C 
ATOM      5  C   UNL     1      30.642  -8.651 -23.323  0.00  0.00    +0.271 C 
ATOM      6  C   UNL     1      31.960  -9.077 -20.869  0.00  0.00    +0.153 C 
ATOM      7  C   UNL     1      30.949  -9.933 -21.285  0.00  0.00    +0.085 C 
ATOM      8  C   UNL     1      32.613  -9.304 -19.658  0.00  0.00    +0.038 C 
ATOM      9  C   UNL     1      30.586 -11.029 -20.503  0.00  0.00    +0.018 C 
ATOM     10  C   UNL     1      32.262 -10.407 -18.876  0.00  0.00    +0.003 C 
ATOM     11  C   UNL     1      31.250 -11.268 -19.299  0.00  0.00    +0.001 C 
ATOM     12  H   UNL     1      29.488 -10.220 -22.706  0.00  0.00    +0.155 HD
ENDROOT
BRANCH   4  13
ATOM     13  C   UNL     1      31.837  -6.466 -23.374  0.00  0.00    +0.026 C 
ATOM     14  C   UNL     1      31.426  -5.533 -22.426  0.00  0.00    +0.003 C 
ATOM     15  C   UNL     1      32.112  -6.069 -24.679  0.00  0.00    +0.003 C 
ATOM     16  C   UNL     1      31.290  -4.192 -22.786  0.00  0.00    +0.036 C 
ATOM     17  C   UNL     1      31.976  -4.728 -25.040  0.00  0.00    +0.036 C 
ATOM     18  C   UNL     1      31.565  -3.790 -24.093  0.00  0.00    +0.134 C 
BRANCH  18  19
ATOM     19  O   UNL     1      31.432  -2.482 -24.444  0.00  0.00    -0.506 OA
ATOM     20  H   UNL     1      31.098  -2.255 -25.289  0.00  0.00    +0.292 HD
ENDBRANCH  18  19
ENDBRANCH   4  13
BRANCH   4  21
ATOM     21  C   UNL     1      33.195  -8.617 -23.675  0.00  0.00    +0.026 C 
ATOM     22  C   UNL     1      34.361  -7.887 -23.885  0.00  0.00    +0.003 C 
ATOM     23  C   UNL     1      33.109  -9.943 -24.091  0.00  0.00    +0.003 C 
ATOM     24  C   UNL     1      35.451  -8.489 -24.516  0.00  0.00    +0.036 C 
ATOM     25  C   UNL     1      34.199 -10.544 -24.723  0.00  0.00    +0.036 C 
ATOM     26  C   UNL     1      35.369  -9.817 -24.935  0.00  0.00    +0.134 C 
BRANCH  26  27
ATOM     27  O   UNL     1      36.433 -10.402 -25.551  0.00  0.00    -0.506 OA
ATOM     28  H   UNL     1      36.678 -11.279 -25.330  0.00  0.00    +0.292 HD
ENDBRANCH  26  27
ENDBRANCH   4  21
TORSDOF 4
ENDMDL
MODEL 5
REMARK VINA RESULT:      -6.5      2.429      5.692
REMARK  Name = 28689
REMARK  4 active torsions:
REMARK  status: ('A' for Active; 'I' for Inactive)
REMARK    1  A    between atoms: C_4  and  C_13
REMARK    2  A    between atoms: C_4  and  C_21
REMARK    3  A    between atoms: C_18  and  O_19
REMARK    4  A    between atoms: C_26  and  O_27
REMARK                            x       y       z     vdW  Elec       q    Type
REMARK                         _______ _______ _______ _____ _____    ______ ____
ROOT
ATOM      1  O   UNL     1      32.976 -22.218 -16.552  0.00  0.00    -0.464 OA
ATOM      2  O   UNL     1      33.691 -24.688 -19.109  0.00  0.00    -0.270 OA
ATOM      3  N   UNL     1      32.307 -24.840 -17.303  0.00  0.00    -0.278 N 
ATOM      4  C   UNL     1      33.884 -22.929 -17.414  0.00  0.00    +0.238 C 
ATOM      5  C   UNL     1      33.282 -24.215 -18.047  0.00  0.00    +0.271 C 
ATOM      6  C   UNL     1      32.126 -22.973 -15.798  0.00  0.00    +0.153 C 
ATOM      7  C   UNL     1      31.771 -24.269 -16.149  0.00  0.00    +0.085 C 
ATOM      8  C   UNL     1      31.555 -22.373 -14.676  0.00  0.00    +0.038 C 
ATOM      9  C   UNL     1      30.852 -24.982 -15.380  0.00  0.00    +0.018 C 
ATOM     10  C   UNL     1      30.644 -23.086 -13.896  0.00  0.00    +0.003 C 
ATOM     11  C   UNL     1      30.293 -24.389 -14.247  0.00  0.00    +0.001 C 
ATOM     12  H   UNL     1      31.974 -25.719 -17.596  0.00  0.00    +0.155 HD
ENDROOT
BRANCH   4  13
ATOM     13  C   UNL     1      34.216 -21.968 -18.579  0.00  0.00    +0.026 C 
ATOM     14  C   UNL     1      33.190 -21.289 -19.229  0.00  0.00    +0.003 C 
ATOM     15  C   UNL     1      35.539 -21.788 -18.971  0.00  0.00    +0.003 C 
ATOM     16  C   UNL     1      33.490 -20.423 -20.281  0.00  0.00    +0.036 C 
ATOM     17  C   UNL     1      35.840 -20.922 -20.022  0.00  0.00    +0.036 C 
ATOM     18  C   UNL     1      34.814 -20.239 -20.677  0.00  0.00    +0.134 C 
BRANCH  18  19
ATOM     19  O   UNL     1      35.106 -19.393 -21.702  0.00  0.00    -0.506 OA
ATOM     20  H   UNL     1      34.883 -18.486 -21.640  0.00  0.00    +0.292 HD
ENDBRANCH  18  19
ENDBRANCH   4  13
BRANCH   4  21
ATOM     21  C   UNL     1      35.125 -23.227 -16.540  0.00  0.00    +0.026 C 
ATOM     22  C   UNL     1      36.173 -22.313 -16.493  0.00  0.00    +0.003 C 
ATOM     23  C   UNL     1      35.186 -24.409 -15.807  0.00  0.00    +0.003 C 
ATOM     24  C   UNL     1      37.292 -22.583 -15.704  0.00  0.00    +0.036 C 
ATOM     25  C   UNL     1      36.306 -24.679 -15.019  0.00  0.00    +0.036 C 
ATOM     26  C   UNL     1      37.359 -23.766 -14.968  0.00  0.00    +0.134 C 
BRANCH  26  27
ATOM     27  O   UNL     1      38.451 -24.028 -14.200  0.00  0.00    -0.506 OA
ATOM     28  H   UNL     1      39.123 -24.598 -14.520  0.00  0.00    +0.292 HD
ENDBRANCH  26  27
ENDBRANCH   4  21
TORSDOF 4
ENDMDL
MODEL 6
REMARK VINA RESULT:      -5.9     14.809     18.023
REMARK  Name = 28689
REMARK  4 active torsions:
REMARK  status: ('A' for Active; 'I' for Inactive)
REMARK    1  A    between atoms: C_4  and  C_13
REMARK    2  A    between atoms: C_4  and  C_21
REMARK    3  A    between atoms: C_18  and  O_19
REMARK    4  A    between atoms: C_26  and  O_27
REMARK                            x       y       z     vdW  Elec       q    Type
REMARK                         _______ _______ _______ _____ _____    ______ ____
ROOT
ATOM      1  O   UNL     1      32.270  -8.992 -24.260  0.00  0.00    -0.464 OA
ATOM      2  O   UNL     1      34.860  -7.009 -22.677  0.00  0.00    -0.270 OA
ATOM      3  N   UNL     1      35.048  -8.955 -23.852  0.00  0.00    -0.278 N 
ATOM      4  C   UNL     1      32.783  -8.215 -23.162  0.00  0.00    +0.238 C 
ATOM      5  C   UNL     1      34.318  -7.974 -23.218  0.00  0.00    +0.271 C 
ATOM      6  C   UNL     1      33.065  -9.997 -24.727  0.00  0.00    +0.153 C 
ATOM      7  C   UNL     1      34.442 -10.001 -24.546  0.00  0.00    +0.085 C 
ATOM      8  C   UNL     1      32.455 -11.010 -25.466  0.00  0.00    +0.038 C 
ATOM      9  C   UNL     1      35.222 -11.021 -25.093  0.00  0.00    +0.018 C 
ATOM     10  C   UNL     1      33.229 -12.039 -26.005  0.00  0.00    +0.003 C 
ATOM     11  C   UNL     1      34.611 -12.044 -25.818  0.00  0.00    +0.001 C 
ATOM     12  H   UNL     1      36.031  -8.916 -23.815  0.00  0.00    +0.155 HD
ENDROOT
BRANCH   4  13
ATOM     13  C   UNL     1      32.107  -6.828 -23.261  0.00  0.00    +0.026 C 
ATOM     14  C   UNL     1      32.222  -6.084 -24.432  0.00  0.00    +0.003 C 
ATOM     15  C   UNL     1      31.388  -6.331 -22.178  0.00  0.00    +0.003 C 
ATOM     16  C   UNL     1      31.613  -4.833 -24.520  0.00  0.00    +0.036 C 
ATOM     17  C   UNL     1      30.779  -5.079 -22.266  0.00  0.00    +0.036 C 
ATOM     18  C   UNL     1      30.891  -4.330 -23.438  0.00  0.00    +0.134 C 
BRANCH  18  19
ATOM     19  O   UNL     1      30.297  -3.109 -23.525  0.00  0.00    -0.506 OA
ATOM     20  H   UNL     1      29.861  -2.745 -22.779  0.00  0.00    +0.292 HD
ENDBRANCH  18  19
ENDBRANCH   4  13
BRANCH   4  21
ATOM     21  C   UNL     1      32.352  -8.978 -21.887  0.00  0.00    +0.026 C 
ATOM     22  C   UNL     1      32.690  -8.476 -20.634  0.00  0.00    +0.003 C 
ATOM     23  C   UNL     1      31.630 -10.162 -22.001  0.00  0.00    +0.003 C 
ATOM     24  C   UNL     1      32.301  -9.164 -19.485  0.00  0.00    +0.036 C 
ATOM     25  C   UNL     1      31.242 -10.851 -20.851  0.00  0.00    +0.036 C 
ATOM     26  C   UNL     1      31.577 -10.351 -19.593  0.00  0.00    +0.134 C 
BRANCH  26  27
ATOM     27  O   UNL     1      31.199 -11.022 -18.471  0.00  0.00    -0.506 OA
ATOM     28  H   UNL     1      30.826 -10.555 -17.749  0.00  0.00    +0.292 HD
ENDBRANCH  26  27
ENDBRANCH   4  21
TORSDOF 4
ENDMDL
MODEL 7
REMARK VINA RESULT:      -5.9      2.053      5.685
REMARK  Name = 28689
REMARK  4 active torsions:
REMARK  status: ('A' for Active; 'I' for Inactive)
REMARK    1  A    between atoms: C_4  and  C_13
REMARK    2  A    between atoms: C_4  and  C_21
REMARK    3  A    between atoms: C_18  and  O_19
REMARK    4  A    between atoms: C_26  and  O_27
REMARK                            x       y       z     vdW  Elec       q    Type
REMARK                         _______ _______ _______ _____ _____    ______ ____
ROOT
ATOM      1  O   UNL     1      33.677 -22.551 -15.450  0.00  0.00    -0.464 OA
ATOM      2  O   UNL     1      33.609 -24.740 -18.341  0.00  0.00    -0.270 OA
ATOM      3  N   UNL     1      32.175 -24.643 -16.570  0.00  0.00    -0.278 N 
ATOM      4  C   UNL     1      34.321 -23.410 -16.410  0.00  0.00    +0.238 C 
ATOM      5  C   UNL     1      33.340 -24.305 -17.220  0.00  0.00    +0.271 C 
ATOM      6  C   UNL     1      32.583 -23.056 -14.810  0.00  0.00    +0.153 C 
ATOM      7  C   UNL     1      31.817 -24.084 -15.344  0.00  0.00    +0.085 C 
ATOM      8  C   UNL     1      32.205 -22.453 -13.611  0.00  0.00    +0.038 C 
ATOM      9  C   UNL     1      30.673 -24.528 -14.681  0.00  0.00    +0.018 C 
ATOM     10  C   UNL     1      31.067 -22.901 -12.938  0.00  0.00    +0.003 C 
ATOM     11  C   UNL     1      30.302 -23.938 -13.472  0.00  0.00    +0.001 C 
ATOM     12  H   UNL     1      31.572 -25.301 -16.986  0.00  0.00    +0.155 HD
ENDROOT
BRANCH   4  13
ATOM     13  C   UNL     1      35.020 -22.477 -17.425  0.00  0.00    +0.026 C 
ATOM     14  C   UNL     1      34.346 -22.078 -18.576  0.00  0.00    +0.003 C 
ATOM     15  C   UNL     1      36.320 -22.042 -17.183  0.00  0.00    +0.003 C 
ATOM     16  C   UNL     1      34.978 -21.237 -19.492  0.00  0.00    +0.036 C 
ATOM     17  C   UNL     1      36.951 -21.201 -18.099  0.00  0.00    +0.036 C 
ATOM     18  C   UNL     1      36.280 -20.798 -19.254  0.00  0.00    +0.134 C 
BRANCH  18  19
ATOM     19  O   UNL     1      36.895 -19.977 -20.148  0.00  0.00    -0.506 OA
ATOM     20  H   UNL     1      37.027 -20.260 -21.031  0.00  0.00    +0.292 HD
ENDBRANCH  18  19
ENDBRANCH   4  13
BRANCH   4  21
ATOM     21  C   UNL     1      35.339 -24.241 -15.594  0.00  0.00    +0.026 C 
ATOM     22  C   UNL     1      36.102 -23.625 -14.607  0.00  0.00    +0.003 C 
ATOM     23  C   UNL     1      35.486 -25.602 -15.852  0.00  0.00    +0.003 C 
ATOM     24  C   UNL     1      37.020 -24.375 -13.872  0.00  0.00    +0.036 C 
ATOM     25  C   UNL     1      36.405 -26.352 -15.116  0.00  0.00    +0.036 C 
ATOM     26  C   UNL     1      37.171 -25.738 -14.126  0.00  0.00    +0.134 C 
BRANCH  26  27
ATOM     27  O   UNL     1      38.067 -26.469 -13.408  0.00  0.00    -0.506 OA
ATOM     28  H   UNL     1      38.653 -26.040 -12.814  0.00  0.00    +0.292 HD
ENDBRANCH  26  27
ENDBRANCH   4  21
TORSDOF 4
ENDMDL
MODEL 8
REMARK VINA RESULT:      -5.8     11.491     14.837
REMARK  Name = 28689
REMARK  4 active torsions:
REMARK  status: ('A' for Active; 'I' for Inactive)
REMARK    1  A    between atoms: C_4  and  C_13
REMARK    2  A    between atoms: C_4  and  C_21
REMARK    3  A    between atoms: C_18  and  O_19
REMARK    4  A    between atoms: C_26  and  O_27
REMARK                            x       y       z     vdW  Elec       q    Type
REMARK                         _______ _______ _______ _____ _____    ______ ____
ROOT
ATOM      1  O   UNL     1      34.282 -12.725 -22.523  0.00  0.00    -0.464 OA
ATOM      2  O   UNL     1      30.977 -11.272 -22.863  0.00  0.00    -0.270 OA
ATOM      3  N   UNL     1      31.619 -13.150 -21.740  0.00  0.00    -0.278 N 
ATOM      4  C   UNL     1      33.240 -12.104 -23.299  0.00  0.00    +0.238 C 
ATOM      5  C   UNL     1      31.847 -12.106 -22.607  0.00  0.00    +0.271 C 
ATOM      6  C   UNL     1      33.930 -13.814 -21.781  0.00  0.00    +0.153 C 
ATOM      7  C   UNL     1      32.623 -14.046 -21.373  0.00  0.00    +0.085 C 
ATOM      8  C   UNL     1      34.951 -14.673 -21.374  0.00  0.00    +0.038 C 
ATOM      9  C   UNL     1      32.320 -15.141 -20.564  0.00  0.00    +0.018 C 
ATOM     10  C   UNL     1      34.651 -15.777 -20.575  0.00  0.00    +0.003 C 
ATOM     11  C   UNL     1      33.337 -16.011 -20.171  0.00  0.00    +0.001 C 
ATOM     12  H   UNL     1      30.717 -13.269 -21.365  0.00  0.00    +0.155 HD
ENDROOT
BRANCH   4  13
ATOM     13  C   UNL     1      33.653 -10.625 -23.473  0.00  0.00    +0.026 C 
ATOM     14  C   UNL     1      34.740 -10.301 -24.281  0.00  0.00    +0.003 C 
ATOM     15  C   UNL     1      32.937  -9.625 -22.822  0.00  0.00    +0.003 C 
ATOM     16  C   UNL     1      35.113  -8.966 -24.437  0.00  0.00    +0.036 C 
ATOM     17  C   UNL     1      33.310  -8.290 -22.979  0.00  0.00    +0.036 C 
ATOM     18  C   UNL     1      34.399  -7.961 -23.787  0.00  0.00    +0.134 C 
BRANCH  18  19
ATOM     19  O   UNL     1      34.763  -6.659 -23.940  0.00  0.00    -0.506 OA
ATOM     20  H   UNL     1      34.120  -6.015 -24.166  0.00  0.00    +0.292 HD
ENDBRANCH  18  19
ENDBRANCH   4  13
BRANCH   4  21
ATOM     21  C   UNL     1      33.229 -12.863 -24.647  0.00  0.00    +0.026 C 
ATOM     22  C   UNL     1      33.031 -14.240 -24.664  0.00  0.00    +0.003 C 
ATOM     23  C   UNL     1      33.419 -12.163 -25.836  0.00  0.00    +0.003 C 
ATOM     24  C   UNL     1      33.022 -14.924 -25.880  0.00  0.00    +0.036 C 
ATOM     25  C   UNL     1      33.410 -12.847 -27.052  0.00  0.00    +0.036 C 
ATOM     26  C   UNL     1      33.211 -14.228 -27.074  0.00  0.00    +0.134 C 
BRANCH  26  27
ATOM     27  O   UNL     1      33.202 -14.896 -28.259  0.00  0.00    -0.506 OA
ATOM     28  H   UNL     1      33.547 -15.766 -28.310  0.00  0.00    +0.292 HD
ENDBRANCH  26  27
ENDBRANCH   4  21
TORSDOF 4
ENDMDL
