MODEL 1
REMARK VINA RESULT:     -10.2      0.000      0.000
REMARK  Name = 5740
REMARK  8 active torsions:
REMARK  status: ('A' for Active; 'I' for Inactive)
REMARK    1  A    between atoms: N_1  and  C_13
REMARK    2  A    between atoms: C_8  and  O_27
REMARK    3  A    between atoms: C_9  and  O_30
REMARK    4  A    between atoms: C_14  and  C_21
REMARK    5  A    between atoms: C_23  and  C_24
REMARK    6  A    between atoms: C_24  and  O_25
REMARK    7  A    between atoms: O_27  and  C_28
REMARK    8  A    between atoms: O_30  and  C_31
REMARK                            x       y       z     vdW  Elec       q    Type
REMARK                         _______ _______ _______ _____ _____    ______ ____
ROOT
ATOM      1  N   UNL     1      34.524 -15.286 -22.972  0.00  0.00    -0.301 N 
ATOM      2  N   UNL     1      31.947 -13.083 -20.599  0.00  0.00    -0.248 NA
ATOM      3  N   UNL     1      33.179 -15.104 -21.051  0.00  0.00    -0.233 NA
ATOM      4  C   UNL     1      33.306 -13.228 -22.569  0.00  0.00    +0.119 C 
ATOM      5  C   UNL     1      32.429 -12.528 -21.725  0.00  0.00    +0.070 C 
ATOM      6  C   UNL     1      33.642 -14.519 -22.171  0.00  0.00    +0.115 C 
ATOM      7  C   UNL     1      33.804 -12.638 -23.744  0.00  0.00    +0.027 C 
ATOM      8  C   UNL     1      33.428 -11.341 -24.085  0.00  0.00    +0.169 C 
ATOM      9  C   UNL     1      32.560 -10.640 -23.257  0.00  0.00    +0.173 C 
ATOM     10  C   UNL     1      32.069 -11.233 -22.091  0.00  0.00    +0.055 C 
ATOM     11  C   UNL     1      32.348 -14.341 -20.323  0.00  0.00    +0.251 C 
ATOM     12  H   UNL     1      35.179 -14.746 -23.471  0.00  0.00    +0.153 HD
ENDROOT
BRANCH   1  13
ATOM     13  C   UNL     1      34.643 -16.667 -23.194  0.00  0.00    +0.049 C 
ATOM     14  C   UNL     1      34.974 -18.910 -22.340  0.00  0.00    +0.028 C 
ATOM     15  C   UNL     1      34.855 -17.537 -22.120  0.00  0.00    +0.017 C 
ATOM     16  C   UNL     1      34.549 -17.182 -24.490  0.00  0.00    +0.015 C 
ATOM     17  C   UNL     1      34.880 -19.418 -23.635  0.00  0.00    +0.002 C 
ATOM     18  C   UNL     1      34.668 -18.555 -24.710  0.00  0.00    +0.001 C 
BRANCH  14  21
ATOM     19  S   UNL     1      36.309 -21.095 -19.366  0.00  0.00    -0.077 S 
ATOM     20  N   UNL     1      34.161 -20.542 -20.693  0.00  0.00    -0.401 NA
ATOM     21  C   UNL     1      35.191 -19.799 -21.234  0.00  0.00    +0.121 C 
ATOM     22  C   UNL     1      36.428 -19.964 -20.648  0.00  0.00    +0.123 C 
ATOM     23  C   UNL     1      34.635 -21.263 -19.701  0.00  0.00    +0.164 C 
BRANCH  23  24
ATOM     24  C   UNL     1      33.825 -22.187 -18.878  0.00  0.00    +0.203 C 
BRANCH  24  25
ATOM     25  O   UNL     1      33.912 -23.483 -19.468  0.00  0.00    -0.375 OA
ATOM     26  H   UNL     1      34.012 -23.395 -20.429  0.00  0.00    +0.211 HD
ENDBRANCH  24  25
ENDBRANCH  23  24
ENDBRANCH  14  21
ENDBRANCH   1  13
BRANCH   8  27
ATOM     27  O   UNL     1      33.915 -10.776 -25.224  0.00  0.00    -0.473 OA
BRANCH  27  28
ATOM     28  C   UNL     1      35.272 -10.336 -25.201  0.00  0.00    +0.206 C 
ATOM     29  C   UNL     1      35.829 -10.382 -26.608  0.00  0.00    +0.051 C 
ENDBRANCH  27  28
ENDBRANCH   8  27
BRANCH   9  30
ATOM     30  O   UNL     1      32.178  -9.370 -23.571  0.00  0.00    -0.472 OA
BRANCH  30  31
ATOM     31  C   UNL     1      32.495  -8.346 -22.630  0.00  0.00    +0.206 C 
ATOM     32  C   UNL     1      33.862  -7.783 -22.954  0.00  0.00    +0.051 C 
ENDBRANCH  30  31
ENDBRANCH   9  30
TORSDOF 8
ENDMDL
MODEL 2
REMARK VINA RESULT:      -9.7      2.741      4.275
REMARK  Name = 5740
REMARK  8 active torsions:
REMARK  status: ('A' for Active; 'I' for Inactive)
REMARK    1  A    between atoms: N_1  and  C_13
REMARK    2  A    between atoms: C_8  and  O_27
REMARK    3  A    between atoms: C_9  and  O_30
REMARK    4  A    between atoms: C_14  and  C_21
REMARK    5  A    between atoms: C_23  and  C_24
REMARK    6  A    between atoms: C_24  and  O_25
REMARK    7  A    between atoms: O_27  and  C_28
REMARK    8  A    between atoms: O_30  and  C_31
REMARK                            x       y       z     vdW  Elec       q    Type
REMARK                         _______ _______ _______ _____ _____    ______ ____
ROOT
ATOM      1  N   UNL     1      33.656 -11.788 -23.892  0.00  0.00    -0.301 N 
ATOM      2  N   UNL     1      31.174 -10.253 -20.959  0.00  0.00    -0.248 NA
ATOM      3  N   UNL     1      32.119 -12.126 -22.144  0.00  0.00    -0.233 NA
ATOM      4  C   UNL     1      32.736  -9.865 -22.735  0.00  0.00    +0.119 C 
ATOM      5  C   UNL     1      31.878  -9.402 -21.724  0.00  0.00    +0.070 C 
ATOM      6  C   UNL     1      32.810 -11.247 -22.893  0.00  0.00    +0.115 C 
ATOM      7  C   UNL     1      33.469  -8.967 -23.530  0.00  0.00    +0.027 C 
ATOM      8  C   UNL     1      33.350  -7.595 -23.320  0.00  0.00    +0.169 C 
ATOM      9  C   UNL     1      32.504  -7.126 -22.323  0.00  0.00    +0.173 C 
ATOM     10  C   UNL     1      31.779  -8.026 -21.537  0.00  0.00    +0.055 C 
ATOM     11  C   UNL     1      31.331 -11.569 -21.210  0.00  0.00    +0.251 C 
ATOM     12  H   UNL     1      34.447 -11.235 -24.086  0.00  0.00    +0.153 HD
ENDROOT
BRANCH   1  13
ATOM     13  C   UNL     1      33.583 -12.961 -24.662  0.00  0.00    +0.049 C 
ATOM     14  C   UNL     1      33.884 -15.354 -24.875  0.00  0.00    +0.028 C 
ATOM     15  C   UNL     1      33.956 -14.190 -24.110  0.00  0.00    +0.017 C 
ATOM     16  C   UNL     1      33.136 -12.906 -25.985  0.00  0.00    +0.015 C 
ATOM     17  C   UNL     1      33.438 -15.295 -26.194  0.00  0.00    +0.002 C 
ATOM     18  C   UNL     1      33.064 -14.071 -26.750  0.00  0.00    +0.001 C 
BRANCH  14  21
ATOM     19  S   UNL     1      34.834 -19.070 -24.040  0.00  0.00    -0.077 S 
ATOM     20  N   UNL     1      34.576 -16.735 -22.962  0.00  0.00    -0.401 NA
ATOM     21  C   UNL     1      34.267 -16.615 -24.302  0.00  0.00    +0.121 C 
ATOM     22  C   UNL     1      34.350 -17.771 -25.048  0.00  0.00    +0.123 C 
ATOM     23  C   UNL     1      34.890 -17.986 -22.711  0.00  0.00    +0.164 C 
BRANCH  23  24
ATOM     24  C   UNL     1      35.280 -18.499 -21.380  0.00  0.00    +0.203 C 
BRANCH  24  25
ATOM     25  O   UNL     1      35.423 -17.380 -20.508  0.00  0.00    -0.375 OA
ATOM     26  H   UNL     1      34.648 -16.802 -20.592  0.00  0.00    +0.211 HD
ENDBRANCH  24  25
ENDBRANCH  23  24
ENDBRANCH  14  21
ENDBRANCH   1  13
BRANCH   8  27
ATOM     27  O   UNL     1      34.064  -6.731 -24.093  0.00  0.00    -0.473 OA
BRANCH  27  28
ATOM     28  C   UNL     1      33.407  -6.188 -25.237  0.00  0.00    +0.206 C 
ATOM     29  C   UNL     1      34.445  -5.602 -26.170  0.00  0.00    +0.051 C 
ENDBRANCH  27  28
ENDBRANCH   8  27
BRANCH   9  30
ATOM     30  O   UNL     1      32.372  -5.788 -22.100  0.00  0.00    -0.472 OA
BRANCH  30  31
ATOM     31  C   UNL     1      31.102  -5.205 -22.388  0.00  0.00    +0.206 C 
ATOM     32  C   UNL     1      31.313  -3.909 -23.141  0.00  0.00    +0.051 C 
ENDBRANCH  30  31
ENDBRANCH   9  30
TORSDOF 8
ENDMDL
MODEL 3
REMARK VINA RESULT:      -9.6      2.534      4.680
REMARK  Name = 5740
REMARK  8 active torsions:
REMARK  status: ('A' for Active; 'I' for Inactive)
REMARK    1  A    between atoms: N_1  and  C_13
REMARK    2  A    between atoms: C_8  and  O_27
REMARK    3  A    between atoms: C_9  and  O_30
REMARK    4  A    between atoms: C_14  and  C_21
REMARK    5  A    between atoms: C_23  and  C_24
REMARK    6  A    between atoms: C_24  and  O_25
REMARK    7  A    between atoms: O_27  and  C_28
REMARK    8  A    between atoms: O_30  and  C_31
REMARK                            x       y       z     vdW  Elec       q    Type
REMARK                         _______ _______ _______ _____ _____    ______ ____
ROOT
ATOM      1  N   UNL     1      34.467 -18.455 -21.510  0.00  0.00    -0.301 N 
ATOM      2  N   UNL     1      34.374 -17.304 -25.484  0.00  0.00    -0.248 NA
ATOM      3  N   UNL     1      34.655 -18.997 -23.792  0.00  0.00    -0.233 NA
ATOM      4  C   UNL     1      34.176 -16.711 -23.169  0.00  0.00    +0.119 C 
ATOM      5  C   UNL     1      34.156 -16.379 -24.534  0.00  0.00    +0.070 C 
ATOM      6  C   UNL     1      34.433 -18.046 -22.866  0.00  0.00    +0.115 C 
ATOM      7  C   UNL     1      33.946 -15.735 -22.184  0.00  0.00    +0.027 C 
ATOM      8  C   UNL     1      33.694 -14.417 -22.555  0.00  0.00    +0.169 C 
ATOM      9  C   UNL     1      33.673 -14.077 -23.902  0.00  0.00    +0.173 C 
ATOM     10  C   UNL     1      33.902 -15.053 -24.876  0.00  0.00    +0.055 C 
ATOM     11  C   UNL     1      34.613 -18.563 -25.062  0.00  0.00    +0.251 C 
ATOM     12  H   UNL     1      33.882 -17.928 -20.920  0.00  0.00    +0.153 HD
ENDROOT
BRANCH   1  13
ATOM     13  C   UNL     1      35.177 -19.468 -20.845  0.00  0.00    +0.049 C 
ATOM     14  C   UNL     1      35.231 -21.310 -19.273  0.00  0.00    +0.028 C 
ATOM     15  C   UNL     1      34.525 -20.304 -19.934  0.00  0.00    +0.017 C 
ATOM     16  C   UNL     1      36.542 -19.647 -21.090  0.00  0.00    +0.015 C 
ATOM     17  C   UNL     1      36.592 -21.484 -19.521  0.00  0.00    +0.002 C 
ATOM     18  C   UNL     1      37.248 -20.653 -20.430  0.00  0.00    +0.001 C 
BRANCH  14  21
ATOM     19  S   UNL     1      32.757 -23.507 -17.163  0.00  0.00    -0.077 S 
ATOM     20  N   UNL     1      35.224 -22.747 -17.279  0.00  0.00    -0.401 NA
ATOM     21  C   UNL     1      34.556 -22.167 -18.339  0.00  0.00    +0.121 C 
ATOM     22  C   UNL     1      33.213 -22.461 -18.442  0.00  0.00    +0.123 C 
ATOM     23  C   UNL     1      34.374 -23.476 -16.591  0.00  0.00    +0.164 C 
BRANCH  23  24
ATOM     24  C   UNL     1      34.725 -24.252 -15.382  0.00  0.00    +0.203 C 
BRANCH  24  25
ATOM     25  O   UNL     1      35.855 -25.061 -15.699  0.00  0.00    -0.375 OA
ATOM     26  H   UNL     1      36.105 -24.920 -16.626  0.00  0.00    +0.211 HD
ENDBRANCH  24  25
ENDBRANCH  23  24
ENDBRANCH  14  21
ENDBRANCH   1  13
BRANCH   8  27
ATOM     27  O   UNL     1      33.471 -13.478 -21.595  0.00  0.00    -0.473 OA
BRANCH  27  28
ATOM     28  C   UNL     1      32.155 -13.408 -21.049  0.00  0.00    +0.206 C 
ATOM     29  C   UNL     1      31.604 -12.014 -21.267  0.00  0.00    +0.051 C 
ENDBRANCH  27  28
ENDBRANCH   8  27
BRANCH   9  30
ATOM     30  O   UNL     1      33.428 -12.793 -24.288  0.00  0.00    -0.472 OA
BRANCH  30  31
ATOM     31  C   UNL     1      33.801 -12.434 -25.617  0.00  0.00    +0.206 C 
ATOM     32  C   UNL     1      34.546 -11.116 -25.581  0.00  0.00    +0.051 C 
ENDBRANCH  30  31
ENDBRANCH   9  30
TORSDOF 8
ENDMDL
MODEL 4
REMARK VINA RESULT:      -9.5      2.831      5.327
REMARK  Name = 5740
REMARK  8 active torsions:
REMARK  status: ('A' for Active; 'I' for Inactive)
REMARK    1  A    between atoms: N_1  and  C_13
REMARK    2  A    between atoms: C_8  and  O_27
REMARK    3  A    between atoms: C_9  and  O_30
REMARK    4  A    between atoms: C_14  and  C_21
REMARK    5  A    between atoms: C_23  and  C_24
REMARK    6  A    between atoms: C_24  and  O_25
REMARK    7  A    between atoms: O_27  and  C_28
REMARK    8  A    between atoms: O_30  and  C_31
REMARK                            x       y       z     vdW  Elec       q    Type
REMARK                         _______ _______ _______ _____ _____    ______ ____
ROOT
ATOM      1  N   UNL     1      33.891 -19.174 -20.959  0.00  0.00    -0.301 N 
ATOM      2  N   UNL     1      34.979 -17.747 -24.688  0.00  0.00    -0.248 NA
ATOM      3  N   UNL     1      34.615 -19.575 -23.161  0.00  0.00    -0.233 NA
ATOM      4  C   UNL     1      34.242 -17.295 -22.451  0.00  0.00    +0.119 C 
ATOM      5  C   UNL     1      34.621 -16.869 -23.735  0.00  0.00    +0.070 C 
ATOM      6  C   UNL     1      34.262 -18.670 -22.230  0.00  0.00    +0.115 C 
ATOM      7  C   UNL     1      33.868 -16.368 -21.462  0.00  0.00    +0.027 C 
ATOM      8  C   UNL     1      33.870 -15.006 -21.748  0.00  0.00    +0.169 C 
ATOM      9  C   UNL     1      34.243 -14.573 -23.015  0.00  0.00    +0.173 C 
ATOM     10  C   UNL     1      34.613 -15.500 -23.993  0.00  0.00    +0.055 C 
ATOM     11  C   UNL     1      34.958 -19.052 -24.349  0.00  0.00    +0.251 C 
ATOM     12  H   UNL     1      33.232 -18.617 -20.487  0.00  0.00    +0.153 HD
ENDROOT
BRANCH   1  13
ATOM     13  C   UNL     1      34.284 -20.316 -20.242  0.00  0.00    +0.049 C 
ATOM     14  C   UNL     1      33.817 -22.019 -18.585  0.00  0.00    +0.028 C 
ATOM     15  C   UNL     1      33.426 -20.885 -19.297  0.00  0.00    +0.017 C 
ATOM     16  C   UNL     1      35.538 -20.892 -20.470  0.00  0.00    +0.015 C 
ATOM     17  C   UNL     1      35.068 -22.590 -18.815  0.00  0.00    +0.002 C 
ATOM     18  C   UNL     1      35.929 -22.026 -19.758  0.00  0.00    +0.001 C 
BRANCH  14  21
ATOM     19  S   UNL     1      32.055 -23.856 -15.597  0.00  0.00    -0.077 S 
ATOM     20  N   UNL     1      31.560 -22.469 -17.721  0.00  0.00    -0.401 NA
ATOM     21  C   UNL     1      32.930 -22.601 -17.616  0.00  0.00    +0.121 C 
ATOM     22  C   UNL     1      33.388 -23.318 -16.531  0.00  0.00    +0.123 C 
ATOM     23  C   UNL     1      30.997 -23.092 -16.710  0.00  0.00    +0.164 C 
BRANCH  23  24
ATOM     24  C   UNL     1      29.537 -23.168 -16.484  0.00  0.00    +0.203 C 
BRANCH  24  25
ATOM     25  O   UNL     1      28.958 -21.962 -16.977  0.00  0.00    -0.375 OA
ATOM     26  H   UNL     1      29.427 -21.681 -17.778  0.00  0.00    +0.211 HD
ENDBRANCH  24  25
ENDBRANCH  23  24
ENDBRANCH  14  21
ENDBRANCH   1  13
BRANCH   8  27
ATOM     27  O   UNL     1      33.506 -14.115 -20.786  0.00  0.00    -0.473 OA
BRANCH  27  28
ATOM     28  C   UNL     1      32.120 -13.789 -20.695  0.00  0.00    +0.206 C 
ATOM     29  C   UNL     1      31.960 -12.285 -20.778  0.00  0.00    +0.051 C 
ENDBRANCH  27  28
ENDBRANCH   8  27
BRANCH   9  30
ATOM     30  O   UNL     1      34.252 -13.244 -23.318  0.00  0.00    -0.472 OA
BRANCH  30  31
ATOM     31  C   UNL     1      33.512 -12.836 -24.467  0.00  0.00    +0.206 C 
ATOM     32  C   UNL     1      34.022 -11.486 -24.928  0.00  0.00    +0.051 C 
ENDBRANCH  30  31
ENDBRANCH   9  30
TORSDOF 8
ENDMDL
MODEL 5
REMARK VINA RESULT:      -9.5      4.337      9.702
REMARK  Name = 5740
REMARK  8 active torsions:
REMARK  status: ('A' for Active; 'I' for Inactive)
REMARK    1  A    between atoms: N_1  and  C_13
REMARK    2  A    between atoms: C_8  and  O_27
REMARK    3  A    between atoms: C_9  and  O_30
REMARK    4  A    between atoms: C_14  and  C_21
REMARK    5  A    between atoms: C_23  and  C_24
REMARK    6  A    between atoms: C_24  and  O_25
REMARK    7  A    between atoms: O_27  and  C_28
REMARK    8  A    between atoms: O_30  and  C_31
REMARK                            x       y       z     vdW  Elec       q    Type
REMARK                         _______ _______ _______ _____ _____    ______ ____
ROOT
ATOM      1  N   UNL     1      32.021 -12.746 -22.209  0.00  0.00    -0.301 N 
ATOM      2  N   UNL     1      33.917 -16.202 -20.951  0.00  0.00    -0.248 NA
ATOM      3  N   UNL     1      32.752 -14.149 -20.468  0.00  0.00    -0.233 NA
ATOM      4  C   UNL     1      33.189 -14.799 -22.754  0.00  0.00    +0.119 C 
ATOM      5  C   UNL     1      33.821 -15.956 -22.269  0.00  0.00    +0.070 C 
ATOM      6  C   UNL     1      32.674 -13.933 -21.794  0.00  0.00    +0.115 C 
ATOM      7  C   UNL     1      33.094 -14.552 -24.135  0.00  0.00    +0.027 C 
ATOM      8  C   UNL     1      33.631 -15.460 -25.043  0.00  0.00    +0.169 C 
ATOM      9  C   UNL     1      34.259 -16.608 -24.575  0.00  0.00    +0.173 C 
ATOM     10  C   UNL     1      34.350 -16.846 -23.200  0.00  0.00    +0.055 C 
ATOM     11  C   UNL     1      33.378 -15.285 -20.121  0.00  0.00    +0.251 C 
ATOM     12  H   UNL     1      31.575 -12.821 -23.083  0.00  0.00    +0.153 HD
ENDROOT
BRANCH   1  13
ATOM     13  C   UNL     1      31.889 -11.480 -21.614  0.00  0.00    +0.049 C 
ATOM     14  C   UNL     1      31.903  -9.065 -21.790  0.00  0.00    +0.028 C 
ATOM     15  C   UNL     1      32.033 -10.321 -22.382  0.00  0.00    +0.017 C 
ATOM     16  C   UNL     1      31.611 -11.372 -20.247  0.00  0.00    +0.015 C 
ATOM     17  C   UNL     1      31.626  -8.962 -20.428  0.00  0.00    +0.002 C 
ATOM     18  C   UNL     1      31.480 -10.115 -19.656  0.00  0.00    +0.001 C 
BRANCH  14  21
ATOM     19  S   UNL     1      32.823  -6.249 -24.365  0.00  0.00    -0.077 S 
ATOM     20  N   UNL     1      31.333  -6.731 -22.309  0.00  0.00    -0.401 NA
ATOM     21  C   UNL     1      32.051  -7.877 -22.585  0.00  0.00    +0.121 C 
ATOM     22  C   UNL     1      32.909  -7.810 -23.661  0.00  0.00    +0.123 C 
ATOM     23  C   UNL     1      31.660  -5.807 -23.185  0.00  0.00    +0.164 C 
BRANCH  23  24
ATOM     24  C   UNL     1      31.094  -4.440 -23.208  0.00  0.00    +0.203 C 
BRANCH  24  25
ATOM     25  O   UNL     1      30.376  -4.247 -21.992  0.00  0.00    -0.375 OA
ATOM     26  H   UNL     1      30.315  -5.089 -21.514  0.00  0.00    +0.211 HD
ENDBRANCH  24  25
ENDBRANCH  23  24
ENDBRANCH  14  21
ENDBRANCH   1  13
BRANCH   8  27
ATOM     27  O   UNL     1      33.534 -15.215 -26.379  0.00  0.00    -0.473 OA
BRANCH  27  28
ATOM     28  C   UNL     1      32.712 -14.120 -26.779  0.00  0.00    +0.206 C 
ATOM     29  C   UNL     1      33.591 -13.026 -27.349  0.00  0.00    +0.051 C 
ENDBRANCH  27  28
ENDBRANCH   8  27
BRANCH   9  30
ATOM     30  O   UNL     1      34.792 -17.510 -25.445  0.00  0.00    -0.472 OA
BRANCH  30  31
ATOM     31  C   UNL     1      34.188 -18.802 -25.491  0.00  0.00    +0.206 C 
ATOM     32  C   UNL     1      35.020 -19.764 -24.670  0.00  0.00    +0.051 C 
ENDBRANCH  30  31
ENDBRANCH   9  30
TORSDOF 8
ENDMDL
MODEL 6
REMARK VINA RESULT:      -9.4      3.938      9.829
REMARK  Name = 5740
REMARK  8 active torsions:
REMARK  status: ('A' for Active; 'I' for Inactive)
REMARK    1  A    between atoms: N_1  and  C_13
REMARK    2  A    between atoms: C_8  and  O_27
REMARK    3  A    between atoms: C_9  and  O_30
REMARK    4  A    between atoms: C_14  and  C_21
REMARK    5  A    between atoms: C_23  and  C_24
REMARK    6  A    between atoms: C_24  and  O_25
REMARK    7  A    between atoms: O_27  and  C_28
REMARK    8  A    between atoms: O_30  and  C_31
REMARK                            x       y       z     vdW  Elec       q    Type
REMARK                         _______ _______ _______ _____ _____    ______ ____
ROOT
ATOM      1  N   UNL     1      33.595 -12.484 -23.708  0.00  0.00    -0.301 N 
ATOM      2  N   UNL     1      32.311 -14.300 -20.218  0.00  0.00    -0.248 NA
ATOM      3  N   UNL     1      32.412 -12.385 -21.677  0.00  0.00    -0.233 NA
ATOM      4  C   UNL     1      33.529 -14.442 -22.280  0.00  0.00    +0.119 C 
ATOM      5  C   UNL     1      33.064 -15.006 -21.080  0.00  0.00    +0.070 C 
ATOM      6  C   UNL     1      33.164 -13.119 -22.518  0.00  0.00    +0.115 C 
ATOM      7  C   UNL     1      34.314 -15.190 -23.174  0.00  0.00    +0.027 C 
ATOM      8  C   UNL     1      34.643 -16.510 -22.875  0.00  0.00    +0.169 C 
ATOM      9  C   UNL     1      34.189 -17.078 -21.691  0.00  0.00    +0.173 C 
ATOM     10  C   UNL     1      33.408 -16.328 -20.807  0.00  0.00    +0.055 C 
ATOM     11  C   UNL     1      32.027 -13.027 -20.563  0.00  0.00    +0.251 C 
ATOM     12  H   UNL     1      33.711 -13.099 -24.468  0.00  0.00    +0.153 HD
ENDROOT
BRANCH   1  13
ATOM     13  C   UNL     1      33.890 -11.145 -24.014  0.00  0.00    +0.049 C 
ATOM     14  C   UNL     1      33.536  -8.779 -23.640  0.00  0.00    +0.028 C 
ATOM     15  C   UNL     1      33.243 -10.108 -23.335  0.00  0.00    +0.017 C 
ATOM     16  C   UNL     1      34.835 -10.841 -24.999  0.00  0.00    +0.015 C 
ATOM     17  C   UNL     1      34.479  -8.480 -24.623  0.00  0.00    +0.002 C 
ATOM     18  C   UNL     1      35.128  -9.511 -25.302  0.00  0.00    +0.001 C 
BRANCH  14  21
ATOM     19  S   UNL     1      31.856  -6.313 -21.089  0.00  0.00    -0.077 S 
ATOM     20  N   UNL     1      32.373  -6.613 -23.604  0.00  0.00    -0.401 NA
ATOM     21  C   UNL     1      32.868  -7.717 -22.939  0.00  0.00    +0.121 C 
ATOM     22  C   UNL     1      32.685  -7.734 -21.573  0.00  0.00    +0.123 C 
ATOM     23  C   UNL     1      31.818  -5.806 -22.728  0.00  0.00    +0.164 C 
BRANCH  23  24
ATOM     24  C   UNL     1      31.177  -4.517 -23.068  0.00  0.00    +0.203 C 
BRANCH  24  25
ATOM     25  O   UNL     1      30.351  -4.140 -21.969  0.00  0.00    -0.375 OA
ATOM     26  H   UNL     1      29.419  -4.272 -22.205  0.00  0.00    +0.211 HD
ENDBRANCH  24  25
ENDBRANCH  23  24
ENDBRANCH  14  21
ENDBRANCH   1  13
BRANCH   8  27
ATOM     27  O   UNL     1      35.403 -17.228 -23.746  0.00  0.00    -0.473 OA
BRANCH  27  28
ATOM     28  C   UNL     1      34.781 -17.643 -24.961  0.00  0.00    +0.206 C 
ATOM     29  C   UNL     1      34.401 -19.104 -24.847  0.00  0.00    +0.051 C 
ENDBRANCH  27  28
ENDBRANCH   8  27
BRANCH   9  30
ATOM     30  O   UNL     1      34.499 -18.367 -21.379  0.00  0.00    -0.472 OA
BRANCH  30  31
ATOM     31  C   UNL     1      33.408 -19.264 -21.174  0.00  0.00    +0.206 C 
ATOM     32  C   UNL     1      33.864 -20.399 -20.281  0.00  0.00    +0.051 C 
ENDBRANCH  30  31
ENDBRANCH   9  30
TORSDOF 8
ENDMDL
MODEL 7
REMARK VINA RESULT:      -9.4      2.175      3.590
REMARK  Name = 5740
REMARK  8 active torsions:
REMARK  status: ('A' for Active; 'I' for Inactive)
REMARK    1  A    between atoms: N_1  and  C_13
REMARK    2  A    between atoms: C_8  and  O_27
REMARK    3  A    between atoms: C_9  and  O_30
REMARK    4  A    between atoms: C_14  and  C_21
REMARK    5  A    between atoms: C_23  and  C_24
REMARK    6  A    between atoms: C_24  and  O_25
REMARK    7  A    between atoms: O_27  and  C_28
REMARK    8  A    between atoms: O_30  and  C_31
REMARK                            x       y       z     vdW  Elec       q    Type
REMARK                         _______ _______ _______ _____ _____    ______ ____
ROOT
ATOM      1  N   UNL     1      32.981 -14.185 -24.046  0.00  0.00    -0.301 N 
ATOM      2  N   UNL     1      34.172 -10.307 -24.864  0.00  0.00    -0.248 NA
ATOM      3  N   UNL     1      34.179 -12.660 -25.379  0.00  0.00    -0.233 NA
ATOM      4  C   UNL     1      32.939 -11.827 -23.479  0.00  0.00    +0.119 C 
ATOM      5  C   UNL     1      33.374 -10.532 -23.806  0.00  0.00    +0.070 C 
ATOM      6  C   UNL     1      33.381 -12.851 -24.313  0.00  0.00    +0.115 C 
ATOM      7  C   UNL     1      32.105 -12.051 -22.371  0.00  0.00    +0.027 C 
ATOM      8  C   UNL     1      31.698 -10.982 -21.577  0.00  0.00    +0.169 C 
ATOM      9  C   UNL     1      32.123  -9.696 -21.891  0.00  0.00    +0.173 C 
ATOM     10  C   UNL     1      32.953  -9.481 -22.995  0.00  0.00    +0.055 C 
ATOM     11  C   UNL     1      34.532 -11.383 -25.594  0.00  0.00    +0.251 C 
ATOM     12  H   UNL     1      32.100 -14.257 -23.615  0.00  0.00    +0.153 HD
ENDROOT
BRANCH   1  13
ATOM     13  C   UNL     1      33.601 -15.423 -24.277  0.00  0.00    +0.049 C 
ATOM     14  C   UNL     1      34.577 -17.473 -23.434  0.00  0.00    +0.028 C 
ATOM     15  C   UNL     1      33.960 -16.243 -23.203  0.00  0.00    +0.017 C 
ATOM     16  C   UNL     1      33.864 -15.844 -25.585  0.00  0.00    +0.015 C 
ATOM     17  C   UNL     1      34.837 -17.889 -24.739  0.00  0.00    +0.002 C 
ATOM     18  C   UNL     1      34.480 -17.075 -25.815  0.00  0.00    +0.001 C 
BRANCH  14  21
ATOM     19  S   UNL     1      36.280 -19.435 -20.492  0.00  0.00    -0.077 S 
ATOM     20  N   UNL     1      34.031 -19.166 -21.737  0.00  0.00    -0.401 NA
ATOM     21  C   UNL     1      34.942 -18.313 -22.327  0.00  0.00    +0.121 C 
ATOM     22  C   UNL     1      36.211 -18.318 -21.790  0.00  0.00    +0.123 C 
ATOM     23  C   UNL     1      34.627 -19.808 -20.757  0.00  0.00    +0.164 C 
BRANCH  23  24
ATOM     24  C   UNL     1      33.967 -20.811 -19.893  0.00  0.00    +0.203 C 
BRANCH  24  25
ATOM     25  O   UNL     1      32.587 -20.463 -19.800  0.00  0.00    -0.375 OA
ATOM     26  H   UNL     1      32.209 -20.848 -18.994  0.00  0.00    +0.211 HD
ENDBRANCH  24  25
ENDBRANCH  23  24
ENDBRANCH  14  21
ENDBRANCH   1  13
BRANCH   8  27
ATOM     27  O   UNL     1      30.889 -11.207 -20.506  0.00  0.00    -0.473 OA
BRANCH  27  28
ATOM     28  C   UNL     1      31.514 -11.650 -19.302  0.00  0.00    +0.206 C 
ATOM     29  C   UNL     1      31.522 -10.512 -18.303  0.00  0.00    +0.051 C 
ENDBRANCH  27  28
ENDBRANCH   8  27
BRANCH   9  30
ATOM     30  O   UNL     1      31.738  -8.635 -21.129  0.00  0.00    -0.472 OA
BRANCH  30  31
ATOM     31  C   UNL     1      32.677  -7.572 -20.976  0.00  0.00    +0.206 C 
ATOM     32  C   UNL     1      31.949  -6.249 -21.101  0.00  0.00    +0.051 C 
ENDBRANCH  30  31
ENDBRANCH   9  30
TORSDOF 8
ENDMDL
MODEL 8
REMARK VINA RESULT:      -9.2      2.456      4.079
REMARK  Name = 5740
REMARK  8 active torsions:
REMARK  status: ('A' for Active; 'I' for Inactive)
REMARK    1  A    between atoms: N_1  and  C_13
REMARK    2  A    between atoms: C_8  and  O_27
REMARK    3  A    between atoms: C_9  and  O_30
REMARK    4  A    between atoms: C_14  and  C_21
REMARK    5  A    between atoms: C_23  and  C_24
REMARK    6  A    between atoms: C_24  and  O_25
REMARK    7  A    between atoms: O_27  and  C_28
REMARK    8  A    between atoms: O_30  and  C_31
REMARK                            x       y       z     vdW  Elec       q    Type
REMARK                         _______ _______ _______ _____ _____    ______ ____
ROOT
ATOM      1  N   UNL     1      32.921 -13.064 -24.381  0.00  0.00    -0.301 N 
ATOM      2  N   UNL     1      34.936  -9.472 -24.783  0.00  0.00    -0.248 NA
ATOM      3  N   UNL     1      34.529 -11.743 -25.478  0.00  0.00    -0.233 NA
ATOM      4  C   UNL     1      33.289 -10.785 -23.638  0.00  0.00    +0.119 C 
ATOM      5  C   UNL     1      34.004  -9.590 -23.822  0.00  0.00    +0.070 C 
ATOM      6  C   UNL     1      33.603 -11.828 -24.506  0.00  0.00    +0.115 C 
ATOM      7  C   UNL     1      32.316 -10.898 -22.630  0.00  0.00    +0.027 C 
ATOM      8  C   UNL     1      32.049  -9.816 -21.795  0.00  0.00    +0.169 C 
ATOM      9  C   UNL     1      32.751  -8.629 -21.968  0.00  0.00    +0.173 C 
ATOM     10  C   UNL     1      33.717  -8.524 -22.973  0.00  0.00    +0.055 C 
ATOM     11  C   UNL     1      35.149 -10.554 -25.559  0.00  0.00    +0.251 C 
ATOM     12  H   UNL     1      32.003 -12.979 -24.038  0.00  0.00    +0.153 HD
ENDROOT
BRANCH   1  13
ATOM     13  C   UNL     1      33.304 -14.388 -24.652  0.00  0.00    +0.049 C 
ATOM     14  C   UNL     1      34.122 -16.535 -23.887  0.00  0.00    +0.028 C 
ATOM     15  C   UNL     1      33.741 -15.221 -23.618  0.00  0.00    +0.017 C 
ATOM     16  C   UNL     1      33.250 -14.882 -25.959  0.00  0.00    +0.015 C 
ATOM     17  C   UNL     1      34.067 -17.023 -25.192  0.00  0.00    +0.002 C 
ATOM     18  C   UNL     1      33.631 -16.197 -26.228  0.00  0.00    +0.001 C 
BRANCH  14  21
ATOM     19  S   UNL     1      36.031 -18.501 -21.077  0.00  0.00    -0.077 S 
ATOM     20  N   UNL     1      33.720 -18.291 -22.215  0.00  0.00    -0.401 NA
ATOM     21  C   UNL     1      34.570 -17.387 -22.821  0.00  0.00    +0.121 C 
ATOM     22  C   UNL     1      35.861 -17.355 -22.340  0.00  0.00    +0.123 C 
ATOM     23  C   UNL     1      34.383 -18.934 -21.280  0.00  0.00    +0.164 C 
BRANCH  23  24
ATOM     24  C   UNL     1      33.803 -19.983 -20.414  0.00  0.00    +0.203 C 
BRANCH  24  25
ATOM     25  O   UNL     1      32.525 -20.326 -20.946  0.00  0.00    -0.375 OA
ATOM     26  H   UNL     1      32.631 -21.009 -21.628  0.00  0.00    +0.211 HD
ENDBRANCH  24  25
ENDBRANCH  23  24
ENDBRANCH  14  21
ENDBRANCH   1  13
BRANCH   8  27
ATOM     27  O   UNL     1      31.105  -9.932 -20.822  0.00  0.00    -0.473 OA
BRANCH  27  28
ATOM     28  C   UNL     1      31.106 -11.136 -20.057  0.00  0.00    +0.206 C 
ATOM     29  C   UNL     1      31.463 -10.809 -18.623  0.00  0.00    +0.051 C 
ENDBRANCH  27  28
ENDBRANCH   8  27
BRANCH   9  30
ATOM     30  O   UNL     1      32.507  -7.557 -21.163  0.00  0.00    -0.472 OA
BRANCH  30  31
ATOM     31  C   UNL     1      32.289  -6.301 -21.803  0.00  0.00    +0.206 C 
ATOM     32  C   UNL     1      30.887  -6.277 -22.377  0.00  0.00    +0.051 C 
ENDBRANCH  30  31
ENDBRANCH   9  30
TORSDOF 8
ENDMDL
MODEL 9
REMARK VINA RESULT:      -8.9      4.537      7.883
REMARK  Name = 5740
REMARK  8 active torsions:
REMARK  status: ('A' for Active; 'I' for Inactive)
REMARK    1  A    between atoms: N_1  and  C_13
REMARK    2  A    between atoms: C_8  and  O_27
REMARK    3  A    between atoms: C_9  and  O_30
REMARK    4  A    between atoms: C_14  and  C_21
REMARK    5  A    between atoms: C_23  and  C_24
REMARK    6  A    between atoms: C_24  and  O_25
REMARK    7  A    between atoms: O_27  and  C_28
REMARK    8  A    between atoms: O_30  and  C_31
REMARK                            x       y       z     vdW  Elec       q    Type
REMARK                         _______ _______ _______ _____ _____    ______ ____
ROOT
ATOM      1  N   UNL     1      33.245 -21.579 -19.066  0.00  0.00    -0.301 N 
ATOM      2  N   UNL     1      36.916 -20.600 -20.707  0.00  0.00    -0.248 NA
ATOM      3  N   UNL     1      35.516 -22.081 -19.422  0.00  0.00    -0.233 NA
ATOM      4  C   UNL     1      34.607 -20.051 -20.367  0.00  0.00    +0.119 C 
ATOM      5  C   UNL     1      35.876 -19.771 -20.900  0.00  0.00    +0.070 C 
ATOM      6  C   UNL     1      34.496 -21.230 -19.634  0.00  0.00    +0.115 C 
ATOM      7  C   UNL     1      33.525 -19.177 -20.576  0.00  0.00    +0.027 C 
ATOM      8  C   UNL     1      33.704 -18.014 -21.320  0.00  0.00    +0.169 C 
ATOM      9  C   UNL     1      34.955 -17.726 -21.851  0.00  0.00    +0.173 C 
ATOM     10  C   UNL     1      36.025 -18.600 -21.640  0.00  0.00    +0.055 C 
ATOM     11  C   UNL     1      36.680 -21.710 -19.977  0.00  0.00    +0.251 C 
ATOM     12  H   UNL     1      32.471 -21.252 -19.578  0.00  0.00    +0.153 HD
ENDROOT
BRANCH   1  13
ATOM     13  C   UNL     1      32.897 -22.302 -17.913  0.00  0.00    +0.049 C 
ATOM     14  C   UNL     1      33.542 -23.629 -15.993  0.00  0.00    +0.028 C 
ATOM     15  C   UNL     1      33.889 -22.911 -17.138  0.00  0.00    +0.017 C 
ATOM     16  C   UNL     1      31.557 -22.417 -17.533  0.00  0.00    +0.015 C 
ATOM     17  C   UNL     1      32.204 -23.741 -15.618  0.00  0.00    +0.002 C 
ATOM     18  C   UNL     1      31.211 -23.135 -16.388  0.00  0.00    +0.001 C 
BRANCH  14  21
ATOM     19  S   UNL     1      36.082 -24.849 -13.260  0.00  0.00    -0.077 S 
ATOM     20  N   UNL     1      35.376 -25.242 -15.715  0.00  0.00    -0.401 NA
ATOM     21  C   UNL     1      34.565 -24.252 -15.199  0.00  0.00    +0.121 C 
ATOM     22  C   UNL     1      34.796 -23.904 -13.886  0.00  0.00    +0.123 C 
ATOM     23  C   UNL     1      36.215 -25.632 -14.781  0.00  0.00    +0.164 C 
BRANCH  23  24
ATOM     24  C   UNL     1      37.241 -26.681 -14.963  0.00  0.00    +0.203 C 
BRANCH  24  25
ATOM     25  O   UNL     1      36.995 -27.315 -16.216  0.00  0.00    -0.375 OA
ATOM     26  H   UNL     1      36.488 -28.129 -16.074  0.00  0.00    +0.211 HD
ENDBRANCH  24  25
ENDBRANCH  23  24
ENDBRANCH  14  21
ENDBRANCH   1  13
BRANCH   8  27
ATOM     27  O   UNL     1      32.652 -17.174 -21.519  0.00  0.00    -0.473 OA
BRANCH  27  28
ATOM     28  C   UNL     1      32.453 -16.142 -20.553  0.00  0.00    +0.206 C 
ATOM     29  C   UNL     1      32.583 -14.797 -21.235  0.00  0.00    +0.051 C 
ENDBRANCH  27  28
ENDBRANCH   8  27
BRANCH   9  30
ATOM     30  O   UNL     1      35.153 -16.594 -22.583  0.00  0.00    -0.472 OA
BRANCH  30  31
ATOM     31  C   UNL     1      35.062 -16.714 -24.001  0.00  0.00    +0.206 C 
ATOM     32  C   UNL     1      33.950 -15.817 -24.503  0.00  0.00    +0.051 C 
ENDBRANCH  30  31
ENDBRANCH   9  30
TORSDOF 8
ENDMDL
