MODEL 1
REMARK VINA RESULT:     -11.4      0.000      0.000
REMARK  Name = 4261
REMARK  8 active torsions:
REMARK  status: ('A' for Active; 'I' for Inactive)
REMARK    1  A    between atoms: C_1  and  C_20
REMARK    2  A    between atoms: C_2  and  C_9
REMARK    3  A    between atoms: N_8  and  C_11
REMARK    4  A    between atoms: C_12  and  N_17
REMARK    5  A    between atoms: C_20  and  N_22
REMARK    6  A    between atoms: C_23  and  O_25
REMARK    7  A    between atoms: O_25  and  C_26
REMARK    8  A    between atoms: C_26  and  C_28
REMARK                            x       y       z     vdW  Elec       q    Type
REMARK                         _______ _______ _______ _____ _____    ______ ____
ROOT
ATOM      1  C   UNL     1      35.199 -20.055 -20.569  0.00  0.00    -0.002 C 
ATOM      2  C   UNL     1      34.052 -22.017 -18.968  0.00  0.00    +0.054 C 
ATOM      3  C   UNL     1      36.015 -20.902 -19.827  0.00  0.00    -0.002 C 
ATOM      4  C   UNL     1      33.815 -20.179 -20.518  0.00  0.00    -0.002 C 
ATOM      5  C   UNL     1      35.440 -21.886 -19.025  0.00  0.00    +0.004 C 
ATOM      6  C   UNL     1      33.240 -21.163 -19.715  0.00  0.00    +0.004 C 
ENDROOT
BRANCH   2   9
ATOM      7  O   UNL     1      33.599 -24.236 -18.438  0.00  0.00    -0.270 OA
ATOM      8  N   UNL     1      32.760 -22.582 -17.000  0.00  0.00    -0.279 N 
ATOM      9  C   UNL     1      33.452 -23.042 -18.130  0.00  0.00    +0.250 C 
ATOM     10  H   UNL     1      32.728 -21.604 -16.887  0.00  0.00    +0.155 HD
BRANCH   8  11
ATOM     11  C   UNL     1      32.103 -23.338 -16.000  0.00  0.00    +0.064 C 
ATOM     12  C   UNL     1      30.720 -23.423 -15.981  0.00  0.00    +0.055 C 
ATOM     13  C   UNL     1      32.877 -23.986 -15.049  0.00  0.00    +0.016 C 
ATOM     14  C   UNL     1      30.095 -24.175 -14.986  0.00  0.00    +0.015 C 
ATOM     15  C   UNL     1      32.252 -24.737 -14.055  0.00  0.00    +0.001 C 
ATOM     16  C   UNL     1      30.860 -24.831 -14.023  0.00  0.00    +0.001 C 
BRANCH  12  17
ATOM     17  N   UNL     1      29.924 -22.767 -16.947  0.00  0.00    -0.356 N 
ATOM     18  H   UNL     1      30.143 -21.847 -17.221  0.00  0.00    +0.142 HD
ATOM     19  H   UNL     1      29.152 -23.229 -17.346  0.00  0.00    +0.142 HD
ENDBRANCH  12  17
ENDBRANCH   8  11
ENDBRANCH   2   9
BRANCH   1  20
ATOM     20  C   UNL     1      35.818 -18.996 -21.434  0.00  0.00    +0.119 C 
BRANCH  20  22
ATOM     21  O   UNL     1      35.259 -16.433 -20.189  0.00  0.00    -0.226 OA
ATOM     22  N   UNL     1      34.853 -18.003 -21.847  0.00  0.00    -0.267 N 
ATOM     23  C   UNL     1      34.657 -16.808 -21.189  0.00  0.00    +0.402 C 
ATOM     24  H   UNL     1      34.305 -18.191 -22.643  0.00  0.00    +0.153 HD
BRANCH  23  25
ATOM     25  O   UNL     1      33.680 -16.090 -21.821  0.00  0.00    -0.430 OA
BRANCH  25  26
ATOM     26  C   UNL     1      34.103 -14.867 -22.436  0.00  0.00    +0.238 C 
BRANCH  26  28
ATOM     27  N   UNL     1      33.788 -16.076 -25.991  0.00  0.00    -0.243 NA
ATOM     28  C   UNL     1      33.741 -14.901 -23.892  0.00  0.00    +0.040 C 
ATOM     29  C   UNL     1      33.058 -13.846 -24.472  0.00  0.00    +0.002 C 
ATOM     30  C   UNL     1      34.083 -15.982 -24.675  0.00  0.00    +0.098 C 
ATOM     31  C   UNL     1      32.736 -13.906 -25.823  0.00  0.00    +0.020 C 
ATOM     32  C   UNL     1      33.120 -15.032 -26.533  0.00  0.00    +0.099 C 
ENDBRANCH  26  28
ENDBRANCH  25  26
ENDBRANCH  23  25
ENDBRANCH  20  22
ENDBRANCH   1  20
TORSDOF 8
ENDMDL
MODEL 2
REMARK VINA RESULT:     -11.2      3.892      7.271
REMARK  Name = 4261
REMARK  8 active torsions:
REMARK  status: ('A' for Active; 'I' for Inactive)
REMARK    1  A    between atoms: C_1  and  C_20
REMARK    2  A    between atoms: C_2  and  C_9
REMARK    3  A    between atoms: N_8  and  C_11
REMARK    4  A    between atoms: C_12  and  N_17
REMARK    5  A    between atoms: C_20  and  N_22
REMARK    6  A    between atoms: C_23  and  O_25
REMARK    7  A    between atoms: O_25  and  C_26
REMARK    8  A    between atoms: C_26  and  C_28
REMARK                            x       y       z     vdW  Elec       q    Type
REMARK                         _______ _______ _______ _____ _____    ______ ____
ROOT
ATOM      1  C   UNL     1      33.856 -13.867 -23.919  0.00  0.00    -0.002 C 
ATOM      2  C   UNL     1      34.436 -15.913 -22.127  0.00  0.00    +0.054 C 
ATOM      3  C   UNL     1      34.057 -15.159 -24.392  0.00  0.00    -0.002 C 
ATOM      4  C   UNL     1      33.942 -13.588 -22.560  0.00  0.00    -0.002 C 
ATOM      5  C   UNL     1      34.347 -16.185 -23.493  0.00  0.00    +0.004 C 
ATOM      6  C   UNL     1      34.233 -14.613 -21.661  0.00  0.00    +0.004 C 
ENDROOT
BRANCH   2   9
ATOM      7  O   UNL     1      35.330 -16.708 -20.134  0.00  0.00    -0.270 OA
ATOM      8  N   UNL     1      34.307 -18.263 -21.563  0.00  0.00    -0.279 N 
ATOM      9  C   UNL     1      34.740 -16.982 -21.191  0.00  0.00    +0.250 C 
ATOM     10  H   UNL     1      33.852 -18.324 -22.434  0.00  0.00    +0.155 HD
BRANCH   8  11
ATOM     11  C   UNL     1      34.438 -19.479 -20.851  0.00  0.00    +0.064 C 
ATOM     12  C   UNL     1      35.693 -19.990 -20.562  0.00  0.00    +0.055 C 
ATOM     13  C   UNL     1      33.284 -20.137 -20.454  0.00  0.00    +0.016 C 
ATOM     14  C   UNL     1      35.796 -21.191 -19.858  0.00  0.00    +0.015 C 
ATOM     15  C   UNL     1      33.387 -21.336 -19.750  0.00  0.00    +0.001 C 
ATOM     16  C   UNL     1      34.644 -21.863 -19.452  0.00  0.00    +0.001 C 
BRANCH  12  17
ATOM     17  N   UNL     1      36.874 -19.326 -20.962  0.00  0.00    -0.356 N 
ATOM     18  H   UNL     1      37.081 -19.226 -21.919  0.00  0.00    +0.142 HD
ATOM     19  H   UNL     1      37.488 -18.963 -20.284  0.00  0.00    +0.142 HD
ENDBRANCH  12  17
ENDBRANCH   8  11
ENDBRANCH   2   9
BRANCH   1  20
ATOM     20  C   UNL     1      33.542 -12.763 -24.886  0.00  0.00    +0.119 C 
BRANCH  20  22
ATOM     21  O   UNL     1      35.122 -10.326 -24.857  0.00  0.00    -0.226 OA
ATOM     22  N   UNL     1      33.243 -11.521 -24.210  0.00  0.00    -0.267 N 
ATOM     23  C   UNL     1      34.058 -10.411 -24.254  0.00  0.00    +0.402 C 
ATOM     24  H   UNL     1      32.409 -11.466 -23.689  0.00  0.00    +0.153 HD
BRANCH  23  25
ATOM     25  O   UNL     1      33.503  -9.402 -23.517  0.00  0.00    -0.430 OA
BRANCH  25  26
ATOM     26  C   UNL     1      32.112  -9.548 -23.207  0.00  0.00    +0.238 C 
BRANCH  26  28
ATOM     27  N   UNL     1      32.217  -9.052 -19.473  0.00  0.00    -0.243 NA
ATOM     28  C   UNL     1      31.964  -9.821 -21.739  0.00  0.00    +0.040 C 
ATOM     29  C   UNL     1      31.463 -11.032 -21.295  0.00  0.00    +0.002 C 
ATOM     30  C   UNL     1      32.324  -8.870 -20.809  0.00  0.00    +0.098 C 
ATOM     31  C   UNL     1      31.338 -11.257 -19.930  0.00  0.00    +0.020 C 
ATOM     32  C   UNL     1      31.725 -10.244 -19.067  0.00  0.00    +0.099 C 
ENDBRANCH  26  28
ENDBRANCH  25  26
ENDBRANCH  23  25
ENDBRANCH  20  22
ENDBRANCH   1  20
TORSDOF 8
ENDMDL
MODEL 3
REMARK VINA RESULT:     -11.2      4.533     11.637
REMARK  Name = 4261
REMARK  8 active torsions:
REMARK  status: ('A' for Active; 'I' for Inactive)
REMARK    1  A    between atoms: C_1  and  C_20
REMARK    2  A    between atoms: C_2  and  C_9
REMARK    3  A    between atoms: N_8  and  C_11
REMARK    4  A    between atoms: C_12  and  N_17
REMARK    5  A    between atoms: C_20  and  N_22
REMARK    6  A    between atoms: C_23  and  O_25
REMARK    7  A    between atoms: O_25  and  C_26
REMARK    8  A    between atoms: C_26  and  C_28
REMARK                            x       y       z     vdW  Elec       q    Type
REMARK                         _______ _______ _______ _____ _____    ______ ____
ROOT
ATOM      1  C   UNL     1      33.789 -14.620 -23.008  0.00  0.00    -0.002 C 
ATOM      2  C   UNL     1      32.424 -12.264 -22.442  0.00  0.00    +0.054 C 
ATOM      3  C   UNL     1      33.936 -13.520 -23.847  0.00  0.00    -0.002 C 
ATOM      4  C   UNL     1      32.966 -14.553 -21.890  0.00  0.00    -0.002 C 
ATOM      5  C   UNL     1      33.252 -12.339 -23.562  0.00  0.00    +0.004 C 
ATOM      6  C   UNL     1      32.281 -13.372 -21.605  0.00  0.00    +0.004 C 
ENDROOT
BRANCH   2   9
ATOM      7  O   UNL     1      30.573 -11.099 -21.652  0.00  0.00    -0.270 OA
ATOM      8  N   UNL     1      32.396  -9.844 -22.432  0.00  0.00    -0.279 N 
ATOM      9  C   UNL     1      31.710 -11.033 -22.147  0.00  0.00    +0.250 C 
ATOM     10  H   UNL     1      33.293  -9.951 -22.823  0.00  0.00    +0.155 HD
BRANCH   8  11
ATOM     11  C   UNL     1      31.969  -8.509 -22.229  0.00  0.00    +0.064 C 
ATOM     12  C   UNL     1      32.192  -7.878 -21.016  0.00  0.00    +0.055 C 
ATOM     13  C   UNL     1      31.327  -7.859 -23.272  0.00  0.00    +0.016 C 
ATOM     14  C   UNL     1      31.761  -6.563 -20.841  0.00  0.00    +0.015 C 
ATOM     15  C   UNL     1      30.896  -6.544 -23.096  0.00  0.00    +0.001 C 
ATOM     16  C   UNL     1      31.113  -5.896 -21.880  0.00  0.00    +0.001 C 
BRANCH  12  17
ATOM     17  N   UNL     1      32.846  -8.534 -19.949  0.00  0.00    -0.356 N 
ATOM     18  H   UNL     1      32.341  -9.141 -19.362  0.00  0.00    +0.142 HD
ATOM     19  H   UNL     1      33.806  -8.384 -19.794  0.00  0.00    +0.142 HD
ENDBRANCH  12  17
ENDBRANCH   8  11
ENDBRANCH   2   9
BRANCH   1  20
ATOM     20  C   UNL     1      34.526 -15.890 -23.313  0.00  0.00    +0.119 C 
BRANCH  20  22
ATOM     21  O   UNL     1      35.922 -18.429 -23.106  0.00  0.00    -0.226 OA
ATOM     22  N   UNL     1      34.898 -16.601 -22.111  0.00  0.00    -0.267 N 
ATOM     23  C   UNL     1      35.563 -17.809 -22.111  0.00  0.00    +0.402 C 
ATOM     24  H   UNL     1      34.662 -16.200 -21.243  0.00  0.00    +0.153 HD
BRANCH  23  25
ATOM     25  O   UNL     1      35.768 -18.221 -20.824  0.00  0.00    -0.430 OA
BRANCH  25  26
ATOM     26  C   UNL     1      36.453 -19.470 -20.670  0.00  0.00    +0.238 C 
BRANCH  26  28
ATOM     27  N   UNL     1      35.204 -22.401 -18.659  0.00  0.00    -0.243 NA
ATOM     28  C   UNL     1      35.515 -20.470 -20.060  0.00  0.00    +0.040 C 
ATOM     29  C   UNL     1      34.156 -20.406 -20.312  0.00  0.00    +0.002 C 
ATOM     30  C   UNL     1      35.993 -21.469 -19.239  0.00  0.00    +0.098 C 
ATOM     31  C   UNL     1      33.313 -21.346 -19.734  0.00  0.00    +0.020 C 
ATOM     32  C   UNL     1      33.880 -22.315 -18.922  0.00  0.00    +0.099 C 
ENDBRANCH  26  28
ENDBRANCH  25  26
ENDBRANCH  23  25
ENDBRANCH  20  22
ENDBRANCH   1  20
TORSDOF 8
ENDMDL
MODEL 4
REMARK VINA RESULT:     -11.1      1.875      2.734
REMARK  Name = 4261
REMARK  8 active torsions:
REMARK  status: ('A' for Active; 'I' for Inactive)
REMARK    1  A    between atoms: C_1  and  C_20
REMARK    2  A    between atoms: C_2  and  C_9
REMARK    3  A    between atoms: N_8  and  C_11
REMARK    4  A    between atoms: C_12  and  N_17
REMARK    5  A    between atoms: C_20  and  N_22
REMARK    6  A    between atoms: C_23  and  O_25
REMARK    7  A    between atoms: O_25  and  C_26
REMARK    8  A    between atoms: C_26  and  C_28
REMARK                            x       y       z     vdW  Elec       q    Type
REMARK                         _______ _______ _______ _____ _____    ______ ____
ROOT
ATOM      1  C   UNL     1      34.788 -19.992 -20.873  0.00  0.00    -0.002 C 
ATOM      2  C   UNL     1      33.798 -21.846 -19.052  0.00  0.00    +0.054 C 
ATOM      3  C   UNL     1      33.416 -20.088 -20.665  0.00  0.00    -0.002 C 
ATOM      4  C   UNL     1      35.669 -20.813 -20.179  0.00  0.00    -0.002 C 
ATOM      5  C   UNL     1      32.920 -21.017 -19.752  0.00  0.00    +0.004 C 
ATOM      6  C   UNL     1      35.173 -21.743 -19.266  0.00  0.00    +0.004 C 
ENDROOT
BRANCH   2   9
ATOM      7  O   UNL     1      33.834 -23.923 -18.007  0.00  0.00    -0.270 OA
ATOM      8  N   UNL     1      32.184 -22.395 -17.333  0.00  0.00    -0.279 N 
ATOM      9  C   UNL     1      33.281 -22.815 -18.101  0.00  0.00    +0.250 C 
ATOM     10  H   UNL     1      31.854 -21.487 -17.521  0.00  0.00    +0.155 HD
BRANCH   8  11
ATOM     11  C   UNL     1      31.492 -23.105 -16.323  0.00  0.00    +0.064 C 
ATOM     12  C   UNL     1      32.115 -23.397 -15.120  0.00  0.00    +0.055 C 
ATOM     13  C   UNL     1      30.185 -23.494 -16.570  0.00  0.00    +0.016 C 
ATOM     14  C   UNL     1      31.412 -24.098 -14.139  0.00  0.00    +0.015 C 
ATOM     15  C   UNL     1      29.483 -24.195 -15.590  0.00  0.00    +0.001 C 
ATOM     16  C   UNL     1      30.096 -24.497 -14.374  0.00  0.00    +0.001 C 
BRANCH  12  17
ATOM     17  N   UNL     1      33.446 -23.003 -14.860  0.00  0.00    -0.356 N 
ATOM     18  H   UNL     1      33.709 -22.730 -13.951  0.00  0.00    +0.142 HD
ATOM     19  H   UNL     1      34.110 -23.000 -15.586  0.00  0.00    +0.142 HD
ENDBRANCH  12  17
ENDBRANCH   8  11
ENDBRANCH   2   9
BRANCH   1  20
ATOM     20  C   UNL     1      35.322 -18.991 -21.855  0.00  0.00    +0.119 C 
BRANCH  20  22
ATOM     21  O   UNL     1      35.256 -16.531 -20.312  0.00  0.00    -0.226 OA
ATOM     22  N   UNL     1      34.430 -17.866 -22.019  0.00  0.00    -0.267 N 
ATOM     23  C   UNL     1      34.474 -16.734 -21.234  0.00  0.00    +0.402 C 
ATOM     24  H   UNL     1      33.752 -17.911 -22.732  0.00  0.00    +0.153 HD
BRANCH  23  25
ATOM     25  O   UNL     1      33.506 -15.856 -21.636  0.00  0.00    -0.430 OA
BRANCH  25  26
ATOM     26  C   UNL     1      32.877 -15.099 -20.596  0.00  0.00    +0.238 C 
BRANCH  26  28
ATOM     27  N   UNL     1      32.327 -12.269 -23.023  0.00  0.00    -0.243 NA
ATOM     28  C   UNL     1      32.487 -13.754 -21.136  0.00  0.00    +0.040 C 
ATOM     29  C   UNL     1      31.953 -12.788 -20.302  0.00  0.00    +0.002 C 
ATOM     30  C   UNL     1      32.656 -13.459 -22.472  0.00  0.00    +0.098 C 
ATOM     31  C   UNL     1      31.602 -11.552 -20.831  0.00  0.00    +0.020 C 
ATOM     32  C   UNL     1      31.807 -11.344 -22.185  0.00  0.00    +0.099 C 
ENDBRANCH  26  28
ENDBRANCH  25  26
ENDBRANCH  23  25
ENDBRANCH  20  22
ENDBRANCH   1  20
TORSDOF 8
ENDMDL
MODEL 5
REMARK VINA RESULT:     -11.0      3.812      6.926
REMARK  Name = 4261
REMARK  8 active torsions:
REMARK  status: ('A' for Active; 'I' for Inactive)
REMARK    1  A    between atoms: C_1  and  C_20
REMARK    2  A    between atoms: C_2  and  C_9
REMARK    3  A    between atoms: N_8  and  C_11
REMARK    4  A    between atoms: C_12  and  N_17
REMARK    5  A    between atoms: C_20  and  N_22
REMARK    6  A    between atoms: C_23  and  O_25
REMARK    7  A    between atoms: O_25  and  C_26
REMARK    8  A    between atoms: C_26  and  C_28
REMARK                            x       y       z     vdW  Elec       q    Type
REMARK                         _______ _______ _______ _____ _____    ______ ____
ROOT
ATOM      1  C   UNL     1      33.821 -14.758 -24.682  0.00  0.00    -0.002 C 
ATOM      2  C   UNL     1      34.597 -17.173 -23.542  0.00  0.00    +0.054 C 
ATOM      3  C   UNL     1      34.181 -14.801 -23.340  0.00  0.00    -0.002 C 
ATOM      4  C   UNL     1      33.844 -15.910 -25.459  0.00  0.00    -0.002 C 
ATOM      5  C   UNL     1      34.571 -16.011 -22.769  0.00  0.00    +0.004 C 
ATOM      6  C   UNL     1      34.234 -17.121 -24.888  0.00  0.00    +0.004 C 
ENDROOT
BRANCH   2   9
ATOM      7  O   UNL     1      35.665 -19.237 -23.622  0.00  0.00    -0.270 OA
ATOM      8  N   UNL     1      34.618 -18.632 -21.611  0.00  0.00    -0.279 N 
ATOM      9  C   UNL     1      35.002 -18.435 -22.946  0.00  0.00    +0.250 C 
ATOM     10  H   UNL     1      34.094 -17.904 -21.205  0.00  0.00    +0.155 HD
BRANCH   8  11
ATOM     11  C   UNL     1      34.887 -19.739 -20.771  0.00  0.00    +0.064 C 
ATOM     12  C   UNL     1      33.852 -20.534 -20.306  0.00  0.00    +0.055 C 
ATOM     13  C   UNL     1      36.205 -20.002 -20.431  0.00  0.00    +0.016 C 
ATOM     14  C   UNL     1      34.142 -21.620 -19.480  0.00  0.00    +0.015 C 
ATOM     15  C   UNL     1      36.495 -21.088 -19.605  0.00  0.00    +0.001 C 
ATOM     16  C   UNL     1      35.463 -21.897 -19.129  0.00  0.00    +0.001 C 
BRANCH  12  17
ATOM     17  N   UNL     1      32.506 -20.273 -20.649  0.00  0.00    -0.356 N 
ATOM     18  H   UNL     1      32.121 -19.383 -20.484  0.00  0.00    +0.142 HD
ATOM     19  H   UNL     1      31.955 -20.981 -21.053  0.00  0.00    +0.142 HD
ENDBRANCH  12  17
ENDBRANCH   8  11
ENDBRANCH   2   9
BRANCH   1  20
ATOM     20  C   UNL     1      33.403 -13.455 -25.298  0.00  0.00    +0.119 C 
BRANCH  20  22
ATOM     21  O   UNL     1      34.584 -10.821 -25.621  0.00  0.00    -0.226 OA
ATOM     22  N   UNL     1      33.429 -12.372 -24.341  0.00  0.00    -0.267 N 
ATOM     23  C   UNL     1      34.017 -11.150 -24.585  0.00  0.00    +0.402 C 
ATOM     24  H   UNL     1      33.002 -12.516 -23.465  0.00  0.00    +0.153 HD
BRANCH  23  25
ATOM     25  O   UNL     1      33.875 -10.344 -23.490  0.00  0.00    -0.430 OA
BRANCH  25  26
ATOM     26  C   UNL     1      32.589  -9.734 -23.325  0.00  0.00    +0.238 C 
BRANCH  26  28
ATOM     27  N   UNL     1      32.001  -8.952 -19.686  0.00  0.00    -0.243 NA
ATOM     28  C   UNL     1      32.154  -9.889 -21.897  0.00  0.00    +0.040 C 
ATOM     29  C   UNL     1      31.534 -11.050 -21.472  0.00  0.00    +0.002 C 
ATOM     30  C   UNL     1      32.366  -8.877 -20.985  0.00  0.00    +0.098 C 
ATOM     31  C   UNL     1      31.143 -11.165 -20.144  0.00  0.00    +0.020 C 
ATOM     32  C   UNL     1      31.396 -10.097 -19.298  0.00  0.00    +0.099 C 
ENDBRANCH  26  28
ENDBRANCH  25  26
ENDBRANCH  23  25
ENDBRANCH  20  22
ENDBRANCH   1  20
TORSDOF 8
ENDMDL
MODEL 6
REMARK VINA RESULT:     -10.8      2.365      9.918
REMARK  Name = 4261
REMARK  8 active torsions:
REMARK  status: ('A' for Active; 'I' for Inactive)
REMARK    1  A    between atoms: C_1  and  C_20
REMARK    2  A    between atoms: C_2  and  C_9
REMARK    3  A    between atoms: N_8  and  C_11
REMARK    4  A    between atoms: C_12  and  N_17
REMARK    5  A    between atoms: C_20  and  N_22
REMARK    6  A    between atoms: C_23  and  O_25
REMARK    7  A    between atoms: O_25  and  C_26
REMARK    8  A    between atoms: C_26  and  C_28
REMARK                            x       y       z     vdW  Elec       q    Type
REMARK                         _______ _______ _______ _____ _____    ______ ____
ROOT
ATOM      1  C   UNL     1      35.101 -22.525 -17.695  0.00  0.00    -0.002 C 
ATOM      2  C   UNL     1      34.321 -20.950 -19.850  0.00  0.00    +0.054 C 
ATOM      3  C   UNL     1      36.054 -21.789 -18.391  0.00  0.00    -0.002 C 
ATOM      4  C   UNL     1      33.762 -22.480 -18.066  0.00  0.00    -0.002 C 
ATOM      5  C   UNL     1      35.663 -21.000 -19.471  0.00  0.00    +0.004 C 
ATOM      6  C   UNL     1      33.370 -21.691 -19.147  0.00  0.00    +0.004 C 
ENDROOT
BRANCH   2   9
ATOM      7  O   UNL     1      32.711 -20.072 -21.280  0.00  0.00    -0.270 OA
ATOM      8  N   UNL     1      34.941 -19.430 -21.629  0.00  0.00    -0.279 N 
ATOM      9  C   UNL     1      33.913 -20.128 -20.977  0.00  0.00    +0.250 C 
ATOM     10  H   UNL     1      35.848 -19.575 -21.274  0.00  0.00    +0.155 HD
BRANCH   8  11
ATOM     11  C   UNL     1      34.845 -18.544 -22.729  0.00  0.00    +0.064 C 
ATOM     12  C   UNL     1      34.880 -17.173 -22.529  0.00  0.00    +0.055 C 
ATOM     13  C   UNL     1      34.716 -19.083 -23.999  0.00  0.00    +0.016 C 
ATOM     14  C   UNL     1      34.783 -16.320 -23.629  0.00  0.00    +0.015 C 
ATOM     15  C   UNL     1      34.619 -18.230 -25.098  0.00  0.00    +0.001 C 
ATOM     16  C   UNL     1      34.653 -16.848 -24.913  0.00  0.00    +0.001 C 
BRANCH  12  17
ATOM     17  N   UNL     1      35.013 -16.615 -21.238  0.00  0.00    -0.356 N 
ATOM     18  H   UNL     1      35.663 -15.894 -21.079  0.00  0.00    +0.142 HD
ATOM     19  H   UNL     1      34.455 -16.948 -20.499  0.00  0.00    +0.142 HD
ENDBRANCH  12  17
ENDBRANCH   8  11
ENDBRANCH   2   9
BRANCH   1  20
ATOM     20  C   UNL     1      35.522 -23.374 -16.532  0.00  0.00    +0.119 C 
BRANCH  20  22
ATOM     21  O   UNL     1      35.332 -23.832 -13.670  0.00  0.00    -0.226 OA
ATOM     22  N   UNL     1      34.387 -23.871 -15.787  0.00  0.00    -0.267 N 
ATOM     23  C   UNL     1      34.390 -24.057 -14.422  0.00  0.00    +0.402 C 
ATOM     24  H   UNL     1      33.565 -24.088 -16.284  0.00  0.00    +0.153 HD
BRANCH  23  25
ATOM     25  O   UNL     1      33.175 -24.535 -14.019  0.00  0.00    -0.430 OA
BRANCH  25  26
ATOM     26  C   UNL     1      32.201 -23.547 -13.664  0.00  0.00    +0.238 C 
BRANCH  26  28
ATOM     27  N   UNL     1      28.949 -24.909 -14.994  0.00  0.00    -0.243 NA
ATOM     28  C   UNL     1      30.989 -23.720 -14.532  0.00  0.00    +0.040 C 
ATOM     29  C   UNL     1      30.785 -22.899 -15.628  0.00  0.00    +0.002 C 
ATOM     30  C   UNL     1      30.060 -24.699 -14.253  0.00  0.00    +0.098 C 
ATOM     31  C   UNL     1      29.654 -23.084 -16.414  0.00  0.00    +0.020 C 
ATOM     32  C   UNL     1      28.774 -24.093 -16.058  0.00  0.00    +0.099 C 
ENDBRANCH  26  28
ENDBRANCH  25  26
ENDBRANCH  23  25
ENDBRANCH  20  22
ENDBRANCH   1  20
TORSDOF 8
ENDMDL
MODEL 7
REMARK VINA RESULT:     -10.8      1.509      2.002
REMARK  Name = 4261
REMARK  8 active torsions:
REMARK  status: ('A' for Active; 'I' for Inactive)
REMARK    1  A    between atoms: C_1  and  C_20
REMARK    2  A    between atoms: C_2  and  C_9
REMARK    3  A    between atoms: N_8  and  C_11
REMARK    4  A    between atoms: C_12  and  N_17
REMARK    5  A    between atoms: C_20  and  N_22
REMARK    6  A    between atoms: C_23  and  O_25
REMARK    7  A    between atoms: O_25  and  C_26
REMARK    8  A    between atoms: C_26  and  C_28
REMARK                            x       y       z     vdW  Elec       q    Type
REMARK                         _______ _______ _______ _____ _____    ______ ____
ROOT
ATOM      1  C   UNL     1      35.607 -20.120 -20.447  0.00  0.00    -0.002 C 
ATOM      2  C   UNL     1      34.272 -22.042 -18.945  0.00  0.00    +0.054 C 
ATOM      3  C   UNL     1      36.332 -20.988 -19.639  0.00  0.00    -0.002 C 
ATOM      4  C   UNL     1      34.220 -20.203 -20.511  0.00  0.00    -0.002 C 
ATOM      5  C   UNL     1      35.663 -21.952 -18.886  0.00  0.00    +0.004 C 
ATOM      6  C   UNL     1      33.551 -21.167 -19.759  0.00  0.00    +0.004 C 
ENDROOT
BRANCH   2   9
ATOM      7  O   UNL     1      33.577 -24.225 -18.547  0.00  0.00    -0.270 OA
ATOM      8  N   UNL     1      32.961 -22.586 -16.984  0.00  0.00    -0.279 N 
ATOM      9  C   UNL     1      33.574 -23.046 -18.159  0.00  0.00    +0.250 C 
ATOM     10  H   UNL     1      33.044 -21.621 -16.808  0.00  0.00    +0.155 HD
BRANCH   8  11
ATOM     11  C   UNL     1      32.240 -23.328 -16.018  0.00  0.00    +0.064 C 
ATOM     12  C   UNL     1      30.855 -23.362 -16.051  0.00  0.00    +0.055 C 
ATOM     13  C   UNL     1      32.954 -24.014 -15.047  0.00  0.00    +0.016 C 
ATOM     14  C   UNL     1      30.166 -24.100 -15.088  0.00  0.00    +0.015 C 
ATOM     15  C   UNL     1      32.266 -24.752 -14.085  0.00  0.00    +0.001 C 
ATOM     16  C   UNL     1      30.871 -24.794 -14.105  0.00  0.00    +0.001 C 
BRANCH  12  17
ATOM     17  N   UNL     1      30.120 -22.667 -17.038  0.00  0.00    -0.356 N 
ATOM     18  H   UNL     1      29.150 -22.542 -16.931  0.00  0.00    +0.142 HD
ATOM     19  H   UNL     1      30.579 -22.308 -17.831  0.00  0.00    +0.142 HD
ENDBRANCH  12  17
ENDBRANCH   8  11
ENDBRANCH   2   9
BRANCH   1  20
ATOM     20  C   UNL     1      36.327 -19.083 -21.258  0.00  0.00    +0.119 C 
BRANCH  20  22
ATOM     21  O   UNL     1      35.434 -18.596 -23.979  0.00  0.00    -0.226 OA
ATOM     22  N   UNL     1      35.435 -18.047 -21.726  0.00  0.00    -0.267 N 
ATOM     23  C   UNL     1      35.066 -17.893 -23.045  0.00  0.00    +0.402 C 
ATOM     24  H   UNL     1      35.070 -17.415 -21.064  0.00  0.00    +0.153 HD
BRANCH  23  25
ATOM     25  O   UNL     1      34.217 -16.828 -23.164  0.00  0.00    -0.430 OA
BRANCH  25  26
ATOM     26  C   UNL     1      34.837 -15.559 -23.409  0.00  0.00    +0.238 C 
BRANCH  26  28
ATOM     27  N   UNL     1      33.005 -12.266 -23.402  0.00  0.00    -0.243 NA
ATOM     28  C   UNL     1      33.892 -14.467 -23.001  0.00  0.00    +0.040 C 
ATOM     29  C   UNL     1      33.067 -14.624 -21.902  0.00  0.00    +0.002 C 
ATOM     30  C   UNL     1      33.832 -13.289 -23.715  0.00  0.00    +0.098 C 
ATOM     31  C   UNL     1      32.203 -13.594 -21.548  0.00  0.00    +0.020 C 
ATOM     32  C   UNL     1      32.210 -12.446 -22.323  0.00  0.00    +0.099 C 
ENDBRANCH  26  28
ENDBRANCH  25  26
ENDBRANCH  23  25
ENDBRANCH  20  22
ENDBRANCH   1  20
TORSDOF 8
ENDMDL
MODEL 8
REMARK VINA RESULT:     -10.8      4.398      7.565
REMARK  Name = 4261
REMARK  8 active torsions:
REMARK  status: ('A' for Active; 'I' for Inactive)
REMARK    1  A    between atoms: C_1  and  C_20
REMARK    2  A    between atoms: C_2  and  C_9
REMARK    3  A    between atoms: N_8  and  C_11
REMARK    4  A    between atoms: C_12  and  N_17
REMARK    5  A    between atoms: C_20  and  N_22
REMARK    6  A    between atoms: C_23  and  O_25
REMARK    7  A    between atoms: O_25  and  C_26
REMARK    8  A    between atoms: C_26  and  C_28
REMARK                            x       y       z     vdW  Elec       q    Type
REMARK                         _______ _______ _______ _____ _____    ______ ____
ROOT
ATOM      1  C   UNL     1      33.856 -13.948 -24.020  0.00  0.00    -0.002 C 
ATOM      2  C   UNL     1      34.424 -15.961 -22.188  0.00  0.00    +0.054 C 
ATOM      3  C   UNL     1      34.015 -13.630 -22.676  0.00  0.00    -0.002 C 
ATOM      4  C   UNL     1      33.978 -15.262 -24.457  0.00  0.00    -0.002 C 
ATOM      5  C   UNL     1      34.301 -14.640 -21.758  0.00  0.00    +0.004 C 
ATOM      6  C   UNL     1      34.263 -16.272 -23.539  0.00  0.00    +0.004 C 
ENDROOT
BRANCH   2   9
ATOM      7  O   UNL     1      35.308 -16.722 -20.176  0.00  0.00    -0.270 OA
ATOM      8  N   UNL     1      34.281 -18.299 -21.579  0.00  0.00    -0.279 N 
ATOM      9  C   UNL     1      34.720 -17.013 -21.230  0.00  0.00    +0.250 C 
ATOM     10  H   UNL     1      33.828 -18.375 -22.449  0.00  0.00    +0.155 HD
BRANCH   8  11
ATOM     11  C   UNL     1      34.403 -19.502 -20.842  0.00  0.00    +0.064 C 
ATOM     12  C   UNL     1      35.655 -20.008 -20.530  0.00  0.00    +0.055 C 
ATOM     13  C   UNL     1      33.244 -20.151 -20.445  0.00  0.00    +0.016 C 
ATOM     14  C   UNL     1      35.750 -21.195 -19.803  0.00  0.00    +0.015 C 
ATOM     15  C   UNL     1      33.340 -21.337 -19.718  0.00  0.00    +0.001 C 
ATOM     16  C   UNL     1      34.592 -21.860 -19.397  0.00  0.00    +0.001 C 
BRANCH  12  17
ATOM     17  N   UNL     1      36.841 -19.352 -20.930  0.00  0.00    -0.356 N 
ATOM     18  H   UNL     1      37.673 -19.491 -20.423  0.00  0.00    +0.142 HD
ATOM     19  H   UNL     1      36.833 -18.757 -21.713  0.00  0.00    +0.142 HD
ENDBRANCH  12  17
ENDBRANCH   8  11
ENDBRANCH   2   9
BRANCH   1  20
ATOM     20  C   UNL     1      33.550 -12.861 -25.009  0.00  0.00    +0.119 C 
BRANCH  20  22
ATOM     21  O   UNL     1      35.236 -10.514 -25.302  0.00  0.00    -0.226 OA
ATOM     22  N   UNL     1      33.397 -11.575 -24.369  0.00  0.00    -0.267 N 
ATOM     23  C   UNL     1      34.253 -10.513 -24.570  0.00  0.00    +0.402 C 
ATOM     24  H   UNL     1      32.638 -11.450 -23.754  0.00  0.00    +0.153 HD
BRANCH  23  25
ATOM     25  O   UNL     1      33.841  -9.443 -23.826  0.00  0.00    -0.430 OA
BRANCH  25  26
ATOM     26  C   UNL     1      32.820  -9.710 -22.858  0.00  0.00    +0.238 C 
BRANCH  26  28
ATOM     27  N   UNL     1      30.819  -6.526 -22.617  0.00  0.00    -0.243 NA
ATOM     28  C   UNL     1      32.291  -8.408 -22.332  0.00  0.00    +0.040 C 
ATOM     29  C   UNL     1      32.754  -7.892 -21.135  0.00  0.00    +0.002 C 
ATOM     30  C   UNL     1      31.336  -7.704 -23.034  0.00  0.00    +0.098 C 
ATOM     31  C   UNL     1      32.247  -6.684 -20.673  0.00  0.00    +0.020 C 
ATOM     32  C   UNL     1      31.289  -6.045 -21.444  0.00  0.00    +0.099 C 
ENDBRANCH  26  28
ENDBRANCH  25  26
ENDBRANCH  23  25
ENDBRANCH  20  22
ENDBRANCH   1  20
TORSDOF 8
ENDMDL
MODEL 9
REMARK VINA RESULT:     -10.7      4.361      7.335
REMARK  Name = 4261
REMARK  8 active torsions:
REMARK  status: ('A' for Active; 'I' for Inactive)
REMARK    1  A    between atoms: C_1  and  C_20
REMARK    2  A    between atoms: C_2  and  C_9
REMARK    3  A    between atoms: N_8  and  C_11
REMARK    4  A    between atoms: C_12  and  N_17
REMARK    5  A    between atoms: C_20  and  N_22
REMARK    6  A    between atoms: C_23  and  O_25
REMARK    7  A    between atoms: O_25  and  C_26
REMARK    8  A    between atoms: C_26  and  C_28
REMARK                            x       y       z     vdW  Elec       q    Type
REMARK                         _______ _______ _______ _____ _____    ______ ____
ROOT
ATOM      1  C   UNL     1      33.751 -14.604 -24.836  0.00  0.00    -0.002 C 
ATOM      2  C   UNL     1      34.488 -17.037 -23.708  0.00  0.00    +0.054 C 
ATOM      3  C   UNL     1      34.154 -14.652 -23.506  0.00  0.00    -0.002 C 
ATOM      4  C   UNL     1      33.712 -15.761 -25.607  0.00  0.00    -0.002 C 
ATOM      5  C   UNL     1      34.524 -15.872 -22.941  0.00  0.00    +0.004 C 
ATOM      6  C   UNL     1      34.082 -16.980 -25.042  0.00  0.00    +0.004 C 
ENDROOT
BRANCH   2   9
ATOM      7  O   UNL     1      35.416 -19.165 -23.832  0.00  0.00    -0.270 OA
ATOM      8  N   UNL     1      34.608 -18.451 -21.747  0.00  0.00    -0.279 N 
ATOM      9  C   UNL     1      34.872 -18.308 -23.117  0.00  0.00    +0.250 C 
ATOM     10  H   UNL     1      34.171 -17.683 -21.314  0.00  0.00    +0.155 HD
BRANCH   8  11
ATOM     11  C   UNL     1      34.890 -19.554 -20.906  0.00  0.00    +0.064 C 
ATOM     12  C   UNL     1      33.862 -20.342 -20.415  0.00  0.00    +0.055 C 
ATOM     13  C   UNL     1      36.214 -19.820 -20.591  0.00  0.00    +0.016 C 
ATOM     14  C   UNL     1      34.165 -21.424 -19.588  0.00  0.00    +0.015 C 
ATOM     15  C   UNL     1      36.517 -20.901 -19.764  0.00  0.00    +0.001 C 
ATOM     16  C   UNL     1      35.492 -21.703 -19.262  0.00  0.00    +0.001 C 
BRANCH  12  17
ATOM     17  N   UNL     1      32.510 -20.078 -20.732  0.00  0.00    -0.356 N 
ATOM     18  H   UNL     1      32.132 -19.185 -20.565  0.00  0.00    +0.142 HD
ATOM     19  H   UNL     1      31.949 -20.787 -21.120  0.00  0.00    +0.142 HD
ENDBRANCH  12  17
ENDBRANCH   8  11
ENDBRANCH   2   9
BRANCH   1  20
ATOM     20  C   UNL     1      33.355 -13.291 -25.446  0.00  0.00    +0.119 C 
BRANCH  20  22
ATOM     21  O   UNL     1      34.921 -10.893 -25.924  0.00  0.00    -0.226 OA
ATOM     22  N   UNL     1      33.581 -12.186 -24.542  0.00  0.00    -0.267 N 
ATOM     23  C   UNL     1      34.344 -11.083 -24.859  0.00  0.00    +0.402 C 
ATOM     24  H   UNL     1      33.165 -12.224 -23.650  0.00  0.00    +0.153 HD
BRANCH  23  25
ATOM     25  O   UNL     1      34.365 -10.219 -23.801  0.00  0.00    -0.430 OA
BRANCH  25  26
ATOM     26  C   UNL     1      34.816  -8.890 -24.088  0.00  0.00    +0.238 C 
BRANCH  26  28
ATOM     27  N   UNL     1      32.426  -7.219 -21.702  0.00  0.00    -0.243 NA
ATOM     28  C   UNL     1      33.828  -7.906 -23.532  0.00  0.00    +0.040 C 
ATOM     29  C   UNL     1      33.412  -6.824 -24.287  0.00  0.00    +0.002 C 
ATOM     30  C   UNL     1      33.319  -8.066 -22.262  0.00  0.00    +0.098 C 
ATOM     31  C   UNL     1      32.496  -5.930 -23.746  0.00  0.00    +0.020 C 
ATOM     32  C   UNL     1      32.037  -6.169 -22.461  0.00  0.00    +0.099 C 
ENDBRANCH  26  28
ENDBRANCH  25  26
ENDBRANCH  23  25
ENDBRANCH  20  22
ENDBRANCH   1  20
TORSDOF 8
ENDMDL
