MODEL 1
REMARK VINA RESULT:      -8.3      0.000      0.000
REMARK  Name = 6009
REMARK  2 active torsions:
REMARK  status: ('A' for Active; 'I' for Inactive)
REMARK    1  A    between atoms: N_3  and  C_9
REMARK    2  A    between atoms: C_5  and  N_15
REMARK                            x       y       z     vdW  Elec       q    Type
REMARK                         _______ _______ _______ _____ _____    ______ ____
ROOT
ATOM      1  O   UNL     1      35.118 -16.437 -20.354  0.00  0.00    -0.264 OA
ATOM      2  N   UNL     1      34.405 -17.038 -23.693  0.00  0.00    -0.265 N 
ATOM      3  N   UNL     1      34.433 -16.145 -22.611  0.00  0.00    -0.213 N 
ATOM      4  C   UNL     1      34.775 -18.288 -23.205  0.00  0.00    +0.073 A 
ATOM      5  C   UNL     1      35.119 -18.252 -21.909  0.00  0.00    +0.120 A 
ATOM      6  C   UNL     1      34.930 -16.827 -21.496  0.00  0.00    +0.293 A 
ATOM      7  C   UNL     1      34.811 -19.486 -24.095  0.00  0.00    +0.053 C 
ATOM      8  C   UNL     1      34.877 -16.571 -24.993  0.00  0.00    +0.152 C 
ENDROOT
BRANCH   3   9
ATOM      9  C   UNL     1      33.754 -14.901 -22.609  0.00  0.00    +0.084 C 
ATOM     10  C   UNL     1      32.744 -14.651 -21.674  0.00  0.00    +0.019 C 
ATOM     11  C   UNL     1      34.090 -13.913 -23.541  0.00  0.00    +0.019 C 
ATOM     12  C   UNL     1      32.077 -13.425 -21.672  0.00  0.00    +0.002 C 
ATOM     13  C   UNL     1      33.422 -12.688 -23.538  0.00  0.00    +0.002 C 
ATOM     14  C   UNL     1      32.416 -12.444 -22.603  0.00  0.00    +0.000 C 
ENDBRANCH   3   9
BRANCH   5  15
ATOM     15  N   UNL     1      35.555 -19.179 -21.032  0.00  0.00    -0.299 N 
ATOM     16  C   UNL     1      34.665 -20.204 -20.480  0.00  0.00    +0.112 C 
ATOM     17  C   UNL     1      36.982 -19.384 -20.765  0.00  0.00    +0.112 C 
ENDBRANCH   5  15
TORSDOF 2
ENDMDL
MODEL 2
REMARK VINA RESULT:      -8.2      1.771      5.730
REMARK  Name = 6009
REMARK  2 active torsions:
REMARK  status: ('A' for Active; 'I' for Inactive)
REMARK    1  A    between atoms: N_3  and  C_9
REMARK    2  A    between atoms: C_5  and  N_15
REMARK                            x       y       z     vdW  Elec       q    Type
REMARK                         _______ _______ _______ _____ _____    ______ ____
ROOT
ATOM      1  O   UNL     1      35.038 -16.881 -24.542  0.00  0.00    -0.264 OA
ATOM      2  N   UNL     1      33.650 -15.648 -21.613  0.00  0.00    -0.265 N 
ATOM      3  N   UNL     1      34.408 -16.634 -22.263  0.00  0.00    -0.213 N 
ATOM      4  C   UNL     1      33.171 -14.784 -22.595  0.00  0.00    +0.073 A 
ATOM      5  C   UNL     1      33.631 -15.091 -23.818  0.00  0.00    +0.120 A 
ATOM      6  C   UNL     1      34.484 -16.304 -23.619  0.00  0.00    +0.293 A 
ATOM      7  C   UNL     1      32.288 -13.633 -22.246  0.00  0.00    +0.053 C 
ATOM      8  C   UNL     1      34.127 -15.137 -20.332  0.00  0.00    +0.152 C 
ENDROOT
BRANCH   3   9
ATOM      9  C   UNL     1      34.723 -17.887 -21.679  0.00  0.00    +0.084 C 
ATOM     10  C   UNL     1      36.058 -18.258 -21.485  0.00  0.00    +0.019 C 
ATOM     11  C   UNL     1      33.702 -18.761 -21.292  0.00  0.00    +0.019 C 
ATOM     12  C   UNL     1      36.367 -19.491 -20.910  0.00  0.00    +0.002 C 
ATOM     13  C   UNL     1      34.013 -19.994 -20.717  0.00  0.00    +0.002 C 
ATOM     14  C   UNL     1      35.346 -20.358 -20.526  0.00  0.00    +0.000 C 
ENDBRANCH   3   9
BRANCH   5  15
ATOM     15  N   UNL     1      33.467 -14.546 -25.041  0.00  0.00    -0.299 N 
ATOM     16  C   UNL     1      32.890 -15.302 -26.156  0.00  0.00    +0.112 C 
ATOM     17  C   UNL     1      33.616 -13.107 -25.275  0.00  0.00    +0.112 C 
ENDBRANCH   5  15
TORSDOF 2
ENDMDL
MODEL 3
REMARK VINA RESULT:      -7.9      3.694      7.061
REMARK  Name = 6009
REMARK  2 active torsions:
REMARK  status: ('A' for Active; 'I' for Inactive)
REMARK    1  A    between atoms: N_3  and  C_9
REMARK    2  A    between atoms: C_5  and  N_15
REMARK                            x       y       z     vdW  Elec       q    Type
REMARK                         _______ _______ _______ _____ _____    ______ ____
ROOT
ATOM      1  O   UNL     1      34.164 -11.051 -24.517  0.00  0.00    -0.264 OA
ATOM      2  N   UNL     1      32.194 -12.767 -22.237  0.00  0.00    -0.265 N 
ATOM      3  N   UNL     1      33.148 -12.798 -23.266  0.00  0.00    -0.213 N 
ATOM      4  C   UNL     1      31.792 -11.442 -22.088  0.00  0.00    +0.073 A 
ATOM      5  C   UNL     1      32.475 -10.607 -22.886  0.00  0.00    +0.120 A 
ATOM      6  C   UNL     1      33.408 -11.482 -23.660  0.00  0.00    +0.293 A 
ATOM      7  C   UNL     1      30.747 -11.059 -21.095  0.00  0.00    +0.053 C 
ATOM      8  C   UNL     1      32.398 -13.624 -21.073  0.00  0.00    +0.152 C 
ENDROOT
BRANCH   3   9
ATOM      9  C   UNL     1      33.495 -13.977 -23.972  0.00  0.00    +0.084 C 
ATOM     10  C   UNL     1      34.396 -14.892 -23.416  0.00  0.00    +0.019 C 
ATOM     11  C   UNL     1      32.940 -14.235 -25.230  0.00  0.00    +0.019 C 
ATOM     12  C   UNL     1      34.737 -16.052 -24.112  0.00  0.00    +0.002 C 
ATOM     13  C   UNL     1      33.282 -15.395 -25.925  0.00  0.00    +0.002 C 
ATOM     14  C   UNL     1      34.180 -16.304 -25.365  0.00  0.00    +0.000 C 
ENDBRANCH   3   9
BRANCH   5  15
ATOM     15  N   UNL     1      32.455  -9.271 -23.074  0.00  0.00    -0.299 N 
ATOM     16  C   UNL     1      31.304  -8.589 -23.673  0.00  0.00    +0.112 C 
ATOM     17  C   UNL     1      33.459  -8.388 -22.474  0.00  0.00    +0.112 C 
ENDBRANCH   5  15
TORSDOF 2
ENDMDL
MODEL 4
REMARK VINA RESULT:      -7.9      3.981      7.469
REMARK  Name = 6009
REMARK  2 active torsions:
REMARK  status: ('A' for Active; 'I' for Inactive)
REMARK    1  A    between atoms: N_3  and  C_9
REMARK    2  A    between atoms: C_5  and  N_15
REMARK                            x       y       z     vdW  Elec       q    Type
REMARK                         _______ _______ _______ _____ _____    ______ ____
ROOT
ATOM      1  O   UNL     1      31.478 -11.534 -22.358  0.00  0.00    -0.264 OA
ATOM      2  N   UNL     1      34.293 -10.787 -24.238  0.00  0.00    -0.265 N 
ATOM      3  N   UNL     1      33.387 -11.744 -23.758  0.00  0.00    -0.213 N 
ATOM      4  C   UNL     1      33.960  -9.571 -23.646  0.00  0.00    +0.073 A 
ATOM      5  C   UNL     1      32.858  -9.657 -22.885  0.00  0.00    +0.120 A 
ATOM      6  C   UNL     1      32.438 -11.089 -22.968  0.00  0.00    +0.293 A 
ATOM      7  C   UNL     1      34.756  -8.338 -23.913  0.00  0.00    +0.053 C 
ATOM      8  C   UNL     1      34.696 -10.852 -25.640  0.00  0.00    +0.152 C 
ENDROOT
BRANCH   3   9
ATOM      9  C   UNL     1      33.628 -13.140 -23.808  0.00  0.00    +0.084 C 
ATOM     10  C   UNL     1      33.263 -13.879 -24.938  0.00  0.00    +0.019 C 
ATOM     11  C   UNL     1      34.233 -13.790 -22.727  0.00  0.00    +0.019 C 
ATOM     12  C   UNL     1      33.500 -15.252 -24.987  0.00  0.00    +0.002 C 
ATOM     13  C   UNL     1      34.471 -15.164 -22.776  0.00  0.00    +0.002 C 
ATOM     14  C   UNL     1      34.104 -15.895 -23.907  0.00  0.00    +0.000 C 
ENDBRANCH   3   9
BRANCH   5  15
ATOM     15  N   UNL     1      32.158  -8.765 -22.153  0.00  0.00    -0.299 N 
ATOM     16  C   UNL     1      32.380  -8.599 -20.714  0.00  0.00    +0.112 C 
ATOM     17  C   UNL     1      31.316  -7.740 -22.776  0.00  0.00    +0.112 C 
ENDBRANCH   5  15
TORSDOF 2
ENDMDL
MODEL 5
REMARK VINA RESULT:      -7.8      1.505      5.443
REMARK  Name = 6009
REMARK  2 active torsions:
REMARK  status: ('A' for Active; 'I' for Inactive)
REMARK    1  A    between atoms: N_3  and  C_9
REMARK    2  A    between atoms: C_5  and  N_15
REMARK                            x       y       z     vdW  Elec       q    Type
REMARK                         _______ _______ _______ _____ _____    ______ ____
ROOT
ATOM      1  O   UNL     1      33.550 -16.537 -20.846  0.00  0.00    -0.264 OA
ATOM      2  N   UNL     1      34.871 -18.224 -23.572  0.00  0.00    -0.265 N 
ATOM      3  N   UNL     1      34.512 -18.225 -22.216  0.00  0.00    -0.213 N 
ATOM      4  C   UNL     1      34.666 -16.933 -24.051  0.00  0.00    +0.073 A 
ATOM      5  C   UNL     1      34.125 -16.123 -23.128  0.00  0.00    +0.120 A 
ATOM      6  C   UNL     1      33.982 -16.969 -21.904  0.00  0.00    +0.293 A 
ATOM      7  C   UNL     1      34.990 -16.572 -25.462  0.00  0.00    +0.053 C 
ATOM      8  C   UNL     1      34.529 -19.388 -24.383  0.00  0.00    +0.152 C 
ENDROOT
BRANCH   3   9
ATOM      9  C   UNL     1      34.940 -19.215 -21.296  0.00  0.00    +0.084 C 
ATOM     10  C   UNL     1      34.013 -20.090 -20.720  0.00  0.00    +0.019 C 
ATOM     11  C   UNL     1      36.293 -19.323 -20.956  0.00  0.00    +0.019 C 
ATOM     12  C   UNL     1      34.436 -21.064 -19.815  0.00  0.00    +0.002 C 
ATOM     13  C   UNL     1      36.714 -20.297 -20.051  0.00  0.00    +0.002 C 
ATOM     14  C   UNL     1      35.785 -21.168 -19.480  0.00  0.00    +0.000 C 
ENDBRANCH   3   9
BRANCH   5  15
ATOM     15  N   UNL     1      33.736 -14.831 -23.133  0.00  0.00    -0.299 N 
ATOM     16  C   UNL     1      34.364 -13.830 -22.267  0.00  0.00    +0.112 C 
ATOM     17  C   UNL     1      32.846 -14.293 -24.165  0.00  0.00    +0.112 C 
ENDBRANCH   5  15
TORSDOF 2
ENDMDL
MODEL 6
REMARK VINA RESULT:      -7.7      3.874      6.186
REMARK  Name = 6009
REMARK  2 active torsions:
REMARK  status: ('A' for Active; 'I' for Inactive)
REMARK    1  A    between atoms: N_3  and  C_9
REMARK    2  A    between atoms: C_5  and  N_15
REMARK                            x       y       z     vdW  Elec       q    Type
REMARK                         _______ _______ _______ _____ _____    ______ ____
ROOT
ATOM      1  O   UNL     1      33.981 -11.810 -25.538  0.00  0.00    -0.264 OA
ATOM      2  N   UNL     1      32.387 -11.579 -22.468  0.00  0.00    -0.265 N 
ATOM      3  N   UNL     1      32.912 -10.940 -23.601  0.00  0.00    -0.213 N 
ATOM      4  C   UNL     1      32.693 -12.933 -22.580  0.00  0.00    +0.073 A 
ATOM      5  C   UNL     1      33.302 -13.227 -23.738  0.00  0.00    +0.120 A 
ATOM      6  C   UNL     1      33.432 -11.920 -24.452  0.00  0.00    +0.293 A 
ATOM      7  C   UNL     1      32.309 -13.902 -21.512  0.00  0.00    +0.053 C 
ATOM      8  C   UNL     1      31.089 -11.143 -21.962  0.00  0.00    +0.152 C 
ENDROOT
BRANCH   3   9
ATOM      9  C   UNL     1      33.156  -9.545 -23.668  0.00  0.00    +0.084 C 
ATOM     10  C   UNL     1      34.467  -9.059 -23.679  0.00  0.00    +0.019 C 
ATOM     11  C   UNL     1      32.087  -8.645 -23.723  0.00  0.00    +0.019 C 
ATOM     12  C   UNL     1      34.707  -7.687 -23.745  0.00  0.00    +0.002 C 
ATOM     13  C   UNL     1      32.327  -7.272 -23.788  0.00  0.00    +0.002 C 
ATOM     14  C   UNL     1      33.638  -6.793 -23.800  0.00  0.00    +0.000 C 
ENDBRANCH   3   9
BRANCH   5  15
ATOM     15  N   UNL     1      33.755 -14.372 -24.290  0.00  0.00    -0.299 N 
ATOM     16  C   UNL     1      34.685 -15.258 -23.585  0.00  0.00    +0.112 C 
ATOM     17  C   UNL     1      33.167 -14.930 -25.511  0.00  0.00    +0.112 C 
ENDBRANCH   5  15
TORSDOF 2
ENDMDL
MODEL 7
REMARK VINA RESULT:      -7.5      2.216      3.463
REMARK  Name = 6009
REMARK  2 active torsions:
REMARK  status: ('A' for Active; 'I' for Inactive)
REMARK    1  A    between atoms: N_3  and  C_9
REMARK    2  A    between atoms: C_5  and  N_15
REMARK                            x       y       z     vdW  Elec       q    Type
REMARK                         _______ _______ _______ _____ _____    ______ ____
ROOT
ATOM      1  O   UNL     1      34.341 -17.138 -24.852  0.00  0.00    -0.264 OA
ATOM      2  N   UNL     1      33.654 -14.771 -22.413  0.00  0.00    -0.265 N 
ATOM      3  N   UNL     1      33.683 -15.126 -23.770  0.00  0.00    -0.213 N 
ATOM      4  C   UNL     1      34.217 -15.827 -21.699  0.00  0.00    +0.073 A 
ATOM      5  C   UNL     1      34.531 -16.868 -22.485  0.00  0.00    +0.120 A 
ATOM      6  C   UNL     1      34.156 -16.439 -23.867  0.00  0.00    +0.293 A 
ATOM      7  C   UNL     1      34.377 -15.758 -20.217  0.00  0.00    +0.053 C 
ATOM      8  C   UNL     1      32.484 -14.062 -21.904  0.00  0.00    +0.152 C 
ENDROOT
BRANCH   3   9
ATOM      9  C   UNL     1      33.574 -14.186 -24.825  0.00  0.00    +0.084 C 
ATOM     10  C   UNL     1      33.104 -14.586 -26.080  0.00  0.00    +0.019 C 
ATOM     11  C   UNL     1      33.937 -12.850 -24.619  0.00  0.00    +0.019 C 
ATOM     12  C   UNL     1      32.997 -13.660 -27.118  0.00  0.00    +0.002 C 
ATOM     13  C   UNL     1      33.829 -11.925 -25.657  0.00  0.00    +0.002 C 
ATOM     14  C   UNL     1      33.359 -12.330 -26.907  0.00  0.00    +0.000 C 
ENDBRANCH   3   9
BRANCH   5  15
ATOM     15  N   UNL     1      35.061 -18.086 -22.253  0.00  0.00    -0.299 N 
ATOM     16  C   UNL     1      36.507 -18.292 -22.128  0.00  0.00    +0.112 C 
ATOM     17  C   UNL     1      34.233 -19.231 -21.864  0.00  0.00    +0.112 C 
ENDBRANCH   5  15
TORSDOF 2
ENDMDL
MODEL 8
REMARK VINA RESULT:      -7.4      4.401      8.038
REMARK  Name = 6009
REMARK  2 active torsions:
REMARK  status: ('A' for Active; 'I' for Inactive)
REMARK    1  A    between atoms: N_3  and  C_9
REMARK    2  A    between atoms: C_5  and  N_15
REMARK                            x       y       z     vdW  Elec       q    Type
REMARK                         _______ _______ _______ _____ _____    ______ ____
ROOT
ATOM      1  O   UNL     1      30.905 -10.509 -22.292  0.00  0.00    -0.264 OA
ATOM      2  N   UNL     1      34.043 -10.294 -23.751  0.00  0.00    -0.265 N 
ATOM      3  N   UNL     1      32.974 -11.088 -23.310  0.00  0.00    -0.213 N 
ATOM      4  C   UNL     1      33.758  -8.981 -23.387  0.00  0.00    +0.073 A 
ATOM      5  C   UNL     1      32.549  -8.857 -22.818  0.00  0.00    +0.120 A 
ATOM      6  C   UNL     1      31.991 -10.244 -22.784  0.00  0.00    +0.293 A 
ATOM      7  C   UNL     1      34.717  -7.874 -23.674  0.00  0.00    +0.053 C 
ATOM      8  C   UNL     1      34.649 -10.599 -25.043  0.00  0.00    +0.152 C 
ENDROOT
BRANCH   3   9
ATOM      9  C   UNL     1      33.064 -12.492 -23.136  0.00  0.00    +0.084 C 
ATOM     10  C   UNL     1      33.666 -13.286 -24.118  0.00  0.00    +0.019 C 
ATOM     11  C   UNL     1      32.552 -13.094 -21.982  0.00  0.00    +0.019 C 
ATOM     12  C   UNL     1      33.755 -14.668 -23.946  0.00  0.00    +0.002 C 
ATOM     13  C   UNL     1      32.641 -14.476 -21.811  0.00  0.00    +0.002 C 
ATOM     14  C   UNL     1      33.244 -15.263 -22.794  0.00  0.00    +0.000 C 
ENDBRANCH   3   9
BRANCH   5  15
ATOM     15  N   UNL     1      31.847  -7.810 -22.337  0.00  0.00    -0.299 N 
ATOM     16  C   UNL     1      32.099  -7.254 -21.005  0.00  0.00    +0.112 C 
ATOM     17  C   UNL     1      30.968  -7.007 -23.192  0.00  0.00    +0.112 C 
ENDBRANCH   5  15
TORSDOF 2
ENDMDL
MODEL 9
REMARK VINA RESULT:      -7.3      7.577     10.135
REMARK  Name = 6009
REMARK  2 active torsions:
REMARK  status: ('A' for Active; 'I' for Inactive)
REMARK    1  A    between atoms: N_3  and  C_9
REMARK    2  A    between atoms: C_5  and  N_15
REMARK                            x       y       z     vdW  Elec       q    Type
REMARK                         _______ _______ _______ _____ _____    ______ ____
ROOT
ATOM      1  O   UNL     1      30.375  -6.952 -22.844  0.00  0.00    -0.264 OA
ATOM      2  N   UNL     1      33.508  -8.363 -23.305  0.00  0.00    -0.265 N 
ATOM      3  N   UNL     1      32.233  -8.429 -22.724  0.00  0.00    -0.213 N 
ATOM      4  C   UNL     1      33.601  -7.134 -23.955  0.00  0.00    +0.073 A 
ATOM      5  C   UNL     1      32.453  -6.441 -23.906  0.00  0.00    +0.120 A 
ATOM      6  C   UNL     1      31.514  -7.297 -23.117  0.00  0.00    +0.293 A 
ATOM      7  C   UNL     1      34.854  -6.721 -24.651  0.00  0.00    +0.053 C 
ATOM      8  C   UNL     1      34.064  -9.572 -23.905  0.00  0.00    +0.152 C 
ENDROOT
BRANCH   3   9
ATOM      9  C   UNL     1      31.901  -9.318 -21.670  0.00  0.00    +0.084 C 
ATOM     10  C   UNL     1      31.236 -10.518 -21.944  0.00  0.00    +0.019 C 
ATOM     11  C   UNL     1      32.237  -9.002 -20.350  0.00  0.00    +0.019 C 
ATOM     12  C   UNL     1      30.910 -11.392 -20.907  0.00  0.00    +0.002 C 
ATOM     13  C   UNL     1      31.910  -9.877 -19.313  0.00  0.00    +0.002 C 
ATOM     14  C   UNL     1      31.247 -11.073 -19.592  0.00  0.00    +0.000 C 
ENDBRANCH   3   9
BRANCH   5  15
ATOM     15  N   UNL     1      32.063  -5.246 -24.397  0.00  0.00    -0.299 N 
ATOM     16  C   UNL     1      31.635  -4.151 -23.523  0.00  0.00    +0.112 C 
ATOM     17  C   UNL     1      32.274  -4.878 -25.800  0.00  0.00    +0.112 C 
ENDBRANCH   5  15
TORSDOF 2
ENDMDL
