MODEL 1
REMARK VINA RESULT:     -10.4      0.000      0.000
REMARK  Name = 9867609
REMARK  12 active torsions:
REMARK  status: ('A' for Active; 'I' for Inactive)
REMARK    1  A    between atoms: C_2  and  C_22
REMARK    2  A    between atoms: C_3  and  N_8
REMARK    3  A    between atoms: C_5  and  C_21
REMARK    4  A    between atoms: N_8  and  C_10
REMARK    5  A    between atoms: C_10  and  C_13
REMARK    6  A    between atoms: C_13  and  C_15
REMARK    7  A    between atoms: C_22  and  C_25
REMARK    8  A    between atoms: N_24  and  C_27
REMARK    9  A    between atoms: C_27  and  C_28
REMARK   10  A    between atoms: C_28  and  O_29
REMARK   11  A    between atoms: O_29  and  N_30
REMARK   12  A    between atoms: N_30  and  C_33
REMARK                            x       y       z     vdW  Elec       q    Type
REMARK                         _______ _______ _______ _____ _____    ______ ____
ROOT
ATOM      1  F   UNL     1      36.520 -19.334 -20.941  0.00  0.00    -0.203 F 
ATOM      2  C   UNL     1      35.181 -20.987 -19.897  0.00  0.00    +0.025 C 
ATOM      3  C   UNL     1      34.161 -19.139 -21.075  0.00  0.00    +0.072 C 
ATOM      4  C   UNL     1      35.304 -19.814 -20.641  0.00  0.00    +0.150 C 
ATOM      5  C   UNL     1      33.916 -21.485 -19.585  0.00  0.00    +0.067 C 
ATOM      6  C   UNL     1      32.897 -19.638 -20.763  0.00  0.00    +0.017 C 
ATOM      7  C   UNL     1      32.774 -20.811 -20.019  0.00  0.00    +0.011 C 
ENDROOT
BRANCH   3   8
ATOM      8  N   UNL     1      34.284 -17.953 -21.828  0.00  0.00    -0.326 N 
ATOM      9  H   UNL     1      33.886 -17.924 -22.728  0.00  0.00    +0.147 HD
BRANCH   8  10
ATOM     10  C   UNL     1      34.959 -16.791 -21.342  0.00  0.00    +0.161 C 
BRANCH  10  13
ATOM     11  F   UNL     1      34.540 -14.675 -20.415  0.00  0.00    -0.196 F 
ATOM     12  F   UNL     1      32.873 -16.057 -20.552  0.00  0.00    -0.196 F 
ATOM     13  C   UNL     1      33.980 -15.623 -21.225  0.00  0.00    +0.316 C 
BRANCH  13  15
ATOM     14  N   UNL     1      34.058 -15.783 -23.653  0.00  0.00    -0.243 NA
ATOM     15  C   UNL     1      33.634 -15.071 -22.585  0.00  0.00    +0.121 C 
ATOM     16  C   UNL     1      32.914 -13.891 -22.676  0.00  0.00    +0.020 C 
ATOM     17  C   UNL     1      32.610 -13.409 -23.945  0.00  0.00    +0.003 C 
ATOM     18  C   UNL     1      33.744 -15.284 -24.871  0.00  0.00    +0.099 C 
ATOM     19  C   UNL     1      33.030 -14.113 -25.068  0.00  0.00    +0.021 C 
ENDBRANCH  13  15
ENDBRANCH  10  13
ENDBRANCH   8  10
ENDBRANCH   3   8
BRANCH   5  21
ATOM     20  N   UNL     1      33.640 -23.663 -18.206  0.00  0.00    -0.191 NA
ATOM     21  C   UNL     1      33.763 -22.688 -18.823  0.00  0.00    +0.100 C 
ENDBRANCH   5  21
BRANCH   2  22
ATOM     22  C   UNL     1      36.433 -21.690 -19.444  0.00  0.00    +0.114 C 
BRANCH  22  25
ATOM     23  O   UNL     1      37.306 -20.325 -17.645  0.00  0.00    -0.275 OA
ATOM     24  N   UNL     1      36.518 -22.456 -17.163  0.00  0.00    -0.302 N 
ATOM     25  C   UNL     1      36.806 -21.387 -18.006  0.00  0.00    +0.227 C 
ATOM     26  H   UNL     1      36.116 -23.266 -17.552  0.00  0.00    +0.150 HD
BRANCH  24  27
ATOM     27  C   UNL     1      36.781 -22.427 -15.750  0.00  0.00    +0.125 C 
BRANCH  27  28
ATOM     28  C   UNL     1      35.704 -23.157 -14.967  0.00  0.00    +0.197 C 
BRANCH  28  29
ATOM     29  O   UNL     1      35.672 -24.519 -15.367  0.00  0.00    -0.232 OA
BRANCH  29  30
ATOM     30  N   UNL     1      36.993 -24.990 -15.416  0.00  0.00    -0.096 NA
BRANCH  30  33
ATOM     31  N   UNL     1      38.107 -26.762 -14.253  0.00  0.00    -0.368 N 
ATOM     32  N   UNL     1      36.015 -27.088 -15.113  0.00  0.00    -0.368 N 
ATOM     33  C   UNL     1      37.055 -26.207 -14.946  0.00  0.00    +0.217 C 
ATOM     34  H   UNL     1      38.913 -26.226 -14.071  0.00  0.00    +0.159 HD
ATOM     35  H   UNL     1      38.054 -27.693 -13.941  0.00  0.00    +0.159 HD
ATOM     36  H   UNL     1      35.204 -26.806 -15.595  0.00  0.00    +0.159 HD
ATOM     37  H   UNL     1      36.080 -28.001 -14.753  0.00  0.00    +0.159 HD
ENDBRANCH  30  33
ENDBRANCH  29  30
ENDBRANCH  28  29
ENDBRANCH  27  28
ENDBRANCH  24  27
ENDBRANCH  22  25
ENDBRANCH   2  22
TORSDOF 12
ENDMDL
MODEL 2
REMARK VINA RESULT:     -10.3      4.229     10.769
REMARK  Name = 9867609
REMARK  12 active torsions:
REMARK  status: ('A' for Active; 'I' for Inactive)
REMARK    1  A    between atoms: C_2  and  C_22
REMARK    2  A    between atoms: C_3  and  N_8
REMARK    3  A    between atoms: C_5  and  C_21
REMARK    4  A    between atoms: N_8  and  C_10
REMARK    5  A    between atoms: C_10  and  C_13
REMARK    6  A    between atoms: C_13  and  C_15
REMARK    7  A    between atoms: C_22  and  C_25
REMARK    8  A    between atoms: N_24  and  C_27
REMARK    9  A    between atoms: C_27  and  C_28
REMARK   10  A    between atoms: C_28  and  O_29
REMARK   11  A    between atoms: O_29  and  N_30
REMARK   12  A    between atoms: N_30  and  C_33
REMARK                            x       y       z     vdW  Elec       q    Type
REMARK                         _______ _______ _______ _____ _____    ______ ____
ROOT
ATOM      1  F   UNL     1      35.194 -16.447 -20.622  0.00  0.00    -0.203 F 
ATOM      2  C   UNL     1      34.651 -16.347 -22.926  0.00  0.00    +0.025 C 
ATOM      3  C   UNL     1      35.106 -18.467 -21.859  0.00  0.00    +0.072 C 
ATOM      4  C   UNL     1      34.987 -17.079 -21.787  0.00  0.00    +0.150 C 
ATOM      5  C   UNL     1      34.436 -17.004 -24.138  0.00  0.00    +0.067 C 
ATOM      6  C   UNL     1      34.891 -19.124 -23.071  0.00  0.00    +0.017 C 
ATOM      7  C   UNL     1      34.555 -18.392 -24.210  0.00  0.00    +0.011 C 
ENDROOT
BRANCH   3   8
ATOM      8  N   UNL     1      35.445 -19.209 -20.708  0.00  0.00    -0.326 N 
ATOM      9  H   UNL     1      36.174 -18.879 -20.133  0.00  0.00    +0.147 HD
BRANCH   8  10
ATOM     10  C   UNL     1      34.776 -20.417 -20.338  0.00  0.00    +0.161 C 
BRANCH  10  13
ATOM     11  F   UNL     1      36.814 -20.628 -19.193  0.00  0.00    -0.196 F 
ATOM     12  F   UNL     1      36.262 -22.221 -20.558  0.00  0.00    -0.196 F 
ATOM     13  C   UNL     1      35.747 -21.361 -19.630  0.00  0.00    +0.316 C 
BRANCH  13  15
ATOM     14  N   UNL     1      35.814 -22.363 -17.411  0.00  0.00    -0.243 NA
ATOM     15  C   UNL     1      35.062 -22.091 -18.502  0.00  0.00    +0.121 C 
ATOM     16  C   UNL     1      33.727 -22.441 -18.630  0.00  0.00    +0.020 C 
ATOM     17  C   UNL     1      33.125 -23.114 -17.572  0.00  0.00    +0.003 C 
ATOM     18  C   UNL     1      35.194 -23.017 -16.402  0.00  0.00    +0.099 C 
ATOM     19  C   UNL     1      33.866 -23.410 -16.433  0.00  0.00    +0.021 C 
ENDBRANCH  13  15
ENDBRANCH  10  13
ENDBRANCH   8  10
ENDBRANCH   3   8
BRANCH   5  21
ATOM     20  N   UNL     1      33.808 -15.686 -26.280  0.00  0.00    -0.191 NA
ATOM     21  C   UNL     1      34.089 -16.276 -25.321  0.00  0.00    +0.100 C 
ENDBRANCH   5  21
BRANCH   2  22
ATOM     22  C   UNL     1      34.530 -14.851 -22.814  0.00  0.00    +0.114 C 
BRANCH  22  25
ATOM     23  O   UNL     1      32.324 -15.151 -21.864  0.00  0.00    -0.275 OA
ATOM     24  N   UNL     1      33.001 -13.020 -22.490  0.00  0.00    -0.302 N 
ATOM     25  C   UNL     1      33.168 -14.391 -22.332  0.00  0.00    +0.227 C 
ATOM     26  H   UNL     1      33.741 -12.497 -22.877  0.00  0.00    +0.150 HD
BRANCH  24  27
ATOM     27  C   UNL     1      31.795 -12.333 -22.115  0.00  0.00    +0.125 C 
BRANCH  27  28
ATOM     28  C   UNL     1      31.875 -10.851 -22.434  0.00  0.00    +0.197 C 
BRANCH  28  29
ATOM     29  O   UNL     1      31.213 -10.113 -21.417  0.00  0.00    -0.232 OA
BRANCH  29  30
ATOM     30  N   UNL     1      31.848  -8.868 -21.299  0.00  0.00    -0.096 NA
BRANCH  30  33
ATOM     31  N   UNL     1      32.252  -9.630 -19.065  0.00  0.00    -0.368 N 
ATOM     32  N   UNL     1      33.062  -7.607 -19.755  0.00  0.00    -0.368 N 
ATOM     33  C   UNL     1      32.350  -8.729 -20.102  0.00  0.00    +0.217 C 
ATOM     34  H   UNL     1      31.764 -10.475 -19.194  0.00  0.00    +0.159 HD
ATOM     35  H   UNL     1      32.668  -9.428 -18.197  0.00  0.00    +0.159 HD
ATOM     36  H   UNL     1      33.200  -6.888 -20.414  0.00  0.00    +0.159 HD
ATOM     37  H   UNL     1      33.433  -7.519 -18.847  0.00  0.00    +0.159 HD
ENDBRANCH  30  33
ENDBRANCH  29  30
ENDBRANCH  28  29
ENDBRANCH  27  28
ENDBRANCH  24  27
ENDBRANCH  22  25
ENDBRANCH   2  22
TORSDOF 12
ENDMDL
MODEL 3
REMARK VINA RESULT:     -10.2      2.422      3.842
REMARK  Name = 9867609
REMARK  12 active torsions:
REMARK  status: ('A' for Active; 'I' for Inactive)
REMARK    1  A    between atoms: C_2  and  C_22
REMARK    2  A    between atoms: C_3  and  N_8
REMARK    3  A    between atoms: C_5  and  C_21
REMARK    4  A    between atoms: N_8  and  C_10
REMARK    5  A    between atoms: C_10  and  C_13
REMARK    6  A    between atoms: C_13  and  C_15
REMARK    7  A    between atoms: C_22  and  C_25
REMARK    8  A    between atoms: N_24  and  C_27
REMARK    9  A    between atoms: C_27  and  C_28
REMARK   10  A    between atoms: C_28  and  O_29
REMARK   11  A    between atoms: O_29  and  N_30
REMARK   12  A    between atoms: N_30  and  C_33
REMARK                            x       y       z     vdW  Elec       q    Type
REMARK                         _______ _______ _______ _____ _____    ______ ____
ROOT
ATOM      1  F   UNL     1      37.236 -21.085 -17.793  0.00  0.00    -0.203 F 
ATOM      2  C   UNL     1      35.598 -22.400 -16.698  0.00  0.00    +0.025 C 
ATOM      3  C   UNL     1      35.284 -21.699 -18.990  0.00  0.00    +0.072 C 
ATOM      4  C   UNL     1      36.055 -21.719 -17.826  0.00  0.00    +0.150 C 
ATOM      5  C   UNL     1      34.368 -23.059 -16.733  0.00  0.00    +0.067 C 
ATOM      6  C   UNL     1      34.056 -22.358 -19.024  0.00  0.00    +0.017 C 
ATOM      7  C   UNL     1      33.598 -23.039 -17.896  0.00  0.00    +0.011 C 
ENDROOT
BRANCH   3   8
ATOM      8  N   UNL     1      35.745 -21.011 -20.132  0.00  0.00    -0.326 N 
ATOM      9  H   UNL     1      36.662 -21.183 -20.446  0.00  0.00    +0.147 HD
BRANCH   8  10
ATOM     10  C   UNL     1      34.939 -20.077 -20.853  0.00  0.00    +0.161 C 
BRANCH  10  13
ATOM     11  F   UNL     1      37.094 -19.254 -21.287  0.00  0.00    -0.196 F 
ATOM     12  F   UNL     1      35.690 -17.919 -20.312  0.00  0.00    -0.196 F 
ATOM     13  C   UNL     1      35.781 -18.876 -21.283  0.00  0.00    +0.316 C 
BRANCH  13  15
ATOM     14  N   UNL     1      35.376 -17.020 -22.806  0.00  0.00    -0.243 NA
ATOM     15  C   UNL     1      35.336 -18.359 -22.628  0.00  0.00    +0.121 C 
ATOM     16  C   UNL     1      34.919 -19.258 -23.597  0.00  0.00    +0.020 C 
ATOM     17  C   UNL     1      34.515 -18.749 -24.827  0.00  0.00    +0.003 C 
ATOM     18  C   UNL     1      34.977 -16.562 -24.015  0.00  0.00    +0.099 C 
ATOM     19  C   UNL     1      34.542 -17.377 -25.047  0.00  0.00    +0.021 C 
ENDBRANCH  13  15
ENDBRANCH  10  13
ENDBRANCH   8  10
ENDBRANCH   3   8
BRANCH   5  21
ATOM     20  N   UNL     1      33.479 -24.339 -14.661  0.00  0.00    -0.191 NA
ATOM     21  C   UNL     1      33.878 -23.766 -15.589  0.00  0.00    +0.100 C 
ENDBRANCH   5  21
BRANCH   2  22
ATOM     22  C   UNL     1      36.453 -22.403 -15.459  0.00  0.00    +0.114 C 
BRANCH  22  25
ATOM     23  O   UNL     1      38.643 -23.408 -15.703  0.00  0.00    -0.275 OA
ATOM     24  N   UNL     1      36.859 -24.739 -15.040  0.00  0.00    -0.302 N 
ATOM     25  C   UNL     1      37.454 -23.541 -15.422  0.00  0.00    +0.227 C 
ATOM     26  H   UNL     1      35.896 -24.741 -14.835  0.00  0.00    +0.150 HD
BRANCH  24  27
ATOM     27  C   UNL     1      37.589 -25.972 -14.931  0.00  0.00    +0.125 C 
BRANCH  27  28
ATOM     28  C   UNL     1      37.314 -26.669 -13.611  0.00  0.00    +0.197 C 
BRANCH  28  29
ATOM     29  O   UNL     1      37.599 -25.781 -12.540  0.00  0.00    -0.232 OA
BRANCH  29  30
ATOM     30  N   UNL     1      36.399 -25.511 -11.866  0.00  0.00    -0.096 NA
BRANCH  30  33
ATOM     31  N   UNL     1      37.144 -23.386 -11.051  0.00  0.00    -0.368 N 
ATOM     32  N   UNL     1      35.152 -23.560 -12.159  0.00  0.00    -0.368 N 
ATOM     33  C   UNL     1      36.259 -24.224 -11.691  0.00  0.00    +0.217 C 
ATOM     34  H   UNL     1      37.976 -23.749 -10.671  0.00  0.00    +0.159 HD
ATOM     35  H   UNL     1      36.942 -22.426 -10.971  0.00  0.00    +0.159 HD
ATOM     36  H   UNL     1      34.446 -24.053 -12.636  0.00  0.00    +0.159 HD
ATOM     37  H   UNL     1      35.063 -22.590 -12.017  0.00  0.00    +0.159 HD
ENDBRANCH  30  33
ENDBRANCH  29  30
ENDBRANCH  28  29
ENDBRANCH  27  28
ENDBRANCH  24  27
ENDBRANCH  22  25
ENDBRANCH   2  22
TORSDOF 12
ENDMDL
MODEL 4
REMARK VINA RESULT:     -10.1      4.353     10.859
REMARK  Name = 9867609
REMARK  12 active torsions:
REMARK  status: ('A' for Active; 'I' for Inactive)
REMARK    1  A    between atoms: C_2  and  C_22
REMARK    2  A    between atoms: C_3  and  N_8
REMARK    3  A    between atoms: C_5  and  C_21
REMARK    4  A    between atoms: N_8  and  C_10
REMARK    5  A    between atoms: C_10  and  C_13
REMARK    6  A    between atoms: C_13  and  C_15
REMARK    7  A    between atoms: C_22  and  C_25
REMARK    8  A    between atoms: N_24  and  C_27
REMARK    9  A    between atoms: C_27  and  C_28
REMARK   10  A    between atoms: C_28  and  O_29
REMARK   11  A    between atoms: O_29  and  N_30
REMARK   12  A    between atoms: N_30  and  C_33
REMARK                            x       y       z     vdW  Elec       q    Type
REMARK                         _______ _______ _______ _____ _____    ______ ____
ROOT
ATOM      1  F   UNL     1      35.034 -15.045 -21.668  0.00  0.00    -0.203 F 
ATOM      2  C   UNL     1      34.063 -14.753 -23.809  0.00  0.00    +0.025 C 
ATOM      3  C   UNL     1      35.042 -16.871 -23.180  0.00  0.00    +0.072 C 
ATOM      4  C   UNL     1      34.718 -15.549 -22.870  0.00  0.00    +0.150 C 
ATOM      5  C   UNL     1      33.735 -15.277 -25.060  0.00  0.00    +0.067 C 
ATOM      6  C   UNL     1      34.713 -17.395 -24.430  0.00  0.00    +0.017 C 
ATOM      7  C   UNL     1      34.059 -16.598 -25.370  0.00  0.00    +0.011 C 
ENDROOT
BRANCH   3   8
ATOM      8  N   UNL     1      35.703 -17.678 -22.231  0.00  0.00    -0.326 N 
ATOM      9  H   UNL     1      36.653 -17.893 -22.376  0.00  0.00    +0.147 HD
BRANCH   8  10
ATOM     10  C   UNL     1      35.055 -18.197 -21.068  0.00  0.00    +0.161 C 
BRANCH  10  13
ATOM     11  F   UNL     1      35.022 -20.023 -22.542  0.00  0.00    -0.196 F 
ATOM     12  F   UNL     1      33.166 -19.506 -21.547  0.00  0.00    -0.196 F 
ATOM     13  C   UNL     1      34.514 -19.599 -21.347  0.00  0.00    +0.316 C 
BRANCH  13  15
ATOM     14  N   UNL     1      36.128 -20.513 -19.770  0.00  0.00    -0.243 NA
ATOM     15  C   UNL     1      34.854 -20.543 -20.221  0.00  0.00    +0.121 C 
ATOM     16  C   UNL     1      33.871 -21.376 -19.713  0.00  0.00    +0.020 C 
ATOM     17  C   UNL     1      34.217 -22.235 -18.675  0.00  0.00    +0.003 C 
ATOM     18  C   UNL     1      36.428 -21.361 -18.759  0.00  0.00    +0.099 C 
ATOM     19  C   UNL     1      35.517 -22.232 -18.183  0.00  0.00    +0.021 C 
ENDBRANCH  13  15
ENDBRANCH  10  13
ENDBRANCH   8  10
ENDBRANCH   3   8
BRANCH   5  21
ATOM     20  N   UNL     1      32.516 -13.835 -26.836  0.00  0.00    -0.191 NA
ATOM     21  C   UNL     1      33.062 -14.480 -26.041  0.00  0.00    +0.100 C 
ENDBRANCH   5  21
BRANCH   2  22
ATOM     22  C   UNL     1      33.728 -13.331 -23.444  0.00  0.00    +0.114 C 
BRANCH  22  25
ATOM     23  O   UNL     1      31.983 -14.183 -21.997  0.00  0.00    -0.275 OA
ATOM     24  N   UNL     1      32.165 -11.890 -22.314  0.00  0.00    -0.302 N 
ATOM     25  C   UNL     1      32.540 -13.215 -22.509  0.00  0.00    +0.227 C 
ATOM     26  H   UNL     1      32.677 -11.184 -22.771  0.00  0.00    +0.150 HD
BRANCH  24  27
ATOM     27  C   UNL     1      31.062 -11.507 -21.475  0.00  0.00    +0.125 C 
BRANCH  27  28
ATOM     28  C   UNL     1      31.492 -11.348 -20.027  0.00  0.00    +0.197 C 
BRANCH  28  29
ATOM     29  O   UNL     1      31.793  -9.984 -19.772  0.00  0.00    -0.232 OA
BRANCH  29  30
ATOM     30  N   UNL     1      31.837  -9.310 -21.001  0.00  0.00    -0.096 NA
BRANCH  30  33
ATOM     31  N   UNL     1      33.160  -7.556 -21.953  0.00  0.00    -0.368 N 
ATOM     32  N   UNL     1      32.915  -7.711 -19.686  0.00  0.00    -0.368 N 
ATOM     33  C   UNL     1      32.596  -8.251 -20.908  0.00  0.00    +0.217 C 
ATOM     34  H   UNL     1      33.003  -7.849 -22.880  0.00  0.00    +0.159 HD
ATOM     35  H   UNL     1      33.721  -6.767 -21.774  0.00  0.00    +0.159 HD
ATOM     36  H   UNL     1      32.569  -8.121 -18.861  0.00  0.00    +0.159 HD
ATOM     37  H   UNL     1      33.489  -6.913 -19.635  0.00  0.00    +0.159 HD
ENDBRANCH  30  33
ENDBRANCH  29  30
ENDBRANCH  28  29
ENDBRANCH  27  28
ENDBRANCH  24  27
ENDBRANCH  22  25
ENDBRANCH   2  22
TORSDOF 12
ENDMDL
MODEL 5
REMARK VINA RESULT:     -10.0      5.033     11.371
REMARK  Name = 9867609
REMARK  12 active torsions:
REMARK  status: ('A' for Active; 'I' for Inactive)
REMARK    1  A    between atoms: C_2  and  C_22
REMARK    2  A    between atoms: C_3  and  N_8
REMARK    3  A    between atoms: C_5  and  C_21
REMARK    4  A    between atoms: N_8  and  C_10
REMARK    5  A    between atoms: C_10  and  C_13
REMARK    6  A    between atoms: C_13  and  C_15
REMARK    7  A    between atoms: C_22  and  C_25
REMARK    8  A    between atoms: N_24  and  C_27
REMARK    9  A    between atoms: C_27  and  C_28
REMARK   10  A    between atoms: C_28  and  O_29
REMARK   11  A    between atoms: O_29  and  N_30
REMARK   12  A    between atoms: N_30  and  C_33
REMARK                            x       y       z     vdW  Elec       q    Type
REMARK                         _______ _______ _______ _____ _____    ______ ____
ROOT
ATOM      1  F   UNL     1      34.268 -14.854 -24.208  0.00  0.00    -0.203 F 
ATOM      2  C   UNL     1      32.866 -13.541 -22.820  0.00  0.00    +0.025 C 
ATOM      3  C   UNL     1      34.045 -15.451 -21.924  0.00  0.00    +0.072 C 
ATOM      4  C   UNL     1      33.733 -14.618 -23.000  0.00  0.00    +0.150 C 
ATOM      5  C   UNL     1      32.309 -13.297 -21.565  0.00  0.00    +0.067 C 
ATOM      6  C   UNL     1      33.489 -15.206 -20.669  0.00  0.00    +0.017 C 
ATOM      7  C   UNL     1      32.622 -14.129 -20.489  0.00  0.00    +0.011 C 
ENDROOT
BRANCH   3   8
ATOM      8  N   UNL     1      34.922 -16.541 -22.105  0.00  0.00    -0.326 N 
ATOM      9  H   UNL     1      35.253 -16.734 -23.012  0.00  0.00    +0.147 HD
BRANCH   8  10
ATOM     10  C   UNL     1      35.354 -17.375 -21.027  0.00  0.00    +0.161 C 
BRANCH  10  13
ATOM     11  F   UNL     1      37.121 -18.846 -21.500  0.00  0.00    -0.196 F 
ATOM     12  F   UNL     1      35.453 -18.805 -22.887  0.00  0.00    -0.196 F 
ATOM     13  C   UNL     1      35.760 -18.751 -21.557  0.00  0.00    +0.316 C 
BRANCH  13  15
ATOM     14  N   UNL     1      35.890 -20.762 -20.190  0.00  0.00    -0.243 NA
ATOM     15  C   UNL     1      35.083 -19.850 -20.776  0.00  0.00    +0.121 C 
ATOM     16  C   UNL     1      33.700 -19.874 -20.696  0.00  0.00    +0.020 C 
ATOM     17  C   UNL     1      33.107 -20.900 -19.968  0.00  0.00    +0.003 C 
ATOM     18  C   UNL     1      35.278 -21.746 -19.491  0.00  0.00    +0.099 C 
ATOM     19  C   UNL     1      33.904 -21.857 -19.351  0.00  0.00    +0.021 C 
ENDBRANCH  13  15
ENDBRANCH  10  13
ENDBRANCH   8  10
ENDBRANCH   3   8
BRANCH   5  21
ATOM     20  N   UNL     1      30.694 -11.305 -21.182  0.00  0.00    -0.191 NA
ATOM     21  C   UNL     1      31.417 -12.197 -21.354  0.00  0.00    +0.100 C 
ENDBRANCH   5  21
BRANCH   2  22
ATOM     22  C   UNL     1      32.549 -12.662 -24.001  0.00  0.00    +0.114 C 
BRANCH  22  25
ATOM     23  O   UNL     1      34.567 -11.590 -24.802  0.00  0.00    -0.275 OA
ATOM     24  N   UNL     1      33.072 -10.363 -23.516  0.00  0.00    -0.302 N 
ATOM     25  C   UNL     1      33.518 -11.508 -24.169  0.00  0.00    +0.227 C 
ATOM     26  H   UNL     1      32.215 -10.400 -23.034  0.00  0.00    +0.150 HD
BRANCH  24  27
ATOM     27  C   UNL     1      33.810  -9.129 -23.516  0.00  0.00    +0.125 C 
BRANCH  27  28
ATOM     28  C   UNL     1      32.885  -7.926 -23.554  0.00  0.00    +0.197 C 
BRANCH  28  29
ATOM     29  O   UNL     1      32.818  -7.342 -22.261  0.00  0.00    -0.232 OA
BRANCH  29  30
ATOM     30  N   UNL     1      32.034  -8.172 -21.448  0.00  0.00    -0.096 NA
BRANCH  30  33
ATOM     31  N   UNL     1      33.039  -7.087 -19.564  0.00  0.00    -0.368 N 
ATOM     32  N   UNL     1      32.451  -9.293 -19.443  0.00  0.00    -0.368 N 
ATOM     33  C   UNL     1      32.487  -8.163 -20.223  0.00  0.00    +0.217 C 
ATOM     34  H   UNL     1      33.120  -6.220 -20.023  0.00  0.00    +0.159 HD
ATOM     35  H   UNL     1      33.354  -7.187 -18.637  0.00  0.00    +0.159 HD
ATOM     36  H   UNL     1      32.077 -10.129 -19.805  0.00  0.00    +0.159 HD
ATOM     37  H   UNL     1      32.798  -9.268 -18.522  0.00  0.00    +0.159 HD
ENDBRANCH  30  33
ENDBRANCH  29  30
ENDBRANCH  28  29
ENDBRANCH  27  28
ENDBRANCH  24  27
ENDBRANCH  22  25
ENDBRANCH   2  22
TORSDOF 12
ENDMDL
MODEL 6
REMARK VINA RESULT:      -9.9      3.977     10.959
REMARK  Name = 9867609
REMARK  12 active torsions:
REMARK  status: ('A' for Active; 'I' for Inactive)
REMARK    1  A    between atoms: C_2  and  C_22
REMARK    2  A    between atoms: C_3  and  N_8
REMARK    3  A    between atoms: C_5  and  C_21
REMARK    4  A    between atoms: N_8  and  C_10
REMARK    5  A    between atoms: C_10  and  C_13
REMARK    6  A    between atoms: C_13  and  C_15
REMARK    7  A    between atoms: C_22  and  C_25
REMARK    8  A    between atoms: N_24  and  C_27
REMARK    9  A    between atoms: C_27  and  C_28
REMARK   10  A    between atoms: C_28  and  O_29
REMARK   11  A    between atoms: O_29  and  N_30
REMARK   12  A    between atoms: N_30  and  C_33
REMARK                            x       y       z     vdW  Elec       q    Type
REMARK                         _______ _______ _______ _____ _____    ______ ____
ROOT
ATOM      1  F   UNL     1      35.153 -16.381 -20.599  0.00  0.00    -0.203 F 
ATOM      2  C   UNL     1      34.626 -16.261 -22.906  0.00  0.00    +0.025 C 
ATOM      3  C   UNL     1      35.126 -18.385 -21.866  0.00  0.00    +0.072 C 
ATOM      4  C   UNL     1      34.971 -17.001 -21.775  0.00  0.00    +0.150 C 
ATOM      5  C   UNL     1      34.437 -16.906 -24.129  0.00  0.00    +0.067 C 
ATOM      6  C   UNL     1      34.937 -19.028 -23.089  0.00  0.00    +0.017 C 
ATOM      7  C   UNL     1      34.592 -18.289 -24.220  0.00  0.00    +0.011 C 
ENDROOT
BRANCH   3   8
ATOM      8  N   UNL     1      35.475 -19.134 -20.723  0.00  0.00    -0.326 N 
ATOM      9  H   UNL     1      36.229 -18.826 -20.170  0.00  0.00    +0.147 HD
BRANCH   8  10
ATOM     10  C   UNL     1      34.780 -20.321 -20.332  0.00  0.00    +0.161 C 
BRANCH  10  13
ATOM     11  F   UNL     1      36.835 -20.602 -19.233  0.00  0.00    -0.196 F 
ATOM     12  F   UNL     1      36.225 -22.147 -20.629  0.00  0.00    -0.196 F 
ATOM     13  C   UNL     1      35.745 -21.302 -19.669  0.00  0.00    +0.316 C 
BRANCH  13  15
ATOM     14  N   UNL     1      35.824 -22.326 -17.460  0.00  0.00    -0.243 NA
ATOM     15  C   UNL     1      35.068 -22.050 -18.547  0.00  0.00    +0.121 C 
ATOM     16  C   UNL     1      33.736 -22.409 -18.677  0.00  0.00    +0.020 C 
ATOM     17  C   UNL     1      33.142 -23.098 -17.625  0.00  0.00    +0.003 C 
ATOM     18  C   UNL     1      35.211 -22.996 -16.457  0.00  0.00    +0.099 C 
ATOM     19  C   UNL     1      33.886 -23.399 -16.490  0.00  0.00    +0.021 C 
ENDBRANCH  13  15
ENDBRANCH  10  13
ENDBRANCH   8  10
ENDBRANCH   3   8
BRANCH   5  21
ATOM     20  N   UNL     1      33.793 -15.573 -26.257  0.00  0.00    -0.191 NA
ATOM     21  C   UNL     1      34.081 -16.169 -25.304  0.00  0.00    +0.100 C 
ENDBRANCH   5  21
BRANCH   2  22
ATOM     22  C   UNL     1      34.467 -14.770 -22.774  0.00  0.00    +0.114 C 
BRANCH  22  25
ATOM     23  O   UNL     1      32.280 -15.125 -21.798  0.00  0.00    -0.275 OA
ATOM     24  N   UNL     1      32.853 -12.999 -22.536  0.00  0.00    -0.302 N 
ATOM     25  C   UNL     1      33.086 -14.351 -22.308  0.00  0.00    +0.227 C 
ATOM     26  H   UNL     1      33.566 -12.463 -22.953  0.00  0.00    +0.150 HD
BRANCH  24  27
ATOM     27  C   UNL     1      31.617 -12.352 -22.190  0.00  0.00    +0.125 C 
BRANCH  27  28
ATOM     28  C   UNL     1      31.848 -10.933 -21.702  0.00  0.00    +0.197 C 
BRANCH  28  29
ATOM     29  O   UNL     1      31.741 -10.034 -22.797  0.00  0.00    -0.232 OA
BRANCH  29  30
ATOM     30  N   UNL     1      32.902 -10.153 -23.574  0.00  0.00    -0.096 NA
BRANCH  30  33
ATOM     31  N   UNL     1      33.113  -7.813 -23.113  0.00  0.00    -0.368 N 
ATOM     32  N   UNL     1      34.863  -8.969 -24.022  0.00  0.00    -0.368 N 
ATOM     33  C   UNL     1      33.570  -9.032 -23.561  0.00  0.00    +0.217 C 
ATOM     34  H   UNL     1      32.198  -7.732 -22.759  0.00  0.00    +0.159 HD
ATOM     35  H   UNL     1      33.699  -7.024 -23.148  0.00  0.00    +0.159 HD
ATOM     36  H   UNL     1      35.302  -9.779 -24.369  0.00  0.00    +0.159 HD
ATOM     37  H   UNL     1      35.351  -8.114 -24.005  0.00  0.00    +0.159 HD
ENDBRANCH  30  33
ENDBRANCH  29  30
ENDBRANCH  28  29
ENDBRANCH  27  28
ENDBRANCH  24  27
ENDBRANCH  22  25
ENDBRANCH   2  22
TORSDOF 12
ENDMDL
MODEL 7
REMARK VINA RESULT:      -9.9      2.413      3.734
REMARK  Name = 9867609
REMARK  12 active torsions:
REMARK  status: ('A' for Active; 'I' for Inactive)
REMARK    1  A    between atoms: C_2  and  C_22
REMARK    2  A    between atoms: C_3  and  N_8
REMARK    3  A    between atoms: C_5  and  C_21
REMARK    4  A    between atoms: N_8  and  C_10
REMARK    5  A    between atoms: C_10  and  C_13
REMARK    6  A    between atoms: C_13  and  C_15
REMARK    7  A    between atoms: C_22  and  C_25
REMARK    8  A    between atoms: N_24  and  C_27
REMARK    9  A    between atoms: C_27  and  C_28
REMARK   10  A    between atoms: C_28  and  O_29
REMARK   11  A    between atoms: O_29  and  N_30
REMARK   12  A    between atoms: N_30  and  C_33
REMARK                            x       y       z     vdW  Elec       q    Type
REMARK                         _______ _______ _______ _____ _____    ______ ____
ROOT
ATOM      1  F   UNL     1      37.174 -21.531 -18.032  0.00  0.00    -0.203 F 
ATOM      2  C   UNL     1      35.351 -22.514 -16.882  0.00  0.00    +0.025 C 
ATOM      3  C   UNL     1      35.117 -21.802 -19.179  0.00  0.00    +0.072 C 
ATOM      4  C   UNL     1      35.898 -21.943 -18.031  0.00  0.00    +0.150 C 
ATOM      5  C   UNL     1      34.023 -22.942 -16.880  0.00  0.00    +0.067 C 
ATOM      6  C   UNL     1      33.790 -22.230 -19.177  0.00  0.00    +0.017 C 
ATOM      7  C   UNL     1      33.243 -22.801 -18.028  0.00  0.00    +0.011 C 
ENDROOT
BRANCH   3   8
ATOM      8  N   UNL     1      35.669 -21.225 -20.342  0.00  0.00    -0.326 N 
ATOM      9  H   UNL     1      36.066 -21.819 -21.019  0.00  0.00    +0.147 HD
BRANCH   8  10
ATOM     10  C   UNL     1      35.676 -19.816 -20.581  0.00  0.00    +0.161 C 
BRANCH  10  13
ATOM     11  F   UNL     1      33.482 -19.943 -21.406  0.00  0.00    -0.196 F 
ATOM     12  F   UNL     1      35.102 -20.184 -22.828  0.00  0.00    -0.196 F 
ATOM     13  C   UNL     1      34.723 -19.471 -21.726  0.00  0.00    +0.316 C 
BRANCH  13  15
ATOM     14  N   UNL     1      34.801 -17.600 -23.282  0.00  0.00    -0.243 NA
ATOM     15  C   UNL     1      34.712 -17.986 -21.990  0.00  0.00    +0.121 C 
ATOM     16  C   UNL     1      34.615 -17.107 -20.923  0.00  0.00    +0.020 C 
ATOM     17  C   UNL     1      34.608 -15.744 -21.200  0.00  0.00    +0.003 C 
ATOM     18  C   UNL     1      34.790 -16.266 -23.513  0.00  0.00    +0.099 C 
ATOM     19  C   UNL     1      34.696 -15.308 -22.517  0.00  0.00    +0.021 C 
ENDBRANCH  13  15
ENDBRANCH  10  13
ENDBRANCH   8  10
ENDBRANCH   3   8
BRANCH   5  21
ATOM     20  N   UNL     1      32.966 -24.011 -14.768  0.00  0.00    -0.191 NA
ATOM     21  C   UNL     1      33.439 -23.532 -15.714  0.00  0.00    +0.100 C 
ENDBRANCH   5  21
BRANCH   2  22
ATOM     22  C   UNL     1      36.220 -22.652 -15.659  0.00  0.00    +0.114 C 
BRANCH  22  25
ATOM     23  O   UNL     1      36.169 -25.073 -15.685  0.00  0.00    -0.275 OA
ATOM     24  N   UNL     1      38.138 -23.992 -15.093  0.00  0.00    -0.302 N 
ATOM     25  C   UNL     1      36.806 -24.041 -15.492  0.00  0.00    +0.227 C 
ATOM     26  H   UNL     1      38.559 -23.112 -14.965  0.00  0.00    +0.150 HD
BRANCH  24  27
ATOM     27  C   UNL     1      38.924 -25.173 -14.860  0.00  0.00    +0.125 C 
BRANCH  27  28
ATOM     28  C   UNL     1      38.889 -25.587 -13.399  0.00  0.00    +0.197 C 
BRANCH  28  29
ATOM     29  O   UNL     1      37.750 -26.402 -13.167  0.00  0.00    -0.232 OA
BRANCH  29  30
ATOM     30  N   UNL     1      37.257 -26.108 -11.887  0.00  0.00    -0.096 NA
BRANCH  30  33
ATOM     31  N   UNL     1      35.330 -24.928 -12.682  0.00  0.00    -0.368 N 
ATOM     32  N   UNL     1      36.755 -23.936 -11.195  0.00  0.00    -0.368 N 
ATOM     33  C   UNL     1      36.478 -25.060 -11.934  0.00  0.00    +0.217 C 
ATOM     34  H   UNL     1      35.029 -25.670 -13.254  0.00  0.00    +0.159 HD
ATOM     35  H   UNL     1      34.813 -24.091 -12.647  0.00  0.00    +0.159 HD
ATOM     36  H   UNL     1      37.552 -23.909 -10.618  0.00  0.00    +0.159 HD
ATOM     37  H   UNL     1      36.157 -23.155 -11.243  0.00  0.00    +0.159 HD
ENDBRANCH  30  33
ENDBRANCH  29  30
ENDBRANCH  28  29
ENDBRANCH  27  28
ENDBRANCH  24  27
ENDBRANCH  22  25
ENDBRANCH   2  22
TORSDOF 12
ENDMDL
MODEL 8
REMARK VINA RESULT:      -9.8      4.685     11.119
REMARK  Name = 9867609
REMARK  12 active torsions:
REMARK  status: ('A' for Active; 'I' for Inactive)
REMARK    1  A    between atoms: C_2  and  C_22
REMARK    2  A    between atoms: C_3  and  N_8
REMARK    3  A    between atoms: C_5  and  C_21
REMARK    4  A    between atoms: N_8  and  C_10
REMARK    5  A    between atoms: C_10  and  C_13
REMARK    6  A    between atoms: C_13  and  C_15
REMARK    7  A    between atoms: C_22  and  C_25
REMARK    8  A    between atoms: N_24  and  C_27
REMARK    9  A    between atoms: C_27  and  C_28
REMARK   10  A    between atoms: C_28  and  O_29
REMARK   11  A    between atoms: O_29  and  N_30
REMARK   12  A    between atoms: N_30  and  C_33
REMARK                            x       y       z     vdW  Elec       q    Type
REMARK                         _______ _______ _______ _____ _____    ______ ____
ROOT
ATOM      1  F   UNL     1      33.905 -14.802 -21.335  0.00  0.00    -0.203 F 
ATOM      2  C   UNL     1      33.432 -14.680 -23.654  0.00  0.00    +0.025 C 
ATOM      3  C   UNL     1      34.841 -16.436 -22.776  0.00  0.00    +0.072 C 
ATOM      4  C   UNL     1      34.058 -15.299 -22.572  0.00  0.00    +0.150 C 
ATOM      5  C   UNL     1      33.592 -15.196 -24.940  0.00  0.00    +0.067 C 
ATOM      6  C   UNL     1      35.000 -16.952 -24.062  0.00  0.00    +0.017 C 
ATOM      7  C   UNL     1      34.375 -16.332 -25.144  0.00  0.00    +0.011 C 
ENDROOT
BRANCH   3   8
ATOM      8  N   UNL     1      35.474 -17.064 -21.683  0.00  0.00    -0.326 N 
ATOM      9  H   UNL     1      35.794 -16.504 -20.939  0.00  0.00    +0.147 HD
BRANCH   8  10
ATOM     10  C   UNL     1      35.669 -18.478 -21.607  0.00  0.00    +0.161 C 
BRANCH  10  13
ATOM     11  F   UNL     1      33.844 -19.627 -22.536  0.00  0.00    -0.196 F 
ATOM     12  F   UNL     1      33.438 -18.245 -20.914  0.00  0.00    -0.196 F 
ATOM     13  C   UNL     1      34.337 -19.180 -21.343  0.00  0.00    +0.316 C 
BRANCH  13  15
ATOM     14  N   UNL     1      35.762 -20.536 -19.908  0.00  0.00    -0.243 NA
ATOM     15  C   UNL     1      34.506 -20.299 -20.346  0.00  0.00    +0.121 C 
ATOM     16  C   UNL     1      33.393 -21.016 -19.935  0.00  0.00    +0.020 C 
ATOM     17  C   UNL     1      33.582 -22.042 -19.015  0.00  0.00    +0.003 C 
ATOM     18  C   UNL     1      35.908 -21.541 -19.014  0.00  0.00    +0.099 C 
ATOM     19  C   UNL     1      34.861 -22.315 -18.541  0.00  0.00    +0.021 C 
ENDBRANCH  13  15
ENDBRANCH  10  13
ENDBRANCH   8  10
ENDBRANCH   3   8
BRANCH   5  21
ATOM     20  N   UNL     1      32.447 -14.079 -26.980  0.00  0.00    -0.191 NA
ATOM     21  C   UNL     1      32.959 -14.579 -26.067  0.00  0.00    +0.100 C 
ENDBRANCH   5  21
BRANCH   2  22
ATOM     22  C   UNL     1      32.594 -13.455 -23.400  0.00  0.00    +0.114 C 
BRANCH  22  25
ATOM     23  O   UNL     1      34.383 -12.117 -24.335  0.00  0.00    -0.275 OA
ATOM     24  N   UNL     1      32.547 -11.048 -23.399  0.00  0.00    -0.302 N 
ATOM     25  C   UNL     1      33.291 -12.161 -23.774  0.00  0.00    +0.227 C 
ATOM     26  H   UNL     1      31.681 -11.189 -22.953  0.00  0.00    +0.150 HD
BRANCH  24  27
ATOM     27  C   UNL     1      32.988  -9.700 -23.634  0.00  0.00    +0.125 C 
BRANCH  27  28
ATOM     28  C   UNL     1      31.871  -8.698 -23.398  0.00  0.00    +0.197 C 
BRANCH  28  29
ATOM     29  O   UNL     1      31.982  -8.170 -22.085  0.00  0.00    -0.232 OA
BRANCH  29  30
ATOM     30  N   UNL     1      32.054  -9.245 -21.187  0.00  0.00    -0.096 NA
BRANCH  30  33
ATOM     31  N   UNL     1      32.892  -7.577 -19.687  0.00  0.00    -0.368 N 
ATOM     32  N   UNL     1      32.241  -9.618 -18.890  0.00  0.00    -0.368 N 
ATOM     33  C   UNL     1      32.383  -8.817 -19.997  0.00  0.00    +0.217 C 
ATOM     34  H   UNL     1      33.040  -6.914 -20.400  0.00  0.00    +0.159 HD
ATOM     35  H   UNL     1      33.109  -7.354 -18.754  0.00  0.00    +0.159 HD
ATOM     36  H   UNL     1      31.885 -10.531 -18.985  0.00  0.00    +0.159 HD
ATOM     37  H   UNL     1      32.494  -9.279 -18.001  0.00  0.00    +0.159 HD
ENDBRANCH  30  33
ENDBRANCH  29  30
ENDBRANCH  28  29
ENDBRANCH  27  28
ENDBRANCH  24  27
ENDBRANCH  22  25
ENDBRANCH   2  22
TORSDOF 12
ENDMDL
MODEL 9
REMARK VINA RESULT:      -9.8      3.424      5.264
REMARK  Name = 9867609
REMARK  12 active torsions:
REMARK  status: ('A' for Active; 'I' for Inactive)
REMARK    1  A    between atoms: C_2  and  C_22
REMARK    2  A    between atoms: C_3  and  N_8
REMARK    3  A    between atoms: C_5  and  C_21
REMARK    4  A    between atoms: N_8  and  C_10
REMARK    5  A    between atoms: C_10  and  C_13
REMARK    6  A    between atoms: C_13  and  C_15
REMARK    7  A    between atoms: C_22  and  C_25
REMARK    8  A    between atoms: N_24  and  C_27
REMARK    9  A    between atoms: C_27  and  C_28
REMARK   10  A    between atoms: C_28  and  O_29
REMARK   11  A    between atoms: O_29  and  N_30
REMARK   12  A    between atoms: N_30  and  C_33
REMARK                            x       y       z     vdW  Elec       q    Type
REMARK                         _______ _______ _______ _____ _____    ______ ____
ROOT
ATOM      1  F   UNL     1      33.497 -22.400 -19.871  0.00  0.00    -0.203 F 
ATOM      2  C   UNL     1      34.635 -22.814 -17.834  0.00  0.00    +0.025 C 
ATOM      3  C   UNL     1      35.562 -21.304 -19.477  0.00  0.00    +0.072 C 
ATOM      4  C   UNL     1      34.550 -22.176 -19.071  0.00  0.00    +0.150 C 
ATOM      5  C   UNL     1      35.731 -22.582 -17.002  0.00  0.00    +0.067 C 
ATOM      6  C   UNL     1      36.657 -21.071 -18.646  0.00  0.00    +0.017 C 
ATOM      7  C   UNL     1      36.741 -21.709 -17.408  0.00  0.00    +0.011 C 
ENDROOT
BRANCH   3   8
ATOM      8  N   UNL     1      35.478 -20.658 -20.728  0.00  0.00    -0.326 N 
ATOM      9  H   UNL     1      35.980 -21.034 -21.487  0.00  0.00    +0.147 HD
BRANCH   8  10
ATOM     10  C   UNL     1      34.695 -19.481 -20.942  0.00  0.00    +0.161 C 
BRANCH  10  13
ATOM     11  F   UNL     1      36.883 -18.767 -21.404  0.00  0.00    -0.196 F 
ATOM     12  F   UNL     1      35.540 -17.343 -20.468  0.00  0.00    -0.196 F 
ATOM     13  C   UNL     1      35.588 -18.332 -21.409  0.00  0.00    +0.316 C 
BRANCH  13  15
ATOM     14  N   UNL     1      35.052 -16.499 -22.921  0.00  0.00    -0.243 NA
ATOM     15  C   UNL     1      35.163 -17.838 -22.770  0.00  0.00    +0.121 C 
ATOM     16  C   UNL     1      34.912 -18.755 -23.778  0.00  0.00    +0.020 C 
ATOM     17  C   UNL     1      34.523 -18.268 -25.021  0.00  0.00    +0.003 C 
ATOM     18  C   UNL     1      34.672 -16.062 -24.144  0.00  0.00    +0.099 C 
ATOM     19  C   UNL     1      34.398 -16.896 -25.215  0.00  0.00    +0.021 C 
ENDBRANCH  13  15
ENDBRANCH  10  13
ENDBRANCH   8  10
ENDBRANCH   3   8
BRANCH   5  21
ATOM     20  N   UNL     1      35.928 -23.743 -14.693  0.00  0.00    -0.191 NA
ATOM     21  C   UNL     1      35.840 -23.223 -15.727  0.00  0.00    +0.100 C 
ENDBRANCH   5  21
BRANCH   2  22
ATOM     22  C   UNL     1      33.527 -23.749 -17.426  0.00  0.00    +0.114 C 
BRANCH  22  25
ATOM     23  O   UNL     1      31.539 -22.367 -17.425  0.00  0.00    -0.275 OA
ATOM     24  N   UNL     1      32.300 -23.250 -15.416  0.00  0.00    -0.302 N 
ATOM     25  C   UNL     1      32.346 -23.042 -16.790  0.00  0.00    +0.227 C 
ATOM     26  H   UNL     1      32.996 -23.808 -15.001  0.00  0.00    +0.150 HD
BRANCH  24  27
ATOM     27  C   UNL     1      31.280 -22.683 -14.576  0.00  0.00    +0.125 C 
BRANCH  27  28
ATOM     28  C   UNL     1      30.243 -23.719 -14.181  0.00  0.00    +0.197 C 
BRANCH  28  29
ATOM     29  O   UNL     1      29.753 -24.364 -15.347  0.00  0.00    -0.232 OA
BRANCH  29  30
ATOM     30  N   UNL     1      28.357 -24.231 -15.364  0.00  0.00    -0.096 NA
BRANCH  30  33
ATOM     31  N   UNL     1      27.062 -22.253 -15.741  0.00  0.00    -0.368 N 
ATOM     32  N   UNL     1      28.600 -22.934 -17.289  0.00  0.00    -0.368 N 
ATOM     33  C   UNL     1      28.011 -23.192 -16.075  0.00  0.00    +0.217 C 
ATOM     34  H   UNL     1      26.570 -22.332 -14.892  0.00  0.00    +0.159 HD
ATOM     35  H   UNL     1      26.875 -21.504 -16.351  0.00  0.00    +0.159 HD
ATOM     36  H   UNL     1      29.296 -23.537 -17.637  0.00  0.00    +0.159 HD
ATOM     37  H   UNL     1      28.326 -22.146 -17.812  0.00  0.00    +0.159 HD
ENDBRANCH  30  33
ENDBRANCH  29  30
ENDBRANCH  28  29
ENDBRANCH  27  28
ENDBRANCH  24  27
ENDBRANCH  22  25
ENDBRANCH   2  22
TORSDOF 12
ENDMDL
