MODEL 1
REMARK VINA RESULT:      -9.5      0.000      0.000
REMARK  Name = 16058639
REMARK  2 active torsions:
REMARK  status: ('A' for Active; 'I' for Inactive)
REMARK    1  A    between atoms: C_3  and  N_11
REMARK    2  A    between atoms: C_5  and  C_16
REMARK                            x       y       z     vdW  Elec       q    Type
REMARK                         _______ _______ _______ _____ _____    ______ ____
ROOT
ATOM      1 CL   UNL     1      37.652 -22.548 -16.063  0.00  0.00    -0.080 Cl
ATOM      2  S   UNL     1      33.558 -23.640 -16.247  0.00  0.00    -0.084 S 
ATOM      3  C   UNL     1      35.629 -23.902 -14.750  0.00  0.00    +0.088 C 
ATOM      4  C   UNL     1      36.047 -23.128 -15.871  0.00  0.00    +0.079 C 
ATOM      5  C   UNL     1      35.020 -22.911 -16.765  0.00  0.00    +0.041 C 
ATOM      6  C   UNL     1      34.298 -24.249 -14.828  0.00  0.00    +0.052 C 
ENDROOT
BRANCH   3  11
ATOM      7  S   UNL     1      37.436 -25.686 -13.806  0.00  0.00    +0.130 S 
ATOM      8  O   UNL     1      37.990 -25.780 -15.142  0.00  0.00    -0.135 OA
ATOM      9  O   UNL     1      36.763 -26.807 -13.181  0.00  0.00    -0.135 OA
ATOM     10  O   UNL     1      39.074 -23.184 -11.456  0.00  0.00    -0.272 OA
ATOM     11  N   UNL     1      36.474 -24.272 -13.687  0.00  0.00    -0.168 N 
ATOM     12  N   UNL     1      38.613 -25.079 -12.742  0.00  0.00    -0.171 N 
ATOM     13  C   UNL     1      37.043 -23.237 -12.777  0.00  0.00    +0.203 C 
ATOM     14  C   UNL     1      38.346 -23.783 -12.234  0.00  0.00    +0.264 C 
ATOM     15  H   UNL     1      39.418 -25.590 -12.496  0.00  0.00    +0.178 HD
ENDBRANCH   3  11
BRANCH   5  16
ATOM     16  C   UNL     1      35.013 -22.186 -18.012  0.00  0.00    +0.007 C 
ATOM     17  C   UNL     1      36.204 -21.676 -18.529  0.00  0.00    +0.001 C 
ATOM     18  C   UNL     1      33.816 -21.993 -18.700  0.00  0.00    +0.001 C 
ATOM     19  C   UNL     1      36.197 -20.974 -19.735  0.00  0.00    +0.000 C 
ATOM     20  C   UNL     1      33.809 -21.291 -19.906  0.00  0.00    +0.000 C 
ATOM     21  C   UNL     1      34.999 -20.782 -20.423  0.00  0.00    +0.000 C 
ENDBRANCH   5  16
TORSDOF 2
ENDMDL
MODEL 2
REMARK VINA RESULT:      -9.3      2.137      2.441
REMARK  Name = 16058639
REMARK  2 active torsions:
REMARK  status: ('A' for Active; 'I' for Inactive)
REMARK    1  A    between atoms: C_3  and  N_11
REMARK    2  A    between atoms: C_5  and  C_16
REMARK                            x       y       z     vdW  Elec       q    Type
REMARK                         _______ _______ _______ _____ _____    ______ ____
ROOT
ATOM      1 CL   UNL     1      33.517 -23.656 -17.185  0.00  0.00    -0.080 Cl
ATOM      2  S   UNL     1      37.157 -21.485 -17.346  0.00  0.00    -0.084 S 
ATOM      3  C   UNL     1      35.970 -23.293 -15.960  0.00  0.00    +0.088 C 
ATOM      4  C   UNL     1      35.068 -22.939 -17.003  0.00  0.00    +0.079 C 
ATOM      5  C   UNL     1      35.585 -21.965 -17.832  0.00  0.00    +0.041 C 
ATOM      6  C   UNL     1      37.145 -22.576 -16.027  0.00  0.00    +0.052 C 
ENDROOT
BRANCH   3  11
ATOM      7  S   UNL     1      36.701 -25.641 -14.822  0.00  0.00    +0.130 S 
ATOM      8  O   UNL     1      38.086 -25.248 -14.985  0.00  0.00    -0.135 OA
ATOM      9  O   UNL     1      36.135 -26.756 -15.555  0.00  0.00    -0.135 OA
ATOM     10  O   UNL     1      35.083 -24.827 -11.478  0.00  0.00    -0.272 OA
ATOM     11  N   UNL     1      35.697 -24.259 -14.973  0.00  0.00    -0.168 N 
ATOM     12  N   UNL     1      36.349 -25.822 -13.171  0.00  0.00    -0.171 N 
ATOM     13  C   UNL     1      35.016 -23.873 -13.704  0.00  0.00    +0.203 C 
ATOM     14  C   UNL     1      35.454 -24.858 -12.642  0.00  0.00    +0.264 C 
ATOM     15  H   UNL     1      36.736 -26.543 -12.623  0.00  0.00    +0.178 HD
ENDBRANCH   3  11
BRANCH   5  16
ATOM     16  C   UNL     1      35.009 -21.333 -18.994  0.00  0.00    +0.007 C 
ATOM     17  C   UNL     1      35.827 -20.652 -19.895  0.00  0.00    +0.001 C 
ATOM     18  C   UNL     1      33.634 -21.402 -19.215  0.00  0.00    +0.001 C 
ATOM     19  C   UNL     1      35.270 -20.039 -21.018  0.00  0.00    +0.000 C 
ATOM     20  C   UNL     1      33.077 -20.790 -20.338  0.00  0.00    +0.000 C 
ATOM     21  C   UNL     1      33.894 -20.109 -21.239  0.00  0.00    +0.000 C 
ENDBRANCH   5  16
TORSDOF 2
ENDMDL
MODEL 3
REMARK VINA RESULT:      -9.1     12.864     15.041
REMARK  Name = 16058639
REMARK  2 active torsions:
REMARK  status: ('A' for Active; 'I' for Inactive)
REMARK    1  A    between atoms: C_3  and  N_11
REMARK    2  A    between atoms: C_5  and  C_16
REMARK                            x       y       z     vdW  Elec       q    Type
REMARK                         _______ _______ _______ _____ _____    ______ ____
ROOT
ATOM      1 CL   UNL     1      33.903 -10.357 -24.379  0.00  0.00    -0.080 Cl
ATOM      2  S   UNL     1      31.058 -11.125 -21.329  0.00  0.00    -0.084 S 
ATOM      3  C   UNL     1      32.644 -12.352 -22.935  0.00  0.00    +0.088 C 
ATOM      4  C   UNL     1      32.816 -10.962 -23.195  0.00  0.00    +0.079 C 
ATOM      5  C   UNL     1      32.014 -10.179 -22.391  0.00  0.00    +0.041 C 
ATOM      6  C   UNL     1      31.715 -12.582 -21.944  0.00  0.00    +0.052 C 
ENDROOT
BRANCH   3  11
ATOM      7  S   UNL     1      33.691 -14.847 -22.811  0.00  0.00    +0.130 S 
ATOM      8  O   UNL     1      32.546 -15.250 -22.018  0.00  0.00    -0.135 OA
ATOM      9  O   UNL     1      35.028 -14.809 -22.252  0.00  0.00    -0.135 OA
ATOM     10  O   UNL     1      33.450 -15.421 -26.563  0.00  0.00    -0.272 OA
ATOM     11  N   UNL     1      33.337 -13.373 -23.611  0.00  0.00    -0.168 N 
ATOM     12  N   UNL     1      33.719 -15.729 -24.262  0.00  0.00    -0.171 N 
ATOM     13  C   UNL     1      33.231 -13.507 -25.092  0.00  0.00    +0.203 C 
ATOM     14  C   UNL     1      33.469 -14.964 -25.430  0.00  0.00    +0.264 C 
ATOM     15  H   UNL     1      33.896 -16.697 -24.290  0.00  0.00    +0.178 HD
ENDBRANCH   3  11
BRANCH   5  16
ATOM     16  C   UNL     1      31.882  -8.744 -22.329  0.00  0.00    +0.007 C 
ATOM     17  C   UNL     1      32.382  -8.044 -21.231  0.00  0.00    +0.001 C 
ATOM     18  C   UNL     1      31.253  -8.056 -23.366  0.00  0.00    +0.001 C 
ATOM     19  C   UNL     1      32.253  -6.656 -21.170  0.00  0.00    +0.000 C 
ATOM     20  C   UNL     1      31.124  -6.668 -23.305  0.00  0.00    +0.000 C 
ATOM     21  C   UNL     1      31.624  -5.969 -22.208  0.00  0.00    +0.000 C 
ENDBRANCH   5  16
TORSDOF 2
ENDMDL
MODEL 4
REMARK VINA RESULT:      -9.0      1.707      2.331
REMARK  Name = 16058639
REMARK  2 active torsions:
REMARK  status: ('A' for Active; 'I' for Inactive)
REMARK    1  A    between atoms: C_3  and  N_11
REMARK    2  A    between atoms: C_5  and  C_16
REMARK                            x       y       z     vdW  Elec       q    Type
REMARK                         _______ _______ _______ _____ _____    ______ ____
ROOT
ATOM      1 CL   UNL     1      37.171 -22.263 -16.946  0.00  0.00    -0.080 Cl
ATOM      2  S   UNL     1      33.054 -23.231 -17.263  0.00  0.00    -0.084 S 
ATOM      3  C   UNL     1      35.110 -23.706 -15.797  0.00  0.00    +0.088 C 
ATOM      4  C   UNL     1      35.551 -22.823 -16.824  0.00  0.00    +0.079 C 
ATOM      5  C   UNL     1      34.535 -22.484 -17.692  0.00  0.00    +0.041 C 
ATOM      6  C   UNL     1      33.771 -24.010 -15.917  0.00  0.00    +0.052 C 
ENDROOT
BRANCH   3  11
ATOM      7  S   UNL     1      35.496 -24.020 -13.134  0.00  0.00    +0.130 S 
ATOM      8  O   UNL     1      34.073 -24.253 -12.991  0.00  0.00    -0.135 OA
ATOM      9  O   UNL     1      36.135 -22.847 -12.573  0.00  0.00    -0.135 OA
ATOM     10  O   UNL     1      37.690 -27.099 -13.548  0.00  0.00    -0.272 OA
ATOM     11  N   UNL     1      35.940 -24.211 -14.779  0.00  0.00    -0.168 N 
ATOM     12  N   UNL     1      36.352 -25.406 -12.653  0.00  0.00    -0.171 N 
ATOM     13  C   UNL     1      36.809 -25.396 -15.030  0.00  0.00    +0.203 C 
ATOM     14  C   UNL     1      37.023 -26.086 -13.700  0.00  0.00    +0.264 C 
ATOM     15  H   UNL     1      36.380 -25.712 -11.718  0.00  0.00    +0.178 HD
ENDBRANCH   3  11
BRANCH   5  16
ATOM     16  C   UNL     1      34.552 -21.625 -18.851  0.00  0.00    +0.007 C 
ATOM     17  C   UNL     1      35.768 -21.227 -19.407  0.00  0.00    +0.001 C 
ATOM     18  C   UNL     1      33.353 -21.192 -19.416  0.00  0.00    +0.001 C 
ATOM     19  C   UNL     1      35.785 -20.396 -20.527  0.00  0.00    +0.000 C 
ATOM     20  C   UNL     1      33.370 -20.361 -20.537  0.00  0.00    +0.000 C 
ATOM     21  C   UNL     1      34.585 -19.963 -21.091  0.00  0.00    +0.000 C 
ENDBRANCH   5  16
TORSDOF 2
ENDMDL
MODEL 5
REMARK VINA RESULT:      -8.9      9.012     11.360
REMARK  Name = 16058639
REMARK  2 active torsions:
REMARK  status: ('A' for Active; 'I' for Inactive)
REMARK    1  A    between atoms: C_3  and  N_11
REMARK    2  A    between atoms: C_5  and  C_16
REMARK                            x       y       z     vdW  Elec       q    Type
REMARK                         _______ _______ _______ _____ _____    ______ ____
ROOT
ATOM      1 CL   UNL     1      32.897 -16.814 -20.796  0.00  0.00    -0.080 Cl
ATOM      2  S   UNL     1      35.407 -18.840 -23.549  0.00  0.00    -0.084 S 
ATOM      3  C   UNL     1      34.113 -16.638 -23.274  0.00  0.00    +0.088 C 
ATOM      4  C   UNL     1      33.877 -17.386 -22.085  0.00  0.00    +0.079 C 
ATOM      5  C   UNL     1      34.521 -18.606 -22.101  0.00  0.00    +0.041 C 
ATOM      6  C   UNL     1      34.928 -17.312 -24.156  0.00  0.00    +0.052 C 
ENDROOT
BRANCH   3  11
ATOM      7  S   UNL     1      33.726 -14.122 -22.346  0.00  0.00    +0.130 S 
ATOM      8  O   UNL     1      35.052 -14.171 -21.763  0.00  0.00    -0.135 OA
ATOM      9  O   UNL     1      32.535 -14.063 -21.522  0.00  0.00    -0.135 OA
ATOM     10  O   UNL     1      33.449 -12.600 -25.820  0.00  0.00    -0.272 OA
ATOM     11  N   UNL     1      33.577 -15.360 -23.522  0.00  0.00    -0.168 N 
ATOM     12  N   UNL     1      33.659 -12.888 -23.511  0.00  0.00    -0.171 N 
ATOM     13  C   UNL     1      33.456 -14.849 -24.917  0.00  0.00    +0.203 C 
ATOM     14  C   UNL     1      33.516 -13.338 -24.848  0.00  0.00    +0.264 C 
ATOM     15  H   UNL     1      33.716 -11.934 -23.275  0.00  0.00    +0.178 HD
ENDBRANCH   3  11
BRANCH   5  16
ATOM     16  C   UNL     1      34.548 -19.654 -21.110  0.00  0.00    +0.007 C 
ATOM     17  C   UNL     1      35.769 -20.133 -20.635  0.00  0.00    +0.001 C 
ATOM     18  C   UNL     1      33.354 -20.189 -20.628  0.00  0.00    +0.001 C 
ATOM     19  C   UNL     1      35.795 -21.148 -19.677  0.00  0.00    +0.000 C 
ATOM     20  C   UNL     1      33.380 -21.203 -19.671  0.00  0.00    +0.000 C 
ATOM     21  C   UNL     1      34.600 -21.682 -19.196  0.00  0.00    +0.000 C 
ENDBRANCH   5  16
TORSDOF 2
ENDMDL
MODEL 6
REMARK VINA RESULT:      -8.8      7.151      9.482
REMARK  Name = 16058639
REMARK  2 active torsions:
REMARK  status: ('A' for Active; 'I' for Inactive)
REMARK    1  A    between atoms: C_3  and  N_11
REMARK    2  A    between atoms: C_5  and  C_16
REMARK                            x       y       z     vdW  Elec       q    Type
REMARK                         _______ _______ _______ _____ _____    ______ ____
ROOT
ATOM      1 CL   UNL     1      32.635 -19.862 -20.575  0.00  0.00    -0.080 Cl
ATOM      2  S   UNL     1      36.817 -20.429 -20.148  0.00  0.00    -0.084 S 
ATOM      3  C   UNL     1      35.115 -19.061 -21.502  0.00  0.00    +0.088 C 
ATOM      4  C   UNL     1      34.352 -19.880 -20.621  0.00  0.00    +0.079 C 
ATOM      5  C   UNL     1      35.152 -20.675 -19.826  0.00  0.00    +0.041 C 
ATOM      6  C   UNL     1      36.470 -19.261 -21.351  0.00  0.00    +0.052 C 
ENDROOT
BRANCH   3  11
ATOM      7  S   UNL     1      34.209 -16.547 -21.943  0.00  0.00    +0.130 S 
ATOM      8  O   UNL     1      35.289 -16.050 -21.115  0.00  0.00    -0.135 OA
ATOM      9  O   UNL     1      32.823 -16.429 -21.536  0.00  0.00    -0.135 OA
ATOM     10  O   UNL     1      34.859 -16.685 -25.688  0.00  0.00    -0.272 OA
ATOM     11  N   UNL     1      34.554 -18.156 -22.422  0.00  0.00    -0.168 N 
ATOM     12  N   UNL     1      34.379 -15.948 -23.523  0.00  0.00    -0.171 N 
ATOM     13  C   UNL     1      34.817 -18.302 -23.883  0.00  0.00    +0.203 C 
ATOM     14  C   UNL     1      34.700 -16.925 -24.500  0.00  0.00    +0.264 C 
ATOM     15  H   UNL     1      34.263 -14.996 -23.744  0.00  0.00    +0.178 HD
ENDBRANCH   3  11
BRANCH   5  16
ATOM     16  C   UNL     1      34.790 -21.634 -18.811  0.00  0.00    +0.007 C 
ATOM     17  C   UNL     1      33.525 -22.223 -18.826  0.00  0.00    +0.001 C 
ATOM     18  C   UNL     1      35.703 -21.972 -17.813  0.00  0.00    +0.001 C 
ATOM     19  C   UNL     1      33.175 -23.150 -17.844  0.00  0.00    +0.000 C 
ATOM     20  C   UNL     1      35.353 -22.899 -16.831  0.00  0.00    +0.000 C 
ATOM     21  C   UNL     1      34.090 -23.487 -16.847  0.00  0.00    +0.000 C 
ENDBRANCH   5  16
TORSDOF 2
ENDMDL
MODEL 7
REMARK VINA RESULT:      -8.6     14.251     16.421
REMARK  Name = 16058639
REMARK  2 active torsions:
REMARK  status: ('A' for Active; 'I' for Inactive)
REMARK    1  A    between atoms: C_3  and  N_11
REMARK    2  A    between atoms: C_5  and  C_16
REMARK                            x       y       z     vdW  Elec       q    Type
REMARK                         _______ _______ _______ _____ _____    ______ ____
ROOT
ATOM      1 CL   UNL     1      31.204 -11.264 -21.988  0.00  0.00    -0.080 Cl
ATOM      2  S   UNL     1      34.515 -10.228 -24.427  0.00  0.00    -0.084 S 
ATOM      3  C   UNL     1      32.716  -9.153 -22.940  0.00  0.00    +0.088 C 
ATOM      4  C   UNL     1      32.479 -10.557 -22.895  0.00  0.00    +0.079 C 
ATOM      5  C   UNL     1      33.384 -11.263 -23.660  0.00  0.00    +0.041 C 
ATOM      6  C   UNL     1      33.793  -8.836 -23.738  0.00  0.00    +0.052 C 
ENDROOT
BRANCH   3  11
ATOM      7  S   UNL     1      32.468  -7.598 -20.736  0.00  0.00    +0.130 S 
ATOM      8  O   UNL     1      33.898  -7.368 -20.781  0.00  0.00    -0.135 OA
ATOM      9  O   UNL     1      31.850  -8.342 -19.657  0.00  0.00    -0.135 OA
ATOM     10  O   UNL     1      30.275  -5.023 -22.477  0.00  0.00    -0.272 OA
ATOM     11  N   UNL     1      31.942  -8.200 -22.253  0.00  0.00    -0.168 N 
ATOM     12  N   UNL     1      31.646  -6.125 -20.939  0.00  0.00    -0.171 N 
ATOM     13  C   UNL     1      31.069  -7.252 -23.003  0.00  0.00    +0.203 C 
ATOM     14  C   UNL     1      30.927  -6.006 -22.156  0.00  0.00    +0.264 C 
ATOM     15  H   UNL     1      31.667  -5.410 -20.263  0.00  0.00    +0.178 HD
ENDBRANCH   3  11
BRANCH   5  16
ATOM     16  C   UNL     1      33.500 -12.683 -23.886  0.00  0.00    +0.007 C 
ATOM     17  C   UNL     1      33.941 -13.519 -22.860  0.00  0.00    +0.001 C 
ATOM     18  C   UNL     1      33.174 -13.220 -25.131  0.00  0.00    +0.001 C 
ATOM     19  C   UNL     1      34.054 -14.893 -23.079  0.00  0.00    +0.000 C 
ATOM     20  C   UNL     1      33.288 -14.594 -25.350  0.00  0.00    +0.000 C 
ATOM     21  C   UNL     1      33.728 -15.429 -24.324  0.00  0.00    +0.000 C 
ENDBRANCH   5  16
TORSDOF 2
ENDMDL
MODEL 8
REMARK VINA RESULT:      -8.6      9.638     11.660
REMARK  Name = 16058639
REMARK  2 active torsions:
REMARK  status: ('A' for Active; 'I' for Inactive)
REMARK    1  A    between atoms: C_3  and  N_11
REMARK    2  A    between atoms: C_5  and  C_16
REMARK                            x       y       z     vdW  Elec       q    Type
REMARK                         _______ _______ _______ _____ _____    ______ ____
ROOT
ATOM      1 CL   UNL     1      32.679 -16.191 -20.230  0.00  0.00    -0.080 Cl
ATOM      2  S   UNL     1      35.400 -17.506 -23.205  0.00  0.00    -0.084 S 
ATOM      3  C   UNL     1      34.089 -15.419 -22.481  0.00  0.00    +0.088 C 
ATOM      4  C   UNL     1      33.759 -16.439 -21.542  0.00  0.00    +0.079 C 
ATOM      5  C   UNL     1      34.402 -17.628 -21.817  0.00  0.00    +0.041 C 
ATOM      6  C   UNL     1      34.972 -15.865 -23.440  0.00  0.00    +0.052 C 
ENDROOT
BRANCH   3  11
ATOM      7  S   UNL     1      33.117 -13.318 -23.888  0.00  0.00    +0.130 S 
ATOM      8  O   UNL     1      32.435 -14.259 -24.754  0.00  0.00    -0.135 OA
ATOM      9  O   UNL     1      34.202 -12.487 -24.372  0.00  0.00    -0.135 OA
ATOM     10  O   UNL     1      31.118 -11.942 -20.960  0.00  0.00    -0.272 OA
ATOM     11  N   UNL     1      33.575 -14.110 -22.438  0.00  0.00    -0.168 N 
ATOM     12  N   UNL     1      31.977 -12.341 -23.096  0.00  0.00    -0.171 N 
ATOM     13  C   UNL     1      32.840 -13.625 -21.234  0.00  0.00    +0.203 C 
ATOM     14  C   UNL     1      31.879 -12.551 -21.697  0.00  0.00    +0.264 C 
ATOM     15  H   UNL     1      31.426 -11.678 -23.572  0.00  0.00    +0.178 HD
ENDBRANCH   3  11
BRANCH   5  16
ATOM     16  C   UNL     1      34.349 -18.892 -21.125  0.00  0.00    +0.007 C 
ATOM     17  C   UNL     1      35.531 -19.550 -20.783  0.00  0.00    +0.001 C 
ATOM     18  C   UNL     1      33.117 -19.459 -20.800  0.00  0.00    +0.001 C 
ATOM     19  C   UNL     1      35.480 -20.774 -20.115  0.00  0.00    +0.000 C 
ATOM     20  C   UNL     1      33.066 -20.683 -20.132  0.00  0.00    +0.000 C 
ATOM     21  C   UNL     1      34.247 -21.339 -19.790  0.00  0.00    +0.000 C 
ENDBRANCH   5  16
TORSDOF 2
ENDMDL
MODEL 9
REMARK VINA RESULT:      -8.6      1.849      2.125
REMARK  Name = 16058639
REMARK  2 active torsions:
REMARK  status: ('A' for Active; 'I' for Inactive)
REMARK    1  A    between atoms: C_3  and  N_11
REMARK    2  A    between atoms: C_5  and  C_16
REMARK                            x       y       z     vdW  Elec       q    Type
REMARK                         _______ _______ _______ _____ _____    ______ ____
ROOT
ATOM      1 CL   UNL     1      37.135 -21.649 -17.704  0.00  0.00    -0.080 Cl
ATOM      2  S   UNL     1      33.122 -23.019 -17.647  0.00  0.00    -0.084 S 
ATOM      3  C   UNL     1      35.345 -23.299 -16.391  0.00  0.00    +0.088 C 
ATOM      4  C   UNL     1      35.598 -22.368 -17.439  0.00  0.00    +0.079 C 
ATOM      5  C   UNL     1      34.474 -22.124 -18.201  0.00  0.00    +0.041 C 
ATOM      6  C   UNL     1      34.038 -23.734 -16.390  0.00  0.00    +0.052 C 
ENDROOT
BRANCH   3  11
ATOM      7  S   UNL     1      36.123 -25.225 -14.651  0.00  0.00    +0.130 S 
ATOM      8  O   UNL     1      35.626 -26.217 -15.582  0.00  0.00    -0.135 OA
ATOM      9  O   UNL     1      35.504 -25.018 -13.357  0.00  0.00    -0.135 OA
ATOM     10  O   UNL     1      39.813 -24.342 -14.913  0.00  0.00    -0.272 OA
ATOM     11  N   UNL     1      36.315 -23.728 -15.465  0.00  0.00    -0.168 N 
ATOM     12  N   UNL     1      37.797 -25.424 -14.443  0.00  0.00    -0.171 N 
ATOM     13  C   UNL     1      37.736 -23.302 -15.607  0.00  0.00    +0.203 C 
ATOM     14  C   UNL     1      38.593 -24.375 -14.969  0.00  0.00    +0.264 C 
ATOM     15  H   UNL     1      38.184 -26.208 -13.991  0.00  0.00    +0.178 HD
ENDBRANCH   3  11
BRANCH   5  16
ATOM     16  C   UNL     1      34.296 -21.258 -19.341  0.00  0.00    +0.007 C 
ATOM     17  C   UNL     1      35.404 -20.833 -20.074  0.00  0.00    +0.001 C 
ATOM     18  C   UNL     1      33.016 -20.844 -19.709  0.00  0.00    +0.001 C 
ATOM     19  C   UNL     1      35.232 -19.995 -21.176  0.00  0.00    +0.000 C 
ATOM     20  C   UNL     1      32.844 -20.006 -20.811  0.00  0.00    +0.000 C 
ATOM     21  C   UNL     1      33.951 -19.582 -21.544  0.00  0.00    +0.000 C 
ENDBRANCH   5  16
TORSDOF 2
ENDMDL
