MODEL 1
REMARK VINA RESULT:      -8.3      0.000      0.000
REMARK  Name = 449080
REMARK  5 active torsions:
REMARK  status: ('A' for Active; 'I' for Inactive)
REMARK    1  A    between atoms: C_1  and  C_4
REMARK    2  A    between atoms: C_1  and  C_12
REMARK    3  A    between atoms: C_1  and  N_15
REMARK    4  A    between atoms: N_15  and  C_17
REMARK    5  A    between atoms: C_18  and  C_25
REMARK                            x       y       z     vdW  Elec       q    Type
REMARK                         _______ _______ _______ _____ _____    ______ ____
ROOT
ATOM      1  C   UNL     1      35.751 -24.509 -13.551  0.00  0.00    +0.171 C 
ENDROOT
BRANCH   1   4
ATOM      2 CL   UNL     1      36.421 -26.773 -15.486  0.00  0.00    -0.082 Cl
ATOM      3 CL   UNL     1      37.739 -22.852 -11.934  0.00  0.00    -0.082 Cl
ATOM      4  C   UNL     1      37.215 -24.843 -13.725  0.00  0.00    +0.025 C 
ATOM      5  C   UNL     1      37.585 -25.863 -14.591  0.00  0.00    +0.057 C 
ATOM      6  C   UNL     1      38.169 -24.125 -13.018  0.00  0.00    +0.057 C 
ATOM      7  C   UNL     1      38.935 -26.172 -14.752  0.00  0.00    +0.011 C 
ATOM      8  C   UNL     1      39.519 -24.434 -13.178  0.00  0.00    +0.011 C 
ATOM      9  C   UNL     1      39.903 -25.457 -14.045  0.00  0.00    +0.002 C 
ENDBRANCH   1   4
BRANCH   1  12
ATOM     10  O   UNL     1      35.756 -25.395 -11.293  0.00  0.00    -0.273 OA
ATOM     11  N   UNL     1      34.424 -23.582 -11.753  0.00  0.00    -0.327 N 
ATOM     12  C   UNL     1      35.334 -24.561 -12.090  0.00  0.00    +0.242 C 
ATOM     13  H   UNL     1      34.084 -23.523 -10.831  0.00  0.00    +0.145 HD
ATOM     14  H   UNL     1      34.114 -22.942 -12.434  0.00  0.00    +0.145 HD
ENDBRANCH   1  12
BRANCH   1  15
ATOM     15  N   UNL     1      35.467 -23.207 -14.069  0.00  0.00    -0.324 N 
ATOM     16  H   UNL     1      35.566 -22.431 -13.472  0.00  0.00    +0.147 HD
BRANCH  15  17
ATOM     17  C   UNL     1      35.052 -22.987 -15.401  0.00  0.00    +0.048 C 
ATOM     18  C   UNL     1      33.739 -23.244 -15.794  0.00  0.00    +0.048 C 
ATOM     19  C   UNL     1      35.976 -22.508 -16.329  0.00  0.00    +0.010 C 
ATOM     20  C   UNL     1      35.587 -22.285 -17.650  0.00  0.00    -0.021 C 
ATOM     21  C   UNL     1      33.349 -23.021 -17.115  0.00  0.00    +0.004 C 
ATOM     22  C   UNL     1      34.274 -22.542 -18.043  0.00  0.00    -0.004 C 
ATOM     23  C   UNL     1      36.576 -21.772 -18.643  0.00  0.00    +0.031 C 
BRANCH  18  25
ATOM     24  O   UNL     1      32.805 -24.911 -14.411  0.00  0.00    -0.291 OA
ATOM     25  C   UNL     1      32.749 -23.746 -14.849  0.00  0.00    +0.175 C 
ATOM     26  C   UNL     1      31.616 -22.846 -14.377  0.00  0.00    +0.077 C 
ENDBRANCH  18  25
ENDBRANCH  15  17
ENDBRANCH   1  15
TORSDOF 5
ENDMDL
MODEL 2
REMARK VINA RESULT:      -8.3      0.002      1.897
REMARK  Name = 449080
REMARK  5 active torsions:
REMARK  status: ('A' for Active; 'I' for Inactive)
REMARK    1  A    between atoms: C_1  and  C_4
REMARK    2  A    between atoms: C_1  and  C_12
REMARK    3  A    between atoms: C_1  and  N_15
REMARK    4  A    between atoms: N_15  and  C_17
REMARK    5  A    between atoms: C_18  and  C_25
REMARK                            x       y       z     vdW  Elec       q    Type
REMARK                         _______ _______ _______ _____ _____    ______ ____
ROOT
ATOM      1  C   UNL     1      35.751 -24.510 -13.552  0.00  0.00    +0.171 C 
ENDROOT
BRANCH   1   4
ATOM      2 CL   UNL     1      37.739 -22.849 -11.937  0.00  0.00    -0.082 Cl
ATOM      3 CL   UNL     1      36.421 -26.777 -15.481  0.00  0.00    -0.082 Cl
ATOM      4  C   UNL     1      37.215 -24.844 -13.726  0.00  0.00    +0.025 C 
ATOM      5  C   UNL     1      38.169 -24.125 -13.019  0.00  0.00    +0.057 C 
ATOM      6  C   UNL     1      37.585 -25.865 -14.589  0.00  0.00    +0.057 C 
ATOM      7  C   UNL     1      39.520 -24.432 -13.180  0.00  0.00    +0.011 C 
ATOM      8  C   UNL     1      38.936 -26.173 -14.751  0.00  0.00    +0.011 C 
ATOM      9  C   UNL     1      39.904 -25.456 -14.046  0.00  0.00    +0.002 C 
ENDBRANCH   1   4
BRANCH   1  12
ATOM     10  O   UNL     1      35.758 -25.395 -11.294  0.00  0.00    -0.273 OA
ATOM     11  N   UNL     1      34.421 -23.585 -11.755  0.00  0.00    -0.327 N 
ATOM     12  C   UNL     1      35.333 -24.562 -12.092  0.00  0.00    +0.242 C 
ATOM     13  H   UNL     1      34.081 -23.526 -10.834  0.00  0.00    +0.145 HD
ATOM     14  H   UNL     1      34.110 -22.947 -12.437  0.00  0.00    +0.145 HD
ENDBRANCH   1  12
BRANCH   1  15
ATOM     15  N   UNL     1      35.468 -23.208 -14.070  0.00  0.00    -0.324 N 
ATOM     16  H   UNL     1      35.567 -22.432 -13.473  0.00  0.00    +0.147 HD
BRANCH  15  17
ATOM     17  C   UNL     1      35.053 -22.987 -15.402  0.00  0.00    +0.048 C 
ATOM     18  C   UNL     1      33.739 -23.243 -15.794  0.00  0.00    +0.048 C 
ATOM     19  C   UNL     1      35.977 -22.509 -16.330  0.00  0.00    +0.010 C 
ATOM     20  C   UNL     1      35.588 -22.285 -17.651  0.00  0.00    -0.021 C 
ATOM     21  C   UNL     1      33.349 -23.020 -17.115  0.00  0.00    +0.004 C 
ATOM     22  C   UNL     1      34.274 -22.541 -18.043  0.00  0.00    -0.004 C 
ATOM     23  C   UNL     1      36.576 -21.773 -18.644  0.00  0.00    +0.031 C 
BRANCH  18  25
ATOM     24  O   UNL     1      32.805 -24.909 -14.410  0.00  0.00    -0.291 OA
ATOM     25  C   UNL     1      32.749 -23.745 -14.849  0.00  0.00    +0.175 C 
ATOM     26  C   UNL     1      31.616 -22.844 -14.377  0.00  0.00    +0.077 C 
ENDBRANCH  18  25
ENDBRANCH  15  17
ENDBRANCH   1  15
TORSDOF 5
ENDMDL
MODEL 3
REMARK VINA RESULT:      -8.2      1.292      3.244
REMARK  Name = 449080
REMARK  5 active torsions:
REMARK  status: ('A' for Active; 'I' for Inactive)
REMARK    1  A    between atoms: C_1  and  C_4
REMARK    2  A    between atoms: C_1  and  C_12
REMARK    3  A    between atoms: C_1  and  N_15
REMARK    4  A    between atoms: N_15  and  C_17
REMARK    5  A    between atoms: C_18  and  C_25
REMARK                            x       y       z     vdW  Elec       q    Type
REMARK                         _______ _______ _______ _____ _____    ______ ____
ROOT
ATOM      1  C   UNL     1      35.801 -24.626 -13.514  0.00  0.00    +0.171 C 
ENDROOT
BRANCH   1   4
ATOM      2 CL   UNL     1      37.797 -22.961 -11.913  0.00  0.00    -0.082 Cl
ATOM      3 CL   UNL     1      36.459 -26.933 -15.401  0.00  0.00    -0.082 Cl
ATOM      4  C   UNL     1      37.262 -24.980 -13.672  0.00  0.00    +0.025 C 
ATOM      5  C   UNL     1      38.220 -24.259 -12.971  0.00  0.00    +0.057 C 
ATOM      6  C   UNL     1      37.627 -26.019 -14.516  0.00  0.00    +0.057 C 
ATOM      7  C   UNL     1      39.568 -24.584 -13.117  0.00  0.00    +0.011 C 
ATOM      8  C   UNL     1      38.974 -26.345 -14.663  0.00  0.00    +0.011 C 
ATOM      9  C   UNL     1      39.946 -25.628 -13.963  0.00  0.00    +0.002 C 
ENDBRANCH   1   4
BRANCH   1  12
ATOM     10  O   UNL     1      35.734 -25.403 -11.217  0.00  0.00    -0.273 OA
ATOM     11  N   UNL     1      34.592 -23.485 -11.757  0.00  0.00    -0.327 N 
ATOM     12  C   UNL     1      35.393 -24.567 -12.052  0.00  0.00    +0.242 C 
ATOM     13  H   UNL     1      34.268 -23.348 -10.838  0.00  0.00    +0.145 HD
ATOM     14  H   UNL     1      34.343 -22.849 -12.467  0.00  0.00    +0.145 HD
ENDBRANCH   1  12
BRANCH   1  15
ATOM     15  N   UNL     1      35.520 -23.365 -14.126  0.00  0.00    -0.324 N 
ATOM     16  H   UNL     1      35.935 -22.556 -13.749  0.00  0.00    +0.147 HD
BRANCH  15  17
ATOM     17  C   UNL     1      34.674 -23.231 -15.250  0.00  0.00    +0.048 C 
ATOM     18  C   UNL     1      35.173 -22.779 -16.472  0.00  0.00    +0.048 C 
ATOM     19  C   UNL     1      33.324 -23.555 -15.125  0.00  0.00    +0.010 C 
ATOM     20  C   UNL     1      32.471 -23.428 -16.222  0.00  0.00    -0.021 C 
ATOM     21  C   UNL     1      34.321 -22.652 -17.569  0.00  0.00    +0.004 C 
ATOM     22  C   UNL     1      32.970 -22.976 -17.444  0.00  0.00    -0.004 C 
ATOM     23  C   UNL     1      31.027 -23.775 -16.089  0.00  0.00    +0.031 C 
BRANCH  18  25
ATOM     24  O   UNL     1      37.480 -23.113 -16.111  0.00  0.00    -0.291 OA
ATOM     25  C   UNL     1      36.579 -22.431 -16.635  0.00  0.00    +0.175 C 
ATOM     26  C   UNL     1      36.975 -21.214 -17.459  0.00  0.00    +0.077 C 
ENDBRANCH  18  25
ENDBRANCH  15  17
ENDBRANCH   1  15
TORSDOF 5
ENDMDL
MODEL 4
REMARK VINA RESULT:      -7.9     15.496     18.133
REMARK  Name = 449080
REMARK  5 active torsions:
REMARK  status: ('A' for Active; 'I' for Inactive)
REMARK    1  A    between atoms: C_1  and  C_4
REMARK    2  A    between atoms: C_1  and  C_12
REMARK    3  A    between atoms: C_1  and  N_15
REMARK    4  A    between atoms: N_15  and  C_17
REMARK    5  A    between atoms: C_18  and  C_25
REMARK                            x       y       z     vdW  Elec       q    Type
REMARK                         _______ _______ _______ _____ _____    ______ ____
ROOT
ATOM      1  C   UNL     1      32.801  -7.905 -22.128  0.00  0.00    +0.171 C 
ENDROOT
BRANCH   1   4
ATOM      2 CL   UNL     1      30.115  -6.563 -22.678  0.00  0.00    -0.082 Cl
ATOM      3 CL   UNL     1      35.373  -7.548 -23.731  0.00  0.00    -0.082 Cl
ATOM      4  C   UNL     1      32.739  -6.970 -23.314  0.00  0.00    +0.025 C 
ATOM      5  C   UNL     1      31.546  -6.328 -23.617  0.00  0.00    +0.057 C 
ATOM      6  C   UNL     1      33.876  -6.765 -24.084  0.00  0.00    +0.057 C 
ATOM      7  C   UNL     1      31.487  -5.466 -24.711  0.00  0.00    +0.011 C 
ATOM      8  C   UNL     1      33.818  -5.903 -25.178  0.00  0.00    +0.011 C 
ATOM      9  C   UNL     1      32.624  -5.253 -25.492  0.00  0.00    +0.002 C 
ENDBRANCH   1   4
BRANCH   1  12
ATOM     10  O   UNL     1      32.403  -5.981 -20.706  0.00  0.00    -0.273 OA
ATOM     11  N   UNL     1      32.074  -8.077 -19.828  0.00  0.00    -0.327 N 
ATOM     12  C   UNL     1      32.410  -7.203 -20.839  0.00  0.00    +0.242 C 
ATOM     13  H   UNL     1      31.804  -7.731 -18.947  0.00  0.00    +0.145 HD
ATOM     14  H   UNL     1      32.103  -9.049 -19.987  0.00  0.00    +0.145 HD
ENDBRANCH   1  12
BRANCH   1  15
ATOM     15  N   UNL     1      31.937  -9.026 -22.327  0.00  0.00    -0.324 N 
ATOM     16  H   UNL     1      30.984  -8.933 -22.100  0.00  0.00    +0.147 HD
BRANCH  15  17
ATOM     17  C   UNL     1      32.393 -10.263 -22.837  0.00  0.00    +0.048 C 
ATOM     18  C   UNL     1      32.060 -11.463 -22.208  0.00  0.00    +0.048 C 
ATOM     19  C   UNL     1      33.185 -10.273 -23.984  0.00  0.00    +0.010 C 
ATOM     20  C   UNL     1      33.646 -11.484 -24.504  0.00  0.00    -0.021 C 
ATOM     21  C   UNL     1      32.521 -12.673 -22.726  0.00  0.00    +0.004 C 
ATOM     22  C   UNL     1      33.313 -12.683 -23.874  0.00  0.00    -0.004 C 
ATOM     23  C   UNL     1      34.493 -11.495 -25.731  0.00  0.00    +0.031 C 
BRANCH  18  25
ATOM     24  O   UNL     1      30.018 -11.225 -21.052  0.00  0.00    -0.291 OA
ATOM     25  C   UNL     1      31.235 -11.487 -21.006  0.00  0.00    +0.175 C 
ATOM     26  C   UNL     1      31.854 -11.835 -19.660  0.00  0.00    +0.077 C 
ENDBRANCH  18  25
ENDBRANCH  15  17
ENDBRANCH   1  15
TORSDOF 5
ENDMDL
MODEL 5
REMARK VINA RESULT:      -7.9     15.492     18.127
REMARK  Name = 449080
REMARK  5 active torsions:
REMARK  status: ('A' for Active; 'I' for Inactive)
REMARK    1  A    between atoms: C_1  and  C_4
REMARK    2  A    between atoms: C_1  and  C_12
REMARK    3  A    between atoms: C_1  and  N_15
REMARK    4  A    between atoms: N_15  and  C_17
REMARK    5  A    between atoms: C_18  and  C_25
REMARK                            x       y       z     vdW  Elec       q    Type
REMARK                         _______ _______ _______ _____ _____    ______ ____
ROOT
ATOM      1  C   UNL     1      32.783  -7.912 -22.122  0.00  0.00    +0.171 C 
ENDROOT
BRANCH   1   4
ATOM      2 CL   UNL     1      35.351  -7.564 -23.734  0.00  0.00    -0.082 Cl
ATOM      3 CL   UNL     1      30.103  -6.552 -22.656  0.00  0.00    -0.082 Cl
ATOM      4  C   UNL     1      32.721  -6.971 -23.303  0.00  0.00    +0.025 C 
ATOM      5  C   UNL     1      33.857  -6.770 -24.077  0.00  0.00    +0.057 C 
ATOM      6  C   UNL     1      31.531  -6.322 -23.599  0.00  0.00    +0.057 C 
ATOM      7  C   UNL     1      33.801  -5.901 -25.167  0.00  0.00    +0.011 C 
ATOM      8  C   UNL     1      31.474  -5.453 -24.689  0.00  0.00    +0.011 C 
ATOM      9  C   UNL     1      32.609  -5.243 -25.473  0.00  0.00    +0.002 C 
ENDBRANCH   1   4
BRANCH   1  12
ATOM     10  O   UNL     1      32.377  -5.996 -20.690  0.00  0.00    -0.273 OA
ATOM     11  N   UNL     1      32.042  -8.098 -19.826  0.00  0.00    -0.327 N 
ATOM     12  C   UNL     1      32.385  -7.217 -20.830  0.00  0.00    +0.242 C 
ATOM     13  H   UNL     1      31.768  -7.756 -18.945  0.00  0.00    +0.145 HD
ATOM     14  H   UNL     1      32.072  -9.068 -19.992  0.00  0.00    +0.145 HD
ENDBRANCH   1  12
BRANCH   1  15
ATOM     15  N   UNL     1      31.924  -9.035 -22.329  0.00  0.00    -0.324 N 
ATOM     16  H   UNL     1      30.969  -8.946 -22.107  0.00  0.00    +0.147 HD
BRANCH  15  17
ATOM     17  C   UNL     1      32.386 -10.269 -22.840  0.00  0.00    +0.048 C 
ATOM     18  C   UNL     1      32.060 -11.471 -22.212  0.00  0.00    +0.048 C 
ATOM     19  C   UNL     1      33.179 -10.274 -23.986  0.00  0.00    +0.010 C 
ATOM     20  C   UNL     1      33.647 -11.481 -24.507  0.00  0.00    -0.021 C 
ATOM     21  C   UNL     1      32.528 -12.679 -22.731  0.00  0.00    +0.004 C 
ATOM     22  C   UNL     1      33.321 -12.684 -23.878  0.00  0.00    -0.004 C 
ATOM     23  C   UNL     1      34.494 -11.487 -25.734  0.00  0.00    +0.031 C 
BRANCH  18  25
ATOM     24  O   UNL     1      30.020 -11.227 -21.053  0.00  0.00    -0.291 OA
ATOM     25  C   UNL     1      31.235 -11.501 -21.010  0.00  0.00    +0.175 C 
ATOM     26  C   UNL     1      31.849 -11.871 -19.668  0.00  0.00    +0.077 C 
ENDBRANCH  18  25
ENDBRANCH  15  17
ENDBRANCH   1  15
TORSDOF 5
ENDMDL
MODEL 6
REMARK VINA RESULT:      -7.9      2.273      3.618
REMARK  Name = 449080
REMARK  5 active torsions:
REMARK  status: ('A' for Active; 'I' for Inactive)
REMARK    1  A    between atoms: C_1  and  C_4
REMARK    2  A    between atoms: C_1  and  C_12
REMARK    3  A    between atoms: C_1  and  N_15
REMARK    4  A    between atoms: N_15  and  C_17
REMARK    5  A    between atoms: C_18  and  C_25
REMARK                            x       y       z     vdW  Elec       q    Type
REMARK                         _______ _______ _______ _____ _____    ______ ____
ROOT
ATOM      1  C   UNL     1      36.179 -23.293 -14.980  0.00  0.00    +0.171 C 
ENDROOT
BRANCH   1   4
ATOM      2 CL   UNL     1      36.015 -26.182 -15.952  0.00  0.00    -0.082 Cl
ATOM      3 CL   UNL     1      37.295 -22.336 -12.306  0.00  0.00    -0.082 Cl
ATOM      4  C   UNL     1      36.703 -24.356 -14.042  0.00  0.00    +0.025 C 
ATOM      5  C   UNL     1      36.656 -25.690 -14.427  0.00  0.00    +0.057 C 
ATOM      6  C   UNL     1      37.224 -23.986 -12.811  0.00  0.00    +0.057 C 
ATOM      7  C   UNL     1      37.139 -26.672 -13.561  0.00  0.00    +0.011 C 
ATOM      8  C   UNL     1      37.706 -24.967 -11.945  0.00  0.00    +0.011 C 
ATOM      9  C   UNL     1      37.664 -26.310 -12.321  0.00  0.00    +0.002 C 
ENDBRANCH   1   4
BRANCH   1  12
ATOM     10  O   UNL     1      38.420 -23.156 -15.898  0.00  0.00    -0.273 OA
ATOM     11  N   UNL     1      36.920 -21.497 -16.422  0.00  0.00    -0.327 N 
ATOM     12  C   UNL     1      37.295 -22.670 -15.802  0.00  0.00    +0.242 C 
ATOM     13  H   UNL     1      37.565 -21.008 -16.981  0.00  0.00    +0.145 HD
ATOM     14  H   UNL     1      36.006 -21.150 -16.305  0.00  0.00    +0.145 HD
ENDBRANCH   1  12
BRANCH   1  15
ATOM     15  N   UNL     1      35.200 -23.842 -15.865  0.00  0.00    -0.324 N 
ATOM     16  H   UNL     1      35.497 -24.460 -16.571  0.00  0.00    +0.147 HD
BRANCH  15  17
ATOM     17  C   UNL     1      33.824 -23.535 -15.770  0.00  0.00    +0.048 C 
ATOM     18  C   UNL     1      33.082 -23.211 -16.906  0.00  0.00    +0.048 C 
ATOM     19  C   UNL     1      33.209 -23.560 -14.519  0.00  0.00    +0.010 C 
ATOM     20  C   UNL     1      31.851 -23.260 -14.403  0.00  0.00    -0.021 C 
ATOM     21  C   UNL     1      31.725 -22.910 -16.791  0.00  0.00    +0.004 C 
ATOM     22  C   UNL     1      31.109 -22.935 -15.539  0.00  0.00    -0.004 C 
ATOM     23  C   UNL     1      31.192 -23.287 -13.065  0.00  0.00    +0.031 C 
BRANCH  18  25
ATOM     24  O   UNL     1      33.825 -24.209 -18.910  0.00  0.00    -0.291 OA
ATOM     25  C   UNL     1      33.696 -23.175 -18.228  0.00  0.00    +0.175 C 
ATOM     26  C   UNL     1      34.194 -21.857 -18.804  0.00  0.00    +0.077 C 
ENDBRANCH  18  25
ENDBRANCH  15  17
ENDBRANCH   1  15
TORSDOF 5
ENDMDL
MODEL 7
REMARK VINA RESULT:      -7.9      1.453      2.753
REMARK  Name = 449080
REMARK  5 active torsions:
REMARK  status: ('A' for Active; 'I' for Inactive)
REMARK    1  A    between atoms: C_1  and  C_4
REMARK    2  A    between atoms: C_1  and  C_12
REMARK    3  A    between atoms: C_1  and  N_15
REMARK    4  A    between atoms: N_15  and  C_17
REMARK    5  A    between atoms: C_18  and  C_25
REMARK                            x       y       z     vdW  Elec       q    Type
REMARK                         _______ _______ _______ _____ _____    ______ ____
ROOT
ATOM      1  C   UNL     1      35.619 -24.497 -13.727  0.00  0.00    +0.171 C 
ENDROOT
BRANCH   1   4
ATOM      2 CL   UNL     1      36.419 -26.867 -15.477  0.00  0.00    -0.082 Cl
ATOM      3 CL   UNL     1      37.487 -22.771 -12.040  0.00  0.00    -0.082 Cl
ATOM      4  C   UNL     1      37.088 -24.851 -13.761  0.00  0.00    +0.025 C 
ATOM      5  C   UNL     1      37.516 -25.920 -14.539  0.00  0.00    +0.057 C 
ATOM      6  C   UNL     1      37.990 -24.104 -13.016  0.00  0.00    +0.057 C 
ATOM      7  C   UNL     1      38.871 -26.247 -14.570  0.00  0.00    +0.011 C 
ATOM      8  C   UNL     1      39.345 -24.432 -13.047  0.00  0.00    +0.011 C 
ATOM      9  C   UNL     1      39.786 -25.503 -13.824  0.00  0.00    +0.002 C 
ENDBRANCH   1   4
BRANCH   1  12
ATOM     10  O   UNL     1      34.299 -23.530 -11.936  0.00  0.00    -0.273 OA
ATOM     11  N   UNL     1      35.636 -25.335 -11.458  0.00  0.00    -0.327 N 
ATOM     12  C   UNL     1      35.103 -24.385 -12.302  0.00  0.00    +0.242 C 
ATOM     13  H   UNL     1      35.371 -25.355 -10.510  0.00  0.00    +0.145 HD
ATOM     14  H   UNL     1      36.282 -25.994 -11.803  0.00  0.00    +0.145 HD
ENDBRANCH   1  12
BRANCH   1  15
ATOM     15  N   UNL     1      35.384 -23.262 -14.405  0.00  0.00    -0.324 N 
ATOM     16  H   UNL     1      35.876 -22.462 -14.111  0.00  0.00    +0.147 HD
BRANCH  15  17
ATOM     17  C   UNL     1      34.477 -23.140 -15.482  0.00  0.00    +0.048 C 
ATOM     18  C   UNL     1      34.913 -22.727 -16.741  0.00  0.00    +0.048 C 
ATOM     19  C   UNL     1      33.132 -23.436 -15.272  0.00  0.00    +0.010 C 
ATOM     20  C   UNL     1      32.220 -23.321 -16.322  0.00  0.00    -0.021 C 
ATOM     21  C   UNL     1      34.002 -22.611 -17.792  0.00  0.00    +0.004 C 
ATOM     22  C   UNL     1      32.655 -22.909 -17.581  0.00  0.00    -0.004 C 
ATOM     23  C   UNL     1      30.780 -23.639 -16.098  0.00  0.00    +0.031 C 
BRANCH  18  25
ATOM     24  O   UNL     1      37.217 -22.825 -16.244  0.00  0.00    -0.291 OA
ATOM     25  C   UNL     1      36.313 -22.408 -16.993  0.00  0.00    +0.175 C 
ATOM     26  C   UNL     1      36.699 -21.550 -18.190  0.00  0.00    +0.077 C 
ENDBRANCH  18  25
ENDBRANCH  15  17
ENDBRANCH   1  15
TORSDOF 5
ENDMDL
MODEL 8
REMARK VINA RESULT:      -7.6     14.570     17.450
REMARK  Name = 449080
REMARK  5 active torsions:
REMARK  status: ('A' for Active; 'I' for Inactive)
REMARK    1  A    between atoms: C_1  and  C_4
REMARK    2  A    between atoms: C_1  and  C_12
REMARK    3  A    between atoms: C_1  and  N_15
REMARK    4  A    between atoms: N_15  and  C_17
REMARK    5  A    between atoms: C_18  and  C_25
REMARK                            x       y       z     vdW  Elec       q    Type
REMARK                         _______ _______ _______ _____ _____    ______ ____
ROOT
ATOM      1  C   UNL     1      32.783  -9.303 -22.497  0.00  0.00    +0.171 C 
ENDROOT
BRANCH   1   4
ATOM      2 CL   UNL     1      35.213  -7.631 -23.283  0.00  0.00    -0.082 Cl
ATOM      3 CL   UNL     1      29.882  -8.777 -23.288  0.00  0.00    -0.082 Cl
ATOM      4  C   UNL     1      32.523  -8.093 -23.365  0.00  0.00    +0.025 C 
ATOM      5  C   UNL     1      33.588  -7.292 -23.757  0.00  0.00    +0.057 C 
ATOM      6  C   UNL     1      31.226  -7.799 -23.759  0.00  0.00    +0.057 C 
ATOM      7  C   UNL     1      33.349  -6.174 -24.557  0.00  0.00    +0.011 C 
ATOM      8  C   UNL     1      30.986  -6.682 -24.559  0.00  0.00    +0.011 C 
ATOM      9  C   UNL     1      32.048  -5.869 -24.958  0.00  0.00    +0.002 C 
ENDBRANCH   1   4
BRANCH   1  12
ATOM     10  O   UNL     1      31.381  -9.752 -20.569  0.00  0.00    -0.273 OA
ATOM     11  N   UNL     1      32.943  -8.075 -20.419  0.00  0.00    -0.327 N 
ATOM     12  C   UNL     1      32.284  -9.092 -21.077  0.00  0.00    +0.242 C 
ATOM     13  H   UNL     1      32.701  -7.851 -19.492  0.00  0.00    +0.145 HD
ATOM     14  H   UNL     1      33.656  -7.573 -20.877  0.00  0.00    +0.145 HD
ENDBRANCH   1  12
BRANCH   1  15
ATOM     15  N   UNL     1      32.147 -10.460 -23.046  0.00  0.00    -0.324 N 
ATOM     16  H   UNL     1      31.322 -10.341 -23.568  0.00  0.00    +0.147 HD
BRANCH  15  17
ATOM     17  C   UNL     1      32.654 -11.767 -22.871  0.00  0.00    +0.048 C 
ATOM     18  C   UNL     1      33.527 -12.327 -23.803  0.00  0.00    +0.048 C 
ATOM     19  C   UNL     1      32.269 -12.499 -21.748  0.00  0.00    +0.010 C 
ATOM     20  C   UNL     1      32.757 -13.792 -21.557  0.00  0.00    -0.021 C 
ATOM     21  C   UNL     1      34.015 -13.620 -23.613  0.00  0.00    +0.004 C 
ATOM     22  C   UNL     1      33.630 -14.352 -22.490  0.00  0.00    -0.004 C 
ATOM     23  C   UNL     1      32.346 -14.575 -20.356  0.00  0.00    +0.031 C 
BRANCH  18  25
ATOM     24  O   UNL     1      34.601 -10.532 -24.894  0.00  0.00    -0.291 OA
ATOM     25  C   UNL     1      33.948 -11.589 -24.988  0.00  0.00    +0.175 C 
ATOM     26  C   UNL     1      33.593 -12.103 -26.376  0.00  0.00    +0.077 C 
ENDBRANCH  18  25
ENDBRANCH  15  17
ENDBRANCH   1  15
TORSDOF 5
ENDMDL
MODEL 9
REMARK VINA RESULT:      -7.6     14.573     17.413
REMARK  Name = 449080
REMARK  5 active torsions:
REMARK  status: ('A' for Active; 'I' for Inactive)
REMARK    1  A    between atoms: C_1  and  C_4
REMARK    2  A    between atoms: C_1  and  C_12
REMARK    3  A    between atoms: C_1  and  N_15
REMARK    4  A    between atoms: N_15  and  C_17
REMARK    5  A    between atoms: C_18  and  C_25
REMARK                            x       y       z     vdW  Elec       q    Type
REMARK                         _______ _______ _______ _____ _____    ______ ____
ROOT
ATOM      1  C   UNL     1      32.786  -9.299 -22.498  0.00  0.00    +0.171 C 
ENDROOT
BRANCH   1   4
ATOM      2 CL   UNL     1      29.884  -8.776 -23.286  0.00  0.00    -0.082 Cl
ATOM      3 CL   UNL     1      35.213  -7.625 -23.286  0.00  0.00    -0.082 Cl
ATOM      4  C   UNL     1      32.525  -8.089 -23.366  0.00  0.00    +0.025 C 
ATOM      5  C   UNL     1      31.226  -7.797 -23.758  0.00  0.00    +0.057 C 
ATOM      6  C   UNL     1      33.587  -7.287 -23.758  0.00  0.00    +0.057 C 
ATOM      7  C   UNL     1      30.984  -6.681 -24.560  0.00  0.00    +0.011 C 
ATOM      8  C   UNL     1      33.347  -6.171 -24.560  0.00  0.00    +0.011 C 
ATOM      9  C   UNL     1      32.045  -5.868 -24.961  0.00  0.00    +0.002 C 
ENDBRANCH   1   4
BRANCH   1  12
ATOM     10  O   UNL     1      31.391  -9.747 -20.565  0.00  0.00    -0.273 OA
ATOM     11  N   UNL     1      32.953  -8.069 -20.421  0.00  0.00    -0.327 N 
ATOM     12  C   UNL     1      32.292  -9.086 -21.077  0.00  0.00    +0.242 C 
ATOM     13  H   UNL     1      32.713  -7.844 -19.494  0.00  0.00    +0.145 HD
ATOM     14  H   UNL     1      33.664  -7.567 -20.881  0.00  0.00    +0.145 HD
ENDBRANCH   1  12
BRANCH   1  15
ATOM     15  N   UNL     1      32.149 -10.455 -23.044  0.00  0.00    -0.324 N 
ATOM     16  H   UNL     1      31.323 -10.336 -23.565  0.00  0.00    +0.147 HD
BRANCH  15  17
ATOM     17  C   UNL     1      32.655 -11.763 -22.868  0.00  0.00    +0.048 C 
ATOM     18  C   UNL     1      33.529 -12.324 -23.800  0.00  0.00    +0.048 C 
ATOM     19  C   UNL     1      32.269 -12.495 -21.746  0.00  0.00    +0.010 C 
ATOM     20  C   UNL     1      32.756 -13.788 -21.555  0.00  0.00    -0.021 C 
ATOM     21  C   UNL     1      34.016 -13.617 -23.610  0.00  0.00    +0.004 C 
ATOM     22  C   UNL     1      33.630 -14.349 -22.487  0.00  0.00    -0.004 C 
ATOM     23  C   UNL     1      32.343 -14.571 -20.354  0.00  0.00    +0.031 C 
BRANCH  18  25
ATOM     24  O   UNL     1      34.606 -10.531 -24.890  0.00  0.00    -0.291 OA
ATOM     25  C   UNL     1      33.951 -11.586 -24.984  0.00  0.00    +0.175 C 
ATOM     26  C   UNL     1      33.594 -12.098 -26.373  0.00  0.00    +0.077 C 
ENDBRANCH  18  25
ENDBRANCH  15  17
ENDBRANCH   1  15
TORSDOF 5
ENDMDL
