MODEL 1
REMARK VINA RESULT:      -8.7      0.000      0.000
REMARK  Name = 23647311
REMARK  4 active torsions:
REMARK  status: ('A' for Active; 'I' for Inactive)
REMARK    1  A    between atoms: N_3  and  C_22
REMARK    2  A    between atoms: C_5  and  N_18
REMARK    3  A    between atoms: C_22  and  C_23
REMARK    4  A    between atoms: C_24  and  C_30
REMARK                            x       y       z     vdW  Elec       q    Type
REMARK                         _______ _______ _______ _____ _____    ______ ____
ROOT
ATOM      1  O   UNL     1      37.023 -22.405 -15.795  0.00  0.00    -0.274 OA
ATOM      2  N   UNL     1      32.457 -23.588 -15.466  0.00  0.00    -0.273 N 
ATOM      3  N   UNL     1      34.770 -23.005 -15.580  0.00  0.00    -0.217 N 
ATOM      4  N   UNL     1      33.300 -22.765 -17.431  0.00  0.00    -0.376 NA
ATOM      5  C   UNL     1      30.160 -22.889 -14.988  0.00  0.00    -0.045 C 
ATOM      6  C   UNL     1      29.744 -24.364 -14.921  0.00  0.00    -0.018 C 
ATOM      7  C   UNL     1      31.638 -22.721 -14.617  0.00  0.00    +0.073 C 
ATOM      8  C   UNL     1      30.666 -25.221 -15.789  0.00  0.00    +0.019 C 
ATOM      9  C   UNL     1      32.132 -25.011 -15.417  0.00  0.00    +0.094 C 
ATOM     10  C   UNL     1      33.498 -23.113 -16.186  0.00  0.00    +0.247 C 
ATOM     11  C   UNL     1      35.894 -22.522 -16.266  0.00  0.00    +0.243 C 
ATOM     12  C   UNL     1      34.367 -22.271 -18.190  0.00  0.00    +0.124 C 
ATOM     13  C   UNL     1      35.655 -22.133 -17.669  0.00  0.00    +0.151 C 
ATOM     14  C   UNL     1      36.697 -21.635 -18.457  0.00  0.00    -0.010 C 
ATOM     15  C   UNL     1      34.135 -21.904 -19.520  0.00  0.00    +0.028 C 
ATOM     16  C   UNL     1      36.452 -21.274 -19.781  0.00  0.00    -0.004 C 
ATOM     17  C   UNL     1      35.171 -21.407 -20.312  0.00  0.00    +0.002 C 
ENDROOT
BRANCH   5  18
ATOM     18  N   UNL     1      29.329 -22.079 -14.098  0.00  0.00    +0.383 N 
ATOM     19  H   UNL     1      28.431 -21.893 -14.546  0.00  0.00    -0.089 HD
ATOM     20  H   UNL     1      29.800 -21.196 -13.902  0.00  0.00    -0.089 HD
ATOM     21  H   UNL     1      29.175 -22.583 -13.225  0.00  0.00    -0.089 HD
ENDBRANCH   5  18
BRANCH   3  22
ATOM     22  C   UNL     1      34.945 -23.405 -14.184  0.00  0.00    +0.129 C 
BRANCH  22  23
ATOM     23  C   UNL     1      35.895 -24.559 -14.047  0.00  0.00    +0.008 C 
ATOM     24  C   UNL     1      36.873 -24.585 -13.052  0.00  0.00    +0.066 C 
ATOM     25  C   UNL     1      35.784 -25.623 -14.942  0.00  0.00    -0.002 C 
ATOM     26  C   UNL     1      37.740 -25.674 -12.953  0.00  0.00    +0.010 C 
ATOM     27  C   UNL     1      36.650 -26.712 -14.843  0.00  0.00    -0.000 C 
ATOM     28  C   UNL     1      37.628 -26.737 -13.849  0.00  0.00    +0.001 C 
BRANCH  24  30
ATOM     29  N   UNL     1      37.117 -22.631 -11.366  0.00  0.00    -0.191 NA
ATOM     30  C   UNL     1      37.007 -23.506 -12.122  0.00  0.00    +0.100 C 
ENDBRANCH  24  30
ENDBRANCH  22  23
ENDBRANCH   3  22
TORSDOF 4
ENDMDL
MODEL 2
REMARK VINA RESULT:      -7.9      2.073      5.260
REMARK  Name = 23647311
REMARK  4 active torsions:
REMARK  status: ('A' for Active; 'I' for Inactive)
REMARK    1  A    between atoms: N_3  and  C_22
REMARK    2  A    between atoms: C_5  and  N_18
REMARK    3  A    between atoms: C_22  and  C_23
REMARK    4  A    between atoms: C_24  and  C_30
REMARK                            x       y       z     vdW  Elec       q    Type
REMARK                         _______ _______ _______ _____ _____    ______ ____
ROOT
ATOM      1  O   UNL     1      32.851 -23.017 -18.693  0.00  0.00    -0.274 OA
ATOM      2  N   UNL     1      36.086 -23.702 -15.314  0.00  0.00    -0.273 N 
ATOM      3  N   UNL     1      34.420 -23.392 -16.995  0.00  0.00    -0.217 N 
ATOM      4  N   UNL     1      36.511 -22.268 -17.050  0.00  0.00    -0.376 NA
ATOM      5  C   UNL     1      38.046 -24.947 -14.536  0.00  0.00    -0.045 C 
ATOM      6  C   UNL     1      37.835 -24.366 -13.132  0.00  0.00    -0.018 C 
ATOM      7  C   UNL     1      36.719 -25.021 -15.301  0.00  0.00    +0.073 C 
ATOM      8  C   UNL     1      37.127 -23.013 -13.211  0.00  0.00    +0.019 C 
ATOM      9  C   UNL     1      35.825 -23.113 -14.003  0.00  0.00    +0.094 C 
ATOM     10  C   UNL     1      35.695 -23.103 -16.461  0.00  0.00    +0.247 C 
ATOM     11  C   UNL     1      33.947 -22.808 -18.180  0.00  0.00    +0.243 C 
ATOM     12  C   UNL     1      36.122 -21.640 -18.238  0.00  0.00    +0.124 C 
ATOM     13  C   UNL     1      34.880 -21.869 -18.832  0.00  0.00    +0.151 C 
ATOM     14  C   UNL     1      34.525 -21.223 -20.021  0.00  0.00    -0.010 C 
ATOM     15  C   UNL     1      37.010 -20.750 -18.852  0.00  0.00    +0.028 C 
ATOM     16  C   UNL     1      35.419 -20.338 -20.622  0.00  0.00    -0.004 C 
ATOM     17  C   UNL     1      36.661 -20.102 -20.039  0.00  0.00    +0.002 C 
ENDROOT
BRANCH   5  18
ATOM     18  N   UNL     1      38.651 -26.276 -14.459  0.00  0.00    +0.383 N 
ATOM     19  H   UNL     1      38.267 -26.778 -13.658  0.00  0.00    -0.089 HD
ATOM     20  H   UNL     1      39.661 -26.185 -14.351  0.00  0.00    -0.089 HD
ATOM     21  H   UNL     1      38.446 -26.793 -15.314  0.00  0.00    -0.089 HD
ENDBRANCH   5  18
BRANCH   3  22
ATOM     22  C   UNL     1      33.539 -24.333 -16.304  0.00  0.00    +0.129 C 
BRANCH  22  23
ATOM     23  C   UNL     1      32.310 -23.661 -15.766  0.00  0.00    +0.008 C 
ATOM     24  C   UNL     1      32.047 -23.607 -14.397  0.00  0.00    +0.066 C 
ATOM     25  C   UNL     1      31.419 -23.080 -16.669  0.00  0.00    -0.002 C 
ATOM     26  C   UNL     1      30.895 -22.974 -13.931  0.00  0.00    +0.010 C 
ATOM     27  C   UNL     1      30.267 -22.448 -16.204  0.00  0.00    -0.000 C 
ATOM     28  C   UNL     1      30.004 -22.395 -14.835  0.00  0.00    +0.001 C 
BRANCH  24  30
ATOM     29  N   UNL     1      33.675 -24.671 -12.682  0.00  0.00    -0.191 NA
ATOM     30  C   UNL     1      32.945 -24.195 -13.450  0.00  0.00    +0.100 C 
ENDBRANCH  24  30
ENDBRANCH  22  23
ENDBRANCH   3  22
TORSDOF 4
ENDMDL
MODEL 3
REMARK VINA RESULT:      -6.9      1.065      1.896
REMARK  Name = 23647311
REMARK  4 active torsions:
REMARK  status: ('A' for Active; 'I' for Inactive)
REMARK    1  A    between atoms: N_3  and  C_22
REMARK    2  A    between atoms: C_5  and  N_18
REMARK    3  A    between atoms: C_22  and  C_23
REMARK    4  A    between atoms: C_24  and  C_30
REMARK                            x       y       z     vdW  Elec       q    Type
REMARK                         _______ _______ _______ _____ _____    ______ ____
ROOT
ATOM      1  O   UNL     1      36.862 -22.362 -15.182  0.00  0.00    -0.274 OA
ATOM      2  N   UNL     1      32.321 -23.671 -15.295  0.00  0.00    -0.273 N 
ATOM      3  N   UNL     1      34.615 -23.020 -15.185  0.00  0.00    -0.217 N 
ATOM      4  N   UNL     1      33.365 -22.950 -17.203  0.00  0.00    -0.376 NA
ATOM      5  C   UNL     1      29.966 -23.019 -15.131  0.00  0.00    -0.045 C 
ATOM      6  C   UNL     1      29.584 -24.500 -15.012  0.00  0.00    -0.018 C 
ATOM      7  C   UNL     1      31.387 -22.779 -14.607  0.00  0.00    +0.073 C 
ATOM      8  C   UNL     1      30.622 -25.381 -15.708  0.00  0.00    +0.019 C 
ATOM      9  C   UNL     1      32.029 -25.098 -15.186  0.00  0.00    +0.094 C 
ATOM     10  C   UNL     1      33.426 -23.210 -15.923  0.00  0.00    +0.247 C 
ATOM     11  C   UNL     1      35.799 -22.546 -15.769  0.00  0.00    +0.243 C 
ATOM     12  C   UNL     1      34.500 -22.472 -17.867  0.00  0.00    +0.124 C 
ATOM     13  C   UNL     1      35.714 -22.257 -17.213  0.00  0.00    +0.151 C 
ATOM     14  C   UNL     1      36.828 -21.778 -17.910  0.00  0.00    -0.010 C 
ATOM     15  C   UNL     1      34.414 -22.199 -19.237  0.00  0.00    +0.028 C 
ATOM     16  C   UNL     1      36.729 -21.511 -19.275  0.00  0.00    -0.004 C 
ATOM     17  C   UNL     1      35.522 -21.721 -19.938  0.00  0.00    +0.002 C 
ENDROOT
BRANCH   5  18
ATOM     18  N   UNL     1      29.018 -22.181 -14.399  0.00  0.00    +0.383 N 
ATOM     19  H   UNL     1      28.195 -22.733 -14.155  0.00  0.00    -0.089 HD
ATOM     20  H   UNL     1      28.738 -21.394 -14.983  0.00  0.00    -0.089 HD
ATOM     21  H   UNL     1      29.458 -21.833 -13.548  0.00  0.00    -0.089 HD
ENDBRANCH   5  18
BRANCH   3  22
ATOM     22  C   UNL     1      34.638 -23.323 -13.754  0.00  0.00    +0.129 C 
BRANCH  22  23
ATOM     23  C   UNL     1      35.989 -23.796 -13.302  0.00  0.00    +0.008 C 
ATOM     24  C   UNL     1      36.597 -24.916 -13.870  0.00  0.00    +0.066 C 
ATOM     25  C   UNL     1      36.638 -23.090 -12.289  0.00  0.00    -0.002 C 
ATOM     26  C   UNL     1      37.854 -25.329 -13.426  0.00  0.00    +0.010 C 
ATOM     27  C   UNL     1      37.894 -23.503 -11.845  0.00  0.00    -0.000 C 
ATOM     28  C   UNL     1      38.502 -24.622 -12.413  0.00  0.00    +0.001 C 
BRANCH  24  30
ATOM     29  N   UNL     1      35.430 -26.259 -15.756  0.00  0.00    -0.191 NA
ATOM     30  C   UNL     1      35.953 -25.657 -14.911  0.00  0.00    +0.100 C 
ENDBRANCH  24  30
ENDBRANCH  22  23
ENDBRANCH   3  22
TORSDOF 4
ENDMDL
MODEL 4
REMARK VINA RESULT:      -6.1      1.890      6.010
REMARK  Name = 23647311
REMARK  4 active torsions:
REMARK  status: ('A' for Active; 'I' for Inactive)
REMARK    1  A    between atoms: N_3  and  C_22
REMARK    2  A    between atoms: C_5  and  N_18
REMARK    3  A    between atoms: C_22  and  C_23
REMARK    4  A    between atoms: C_24  and  C_30
REMARK                            x       y       z     vdW  Elec       q    Type
REMARK                         _______ _______ _______ _____ _____    ______ ____
ROOT
ATOM      1  O   UNL     1      34.196 -23.724 -12.334  0.00  0.00    -0.274 OA
ATOM      2  N   UNL     1      34.478 -23.291 -17.033  0.00  0.00    -0.273 N 
ATOM      3  N   UNL     1      34.289 -23.481 -14.661  0.00  0.00    -0.217 N 
ATOM      4  N   UNL     1      36.111 -24.403 -15.874  0.00  0.00    -0.376 NA
ATOM      5  C   UNL     1      35.301 -22.018 -18.957  0.00  0.00    -0.045 C 
ATOM      6  C   UNL     1      34.362 -22.821 -19.867  0.00  0.00    -0.018 C 
ATOM      7  C   UNL     1      34.744 -21.940 -17.530  0.00  0.00    +0.073 C 
ATOM      8  C   UNL     1      34.086 -24.201 -19.270  0.00  0.00    +0.019 C 
ATOM      9  C   UNL     1      33.560 -24.092 -17.840  0.00  0.00    +0.094 C 
ATOM     10  C   UNL     1      34.985 -23.739 -15.863  0.00  0.00    +0.247 C 
ATOM     11  C   UNL     1      34.755 -23.916 -13.411  0.00  0.00    +0.243 C 
ATOM     12  C   UNL     1      36.650 -24.874 -14.672  0.00  0.00    +0.124 C 
ATOM     13  C   UNL     1      36.027 -24.663 -13.440  0.00  0.00    +0.151 C 
ATOM     14  C   UNL     1      36.594 -25.148 -12.258  0.00  0.00    -0.010 C 
ATOM     15  C   UNL     1      37.856 -25.582 -14.704  0.00  0.00    +0.028 C 
ATOM     16  C   UNL     1      37.796 -25.853 -12.305  0.00  0.00    -0.004 C 
ATOM     17  C   UNL     1      38.427 -26.069 -13.527  0.00  0.00    +0.002 C 
ENDROOT
BRANCH   5  18
ATOM     18  N   UNL     1      35.503 -20.670 -19.486  0.00  0.00    +0.383 N 
ATOM     19  H   UNL     1      36.368 -20.644 -20.027  0.00  0.00    -0.089 HD
ATOM     20  H   UNL     1      35.566 -20.007 -18.714  0.00  0.00    -0.089 HD
ATOM     21  H   UNL     1      34.719 -20.420 -20.087  0.00  0.00    -0.089 HD
ENDBRANCH   5  18
BRANCH   3  22
ATOM     22  C   UNL     1      33.033 -22.733 -14.696  0.00  0.00    +0.129 C 
BRANCH  22  23
ATOM     23  C   UNL     1      31.838 -23.642 -14.685  0.00  0.00    +0.008 C 
ATOM     24  C   UNL     1      30.869 -23.585 -15.686  0.00  0.00    +0.066 C 
ATOM     25  C   UNL     1      31.709 -24.559 -13.642  0.00  0.00    -0.002 C 
ATOM     26  C   UNL     1      29.771 -24.444 -15.646  0.00  0.00    +0.010 C 
ATOM     27  C   UNL     1      30.611 -25.419 -13.601  0.00  0.00    -0.000 C 
ATOM     28  C   UNL     1      29.642 -25.361 -14.602  0.00  0.00    +0.001 C 
BRANCH  24  30
ATOM     29  N   UNL     1      31.068 -21.896 -17.643  0.00  0.00    -0.191 NA
ATOM     30  C   UNL     1      30.979 -22.653 -16.767  0.00  0.00    +0.100 C 
ENDBRANCH  24  30
ENDBRANCH  22  23
ENDBRANCH   3  22
TORSDOF 4
ENDMDL
MODEL 5
REMARK VINA RESULT:      -5.8     10.288     14.144
REMARK  Name = 23647311
REMARK  4 active torsions:
REMARK  status: ('A' for Active; 'I' for Inactive)
REMARK    1  A    between atoms: N_3  and  C_22
REMARK    2  A    between atoms: C_5  and  N_18
REMARK    3  A    between atoms: C_22  and  C_23
REMARK    4  A    between atoms: C_24  and  C_30
REMARK                            x       y       z     vdW  Elec       q    Type
REMARK                         _______ _______ _______ _____ _____    ______ ____
ROOT
ATOM      1  O   UNL     1      31.674 -14.707 -20.849  0.00  0.00    -0.274 OA
ATOM      2  N   UNL     1      33.578 -12.748 -24.707  0.00  0.00    -0.273 N 
ATOM      3  N   UNL     1      32.580 -13.697 -22.757  0.00  0.00    -0.217 N 
ATOM      4  N   UNL     1      34.481 -14.654 -23.811  0.00  0.00    -0.376 NA
ATOM      5  C   UNL     1      35.226 -11.205 -25.655  0.00  0.00    -0.045 C 
ATOM      6  C   UNL     1      34.504 -11.292 -27.006  0.00  0.00    -0.018 C 
ATOM      7  C   UNL     1      34.254 -11.467 -24.499  0.00  0.00    +0.073 C 
ATOM      8  C   UNL     1      33.779 -12.632 -27.142  0.00  0.00    +0.019 C 
ATOM      9  C   UNL     1      32.841 -12.877 -25.962  0.00  0.00    +0.094 C 
ATOM     10  C   UNL     1      33.569 -13.718 -23.765  0.00  0.00    +0.247 C 
ATOM     11  C   UNL     1      32.508 -14.670 -21.749  0.00  0.00    +0.243 C 
ATOM     12  C   UNL     1      34.486 -15.665 -22.844  0.00  0.00    +0.124 C 
ATOM     13  C   UNL     1      33.544 -15.719 -21.815  0.00  0.00    +0.151 C 
ATOM     14  C   UNL     1      33.579 -16.745 -20.865  0.00  0.00    -0.010 C 
ATOM     15  C   UNL     1      35.470 -16.657 -22.911  0.00  0.00    +0.028 C 
ATOM     16  C   UNL     1      34.565 -17.728 -20.944  0.00  0.00    -0.004 C 
ATOM     17  C   UNL     1      35.510 -17.684 -21.966  0.00  0.00    +0.002 C 
ENDROOT
BRANCH   5  18
ATOM     18  N   UNL     1      35.855  -9.895 -25.491  0.00  0.00    +0.383 N 
ATOM     19  H   UNL     1      36.863  -9.984 -25.615  0.00  0.00    -0.089 HD
ATOM     20  H   UNL     1      35.658  -9.538 -24.556  0.00  0.00    -0.089 HD
ATOM     21  H   UNL     1      35.482  -9.250 -26.187  0.00  0.00    -0.089 HD
ENDBRANCH   5  18
BRANCH   3  22
ATOM     22  C   UNL     1      31.580 -12.630 -22.743  0.00  0.00    +0.129 C 
BRANCH  22  23
ATOM     23  C   UNL     1      31.718 -11.748 -21.536  0.00  0.00    +0.008 C 
ATOM     24  C   UNL     1      31.847 -10.364 -21.655  0.00  0.00    +0.066 C 
ATOM     25  C   UNL     1      31.716 -12.341 -20.274  0.00  0.00    -0.002 C 
ATOM     26  C   UNL     1      31.974  -9.573 -20.513  0.00  0.00    +0.010 C 
ATOM     27  C   UNL     1      31.843 -11.551 -19.131  0.00  0.00    -0.000 C 
ATOM     28  C   UNL     1      31.972 -10.167 -19.251  0.00  0.00    +0.001 C 
BRANCH  24  30
ATOM     29  N   UNL     1      31.855  -9.217 -23.980  0.00  0.00    -0.191 NA
ATOM     30  C   UNL     1      31.851  -9.731 -22.939  0.00  0.00    +0.100 C 
ENDBRANCH  24  30
ENDBRANCH  22  23
ENDBRANCH   3  22
TORSDOF 4
ENDMDL
