MODEL 1
REMARK VINA RESULT:      -9.8      0.000      0.000
REMARK  Name = 5288784
REMARK  12 active torsions:
REMARK  status: ('A' for Active; 'I' for Inactive)
REMARK    1  A    between atoms: N_1  and  C_15
REMARK    2  A    between atoms: CA_2  and  C_4
REMARK    3  A    between atoms: CA_2  and  C_29
REMARK    4  A    between atoms: C_5  and  C_8
REMARK    5  A    between atoms: C_8  and  N_9
REMARK    6  A    between atoms: C_15  and  C_16
REMARK    7  A    between atoms: C_16  and  C_17
REMARK    8  A    between atoms: C_16  and  C_25
REMARK    9  A    between atoms: C_17  and  C_18
REMARK   10  A    between atoms: C_18  and  C_19
REMARK   11  A    between atoms: C_25  and  S_26
REMARK   12  A    between atoms: C_29  and  O_30
REMARK                            x       y       z     vdW  Elec       q    Type
REMARK                         _______ _______ _______ _____ _____    ______ ____
ROOT
ATOM      1  N   UNL     1      35.794 -20.406 -19.873  0.00  0.00    -0.172 NA
ATOM      2  CA  UNL     1      35.145 -21.246 -19.124  0.00  0.00    +0.154 C 
ENDROOT
BRANCH   2   4
ATOM      3  S   UNL     1      34.826 -22.901 -16.964  0.00  0.00    -0.088 S 
ATOM      4  C   UNL     1      35.755 -21.840 -17.935  0.00  0.00    +0.051 C 
ATOM      5  C   UNL     1      36.132 -23.141 -15.883  0.00  0.00    +0.029 C 
ATOM      6  C   UNL     1      37.031 -21.674 -17.445  0.00  0.00    +0.008 C 
ATOM      7  C   UNL     1      37.249 -22.428 -16.256  0.00  0.00    +0.004 C 
BRANCH   5   8
ATOM      8  C   UNL     1      35.959 -24.039 -14.720  0.00  0.00    +0.153 C 
BRANCH   8   9
ATOM      9  N   UNL     1      36.579 -25.355 -14.946  0.00  0.00    -0.167 N 
ATOM     10  N   UNL     1      36.035 -26.252 -15.781  0.00  0.00    -0.052 NA
ATOM     11  N   UNL     1      37.902 -27.073 -14.882  0.00  0.00    -0.108 NA
ATOM     12  N   UNL     1      36.848 -27.300 -15.737  0.00  0.00    -0.025 NA
ATOM     13  C   UNL     1      37.717 -25.864 -14.404  0.00  0.00    +0.211 C 
ENDBRANCH   8   9
ENDBRANCH   5   8
ENDBRANCH   2   4
BRANCH   1  15
ATOM     14  O   UNL     1      34.476 -20.547 -21.758  0.00  0.00    -0.273 OA
ATOM     15  C   UNL     1      35.179 -19.892 -20.993  0.00  0.00    +0.246 C 
BRANCH  15  16
ATOM     16  C   UNL     1      35.508 -18.414 -21.237  0.00  0.00    +0.089 C 
BRANCH  16  17
ATOM     17  C   UNL     1      34.281 -17.502 -21.044  0.00  0.00    +0.015 C 
BRANCH  17  18
ATOM     18  C   UNL     1      34.672 -16.096 -20.568  0.00  0.00    +0.027 C 
BRANCH  18  19
ATOM     19  C   UNL     1      33.964 -15.026 -21.360  0.00  0.00    -0.022 C 
ATOM     20  C   UNL     1      34.426 -14.678 -22.630  0.00  0.00    -0.004 C 
ATOM     21  C   UNL     1      32.848 -14.384 -20.824  0.00  0.00    -0.004 C 
ATOM     22  C   UNL     1      33.772 -13.688 -23.363  0.00  0.00    -0.000 C 
ATOM     23  C   UNL     1      32.193 -13.394 -21.558  0.00  0.00    -0.000 C 
ATOM     24  C   UNL     1      32.655 -13.046 -22.827  0.00  0.00    -0.000 C 
ENDBRANCH  18  19
ENDBRANCH  17  18
ENDBRANCH  16  17
BRANCH  16  25
ATOM     25  C   UNL     1      36.175 -18.233 -22.612  0.00  0.00    +0.063 C 
BRANCH  25  26
ATOM     26  S   UNL     1      35.013 -18.096 -24.008  0.00  0.00    -0.167 S 
ATOM     27  H   UNL     1      35.452 -17.142 -24.872  0.00  0.00    +0.102 HD
ENDBRANCH  25  26
ENDBRANCH  16  25
ENDBRANCH  15  16
ENDBRANCH   1  15
BRANCH   2  29
ATOM     28  OXT UNL     1      32.783 -20.910 -19.233  0.00  0.00    -0.244 OA
ATOM     29  C   UNL     1      33.730 -21.638 -19.449  0.00  0.00    +0.354 C 
BRANCH  29  30
ATOM     30  O   UNL     1      33.727 -22.868 -19.982  0.00  0.00    -0.476 OA
ATOM     31  H   UNL     1      34.504 -23.391 -19.957  0.00  0.00    +0.295 HD
ENDBRANCH  29  30
ENDBRANCH   2  29
TORSDOF 12
ENDMDL
MODEL 2
REMARK VINA RESULT:      -9.6      5.853     11.169
REMARK  Name = 5288784
REMARK  12 active torsions:
REMARK  status: ('A' for Active; 'I' for Inactive)
REMARK    1  A    between atoms: N_1  and  C_15
REMARK    2  A    between atoms: CA_2  and  C_4
REMARK    3  A    between atoms: CA_2  and  C_29
REMARK    4  A    between atoms: C_5  and  C_8
REMARK    5  A    between atoms: C_8  and  N_9
REMARK    6  A    between atoms: C_15  and  C_16
REMARK    7  A    between atoms: C_16  and  C_17
REMARK    8  A    between atoms: C_16  and  C_25
REMARK    9  A    between atoms: C_17  and  C_18
REMARK   10  A    between atoms: C_18  and  C_19
REMARK   11  A    between atoms: C_25  and  S_26
REMARK   12  A    between atoms: C_29  and  O_30
REMARK                            x       y       z     vdW  Elec       q    Type
REMARK                         _______ _______ _______ _____ _____    ______ ____
ROOT
ATOM      1  N   UNL     1      34.618 -15.493 -22.174  0.00  0.00    -0.172 NA
ATOM      2  CA  UNL     1      33.544 -14.857 -21.816  0.00  0.00    +0.154 C 
ENDROOT
BRANCH   2   4
ATOM      3  S   UNL     1      32.039 -12.580 -21.573  0.00  0.00    -0.088 S 
ATOM      4  C   UNL     1      33.218 -13.540 -22.361  0.00  0.00    +0.051 C 
ATOM      5  C   UNL     1      32.224 -11.318 -22.715  0.00  0.00    +0.029 C 
ATOM      6  C   UNL     1      33.740 -12.911 -23.470  0.00  0.00    +0.008 C 
ATOM      7  C   UNL     1      33.163 -11.624 -23.675  0.00  0.00    +0.004 C 
BRANCH   5   8
ATOM      8  C   UNL     1      31.413 -10.088 -22.579  0.00  0.00    +0.153 C 
BRANCH   8   9
ATOM      9  N   UNL     1      31.958  -9.184 -21.552  0.00  0.00    -0.167 N 
ATOM     10  N   UNL     1      31.760  -9.411 -20.245  0.00  0.00    -0.052 NA
ATOM     11  N   UNL     1      32.969  -7.560 -20.532  0.00  0.00    -0.108 NA
ATOM     12  N   UNL     1      32.380  -8.414 -19.627  0.00  0.00    -0.025 NA
ATOM     13  C   UNL     1      32.695  -8.056 -21.716  0.00  0.00    +0.211 C 
ENDBRANCH   8   9
ENDBRANCH   5   8
ENDBRANCH   2   4
BRANCH   1  15
ATOM     14  O   UNL     1      35.357 -16.882 -20.491  0.00  0.00    -0.273 OA
ATOM     15  C   UNL     1      34.888 -16.722 -21.615  0.00  0.00    +0.246 C 
BRANCH  15  16
ATOM     16  C   UNL     1      34.600 -17.893 -22.562  0.00  0.00    +0.089 C 
BRANCH  16  17
ATOM     17  C   UNL     1      34.881 -19.259 -21.907  0.00  0.00    +0.015 C 
BRANCH  17  18
ATOM     18  C   UNL     1      33.663 -19.802 -21.147  0.00  0.00    +0.027 C 
BRANCH  18  19
ATOM     19  C   UNL     1      34.070 -20.782 -20.076  0.00  0.00    -0.022 C 
ATOM     20  C   UNL     1      33.097 -21.520 -19.400  0.00  0.00    -0.004 C 
ATOM     21  C   UNL     1      35.418 -20.952 -19.762  0.00  0.00    -0.004 C 
ATOM     22  C   UNL     1      33.474 -22.426 -18.409  0.00  0.00    -0.000 C 
ATOM     23  C   UNL     1      35.794 -21.859 -18.770  0.00  0.00    -0.000 C 
ATOM     24  C   UNL     1      34.822 -22.596 -18.094  0.00  0.00    -0.000 C 
ENDBRANCH  18  19
ENDBRANCH  17  18
ENDBRANCH  16  17
BRANCH  16  25
ATOM     25  C   UNL     1      35.350 -17.704 -23.892  0.00  0.00    +0.063 C 
BRANCH  25  26
ATOM     26  S   UNL     1      34.300 -17.193 -25.290  0.00  0.00    -0.167 S 
ATOM     27  H   UNL     1      33.352 -18.142 -25.516  0.00  0.00    +0.102 HD
ENDBRANCH  25  26
ENDBRANCH  16  25
ENDBRANCH  15  16
ENDBRANCH   1  15
BRANCH   2  29
ATOM     28  OXT UNL     1      31.712 -16.235 -21.149  0.00  0.00    -0.244 OA
ATOM     29  C   UNL     1      32.585 -15.456 -20.825  0.00  0.00    +0.354 C 
BRANCH  29  30
ATOM     30  O   UNL     1      32.865 -14.984 -19.602  0.00  0.00    -0.476 OA
ATOM     31  H   UNL     1      32.722 -14.079 -19.406  0.00  0.00    +0.295 HD
ENDBRANCH  29  30
ENDBRANCH   2  29
TORSDOF 12
ENDMDL
MODEL 3
REMARK VINA RESULT:      -9.4      5.610      8.315
REMARK  Name = 5288784
REMARK  12 active torsions:
REMARK  status: ('A' for Active; 'I' for Inactive)
REMARK    1  A    between atoms: N_1  and  C_15
REMARK    2  A    between atoms: CA_2  and  C_4
REMARK    3  A    between atoms: CA_2  and  C_29
REMARK    4  A    between atoms: C_5  and  C_8
REMARK    5  A    between atoms: C_8  and  N_9
REMARK    6  A    between atoms: C_15  and  C_16
REMARK    7  A    between atoms: C_16  and  C_17
REMARK    8  A    between atoms: C_16  and  C_25
REMARK    9  A    between atoms: C_17  and  C_18
REMARK   10  A    between atoms: C_18  and  C_19
REMARK   11  A    between atoms: C_25  and  S_26
REMARK   12  A    between atoms: C_29  and  O_30
REMARK                            x       y       z     vdW  Elec       q    Type
REMARK                         _______ _______ _______ _____ _____    ______ ____
ROOT
ATOM      1  N   UNL     1      34.071 -13.750 -23.680  0.00  0.00    -0.172 NA
ATOM      2  CA  UNL     1      33.943 -14.825 -24.397  0.00  0.00    +0.154 C 
ENDROOT
BRANCH   2   4
ATOM      3  S   UNL     1      34.809 -16.303 -22.260  0.00  0.00    -0.088 S 
ATOM      4  C   UNL     1      34.399 -16.127 -23.913  0.00  0.00    +0.051 C 
ATOM      5  C   UNL     1      35.201 -17.956 -22.478  0.00  0.00    +0.029 C 
ATOM      6  C   UNL     1      34.557 -17.302 -24.613  0.00  0.00    +0.008 C 
ATOM      7  C   UNL     1      35.022 -18.361 -23.782  0.00  0.00    +0.004 C 
BRANCH   5   8
ATOM      8  C   UNL     1      35.665 -18.753 -21.321  0.00  0.00    +0.153 C 
BRANCH   8   9
ATOM      9  N   UNL     1      34.598 -19.618 -20.789  0.00  0.00    -0.167 N 
ATOM     10  N   UNL     1      34.878 -20.697 -20.045  0.00  0.00    -0.052 NA
ATOM     11  N   UNL     1      32.673 -20.488 -20.298  0.00  0.00    -0.108 NA
ATOM     12  N   UNL     1      33.698 -21.225 -19.747  0.00  0.00    -0.025 NA
ATOM     13  C   UNL     1      33.253 -19.498 -20.937  0.00  0.00    +0.211 C 
ENDBRANCH   8   9
ENDBRANCH   5   8
ENDBRANCH   2   4
BRANCH   1  15
ATOM     14  O   UNL     1      34.092 -12.030 -25.213  0.00  0.00    -0.273 OA
ATOM     15  C   UNL     1      33.643 -12.546 -24.193  0.00  0.00    +0.246 C 
BRANCH  15  16
ATOM     16  C   UNL     1      32.578 -11.865 -23.326  0.00  0.00    +0.089 C 
BRANCH  16  17
ATOM     17  C   UNL     1      32.963 -10.420 -22.951  0.00  0.00    +0.015 C 
BRANCH  17  18
ATOM     18  C   UNL     1      32.046  -9.383 -23.615  0.00  0.00    +0.027 C 
BRANCH  18  19
ATOM     19  C   UNL     1      31.852  -8.173 -22.737  0.00  0.00    -0.022 C 
ATOM     20  C   UNL     1      31.088  -7.097 -23.191  0.00  0.00    -0.004 C 
ATOM     21  C   UNL     1      32.436  -8.129 -21.471  0.00  0.00    -0.004 C 
ATOM     22  C   UNL     1      30.910  -5.977 -22.378  0.00  0.00    -0.000 C 
ATOM     23  C   UNL     1      32.257  -7.009 -20.659  0.00  0.00    -0.000 C 
ATOM     24  C   UNL     1      31.494  -5.933 -21.112  0.00  0.00    -0.000 C 
ENDBRANCH  18  19
ENDBRANCH  17  18
ENDBRANCH  16  17
BRANCH  16  25
ATOM     25  C   UNL     1      32.250 -12.732 -22.097  0.00  0.00    +0.063 C 
BRANCH  25  26
ATOM     26  S   UNL     1      31.527 -11.822 -20.695  0.00  0.00    -0.167 S 
ATOM     27  H   UNL     1      32.141 -10.615 -20.572  0.00  0.00    +0.102 HD
ENDBRANCH  25  26
ENDBRANCH  16  25
ENDBRANCH  15  16
ENDBRANCH   1  15
BRANCH   2  29
ATOM     28  OXT UNL     1      33.921 -15.043 -26.775  0.00  0.00    -0.244 OA
ATOM     29  C   UNL     1      33.311 -14.773 -25.761  0.00  0.00    +0.354 C 
BRANCH  29  30
ATOM     30  O   UNL     1      32.032 -14.391 -25.639  0.00  0.00    -0.476 OA
ATOM     31  H   UNL     1      31.828 -13.498 -25.438  0.00  0.00    +0.295 HD
ENDBRANCH  29  30
ENDBRANCH   2  29
TORSDOF 12
ENDMDL
MODEL 4
REMARK VINA RESULT:      -9.4      2.782      4.259
REMARK  Name = 5288784
REMARK  12 active torsions:
REMARK  status: ('A' for Active; 'I' for Inactive)
REMARK    1  A    between atoms: N_1  and  C_15
REMARK    2  A    between atoms: CA_2  and  C_4
REMARK    3  A    between atoms: CA_2  and  C_29
REMARK    4  A    between atoms: C_5  and  C_8
REMARK    5  A    between atoms: C_8  and  N_9
REMARK    6  A    between atoms: C_15  and  C_16
REMARK    7  A    between atoms: C_16  and  C_17
REMARK    8  A    between atoms: C_16  and  C_25
REMARK    9  A    between atoms: C_17  and  C_18
REMARK   10  A    between atoms: C_18  and  C_19
REMARK   11  A    between atoms: C_25  and  S_26
REMARK   12  A    between atoms: C_29  and  O_30
REMARK                            x       y       z     vdW  Elec       q    Type
REMARK                         _______ _______ _______ _____ _____    ______ ____
ROOT
ATOM      1  N   UNL     1      34.472 -23.271 -16.987  0.00  0.00    -0.172 NA
ATOM      2  CA  UNL     1      33.974 -23.548 -15.820  0.00  0.00    +0.154 C 
ENDROOT
BRANCH   2   4
ATOM      3  S   UNL     1      36.016 -25.263 -15.191  0.00  0.00    -0.088 S 
ATOM      4  C   UNL     1      34.789 -24.149 -14.764  0.00  0.00    +0.051 C 
ATOM      5  C   UNL     1      36.464 -25.480 -13.553  0.00  0.00    +0.029 C 
ATOM      6  C   UNL     1      34.723 -23.948 -13.403  0.00  0.00    +0.008 C 
ATOM      7  C   UNL     1      35.694 -24.719 -12.702  0.00  0.00    +0.004 C 
BRANCH   5   8
ATOM      8  C   UNL     1      37.570 -26.404 -13.217  0.00  0.00    +0.153 C 
BRANCH   8   9
ATOM      9  N   UNL     1      38.845 -25.973 -13.816  0.00  0.00    -0.167 N 
ATOM     10  N   UNL     1      39.475 -26.721 -14.732  0.00  0.00    -0.052 NA
ATOM     11  N   UNL     1      40.634 -24.860 -14.328  0.00  0.00    -0.108 NA
ATOM     12  N   UNL     1      40.569 -26.035 -15.041  0.00  0.00    -0.025 NA
ATOM     13  C   UNL     1      39.557 -24.841 -13.577  0.00  0.00    +0.211 C 
ENDBRANCH   8   9
ENDBRANCH   5   8
ENDBRANCH   2   4
BRANCH   1  15
ATOM     14  O   UNL     1      32.512 -23.105 -18.188  0.00  0.00    -0.273 OA
ATOM     15  C   UNL     1      33.656 -22.724 -17.952  0.00  0.00    +0.246 C 
BRANCH  15  16
ATOM     16  C   UNL     1      34.338 -21.615 -18.762  0.00  0.00    +0.089 C 
BRANCH  16  17
ATOM     17  C   UNL     1      33.717 -21.446 -20.162  0.00  0.00    +0.015 C 
BRANCH  17  18
ATOM     18  C   UNL     1      33.024 -20.087 -20.331  0.00  0.00    +0.027 C 
BRANCH  18  19
ATOM     19  C   UNL     1      33.821 -19.165 -21.219  0.00  0.00    -0.022 C 
ATOM     20  C   UNL     1      34.439 -19.664 -22.367  0.00  0.00    -0.004 C 
ATOM     21  C   UNL     1      33.941 -17.814 -20.893  0.00  0.00    -0.004 C 
ATOM     22  C   UNL     1      35.176 -18.811 -23.187  0.00  0.00    -0.000 C 
ATOM     23  C   UNL     1      34.679 -16.962 -21.714  0.00  0.00    -0.000 C 
ATOM     24  C   UNL     1      35.297 -17.460 -22.862  0.00  0.00    -0.000 C 
ENDBRANCH  18  19
ENDBRANCH  17  18
ENDBRANCH  16  17
BRANCH  16  25
ATOM     25  C   UNL     1      35.859 -21.842 -18.808  0.00  0.00    +0.063 C 
BRANCH  25  26
ATOM     26  S   UNL     1      36.772 -20.661 -19.852  0.00  0.00    -0.167 S 
ATOM     27  H   UNL     1      35.984 -19.585 -20.116  0.00  0.00    +0.102 HD
ENDBRANCH  25  26
ENDBRANCH  16  25
ENDBRANCH  15  16
ENDBRANCH   1  15
BRANCH   2  29
ATOM     28  OXT UNL     1      32.175 -22.214 -14.991  0.00  0.00    -0.244 OA
ATOM     29  C   UNL     1      32.534 -23.254 -15.504  0.00  0.00    +0.354 C 
BRANCH  29  30
ATOM     30  O   UNL     1      31.781 -24.301 -15.872  0.00  0.00    -0.476 OA
ATOM     31  H   UNL     1      31.425 -24.340 -16.738  0.00  0.00    +0.295 HD
ENDBRANCH  29  30
ENDBRANCH   2  29
TORSDOF 12
ENDMDL
MODEL 5
REMARK VINA RESULT:      -9.4      1.695      2.093
REMARK  Name = 5288784
REMARK  12 active torsions:
REMARK  status: ('A' for Active; 'I' for Inactive)
REMARK    1  A    between atoms: N_1  and  C_15
REMARK    2  A    between atoms: CA_2  and  C_4
REMARK    3  A    between atoms: CA_2  and  C_29
REMARK    4  A    between atoms: C_5  and  C_8
REMARK    5  A    between atoms: C_8  and  N_9
REMARK    6  A    between atoms: C_15  and  C_16
REMARK    7  A    between atoms: C_16  and  C_17
REMARK    8  A    between atoms: C_16  and  C_25
REMARK    9  A    between atoms: C_17  and  C_18
REMARK   10  A    between atoms: C_18  and  C_19
REMARK   11  A    between atoms: C_25  and  S_26
REMARK   12  A    between atoms: C_29  and  O_30
REMARK                            x       y       z     vdW  Elec       q    Type
REMARK                         _______ _______ _______ _____ _____    ______ ____
ROOT
ATOM      1  N   UNL     1      35.325 -20.842 -19.238  0.00  0.00    -0.172 NA
ATOM      2  CA  UNL     1      34.946 -21.867 -18.536  0.00  0.00    +0.154 C 
ENDROOT
BRANCH   2   4
ATOM      3  S   UNL     1      35.078 -23.541 -16.371  0.00  0.00    -0.088 S 
ATOM      4  C   UNL     1      35.751 -22.371 -17.424  0.00  0.00    +0.051 C 
ATOM      5  C   UNL     1      36.511 -23.605 -15.437  0.00  0.00    +0.029 C 
ATOM      6  C   UNL     1      37.040 -22.038 -17.070  0.00  0.00    +0.008 C 
ATOM      7  C   UNL     1      37.480 -22.753 -15.919  0.00  0.00    +0.004 C 
BRANCH   5   8
ATOM      8  C   UNL     1      36.581 -24.513 -14.271  0.00  0.00    +0.153 C 
BRANCH   8   9
ATOM      9  N   UNL     1      37.196 -23.858 -13.103  0.00  0.00    -0.167 N 
ATOM     10  N   UNL     1      38.504 -23.988 -12.837  0.00  0.00    -0.052 NA
ATOM     11  N   UNL     1      37.528 -22.700 -11.300  0.00  0.00    -0.108 NA
ATOM     12  N   UNL     1      38.700 -23.278 -11.733  0.00  0.00    -0.025 NA
ATOM     13  C   UNL     1      36.611 -23.072 -12.163  0.00  0.00    +0.211 C 
ENDBRANCH   8   9
ENDBRANCH   5   8
ENDBRANCH   2   4
BRANCH   1  15
ATOM     14  O   UNL     1      33.493 -20.966 -20.631  0.00  0.00    -0.273 OA
ATOM     15  C   UNL     1      34.539 -20.420 -20.287  0.00  0.00    +0.246 C 
BRANCH  15  16
ATOM     16  C   UNL     1      35.128 -19.221 -21.039  0.00  0.00    +0.089 C 
BRANCH  16  17
ATOM     17  C   UNL     1      34.150 -18.032 -21.104  0.00  0.00    +0.015 C 
BRANCH  17  18
ATOM     18  C   UNL     1      34.850 -16.690 -20.849  0.00  0.00    +0.027 C 
BRANCH  18  19
ATOM     19  C   UNL     1      34.072 -15.539 -21.436  0.00  0.00    -0.022 C 
ATOM     20  C   UNL     1      34.242 -15.194 -22.778  0.00  0.00    -0.004 C 
ATOM     21  C   UNL     1      33.183 -14.820 -20.638  0.00  0.00    -0.004 C 
ATOM     22  C   UNL     1      33.522 -14.130 -23.320  0.00  0.00    -0.000 C 
ATOM     23  C   UNL     1      32.463 -13.755 -21.181  0.00  0.00    -0.000 C 
ATOM     24  C   UNL     1      32.633 -13.410 -22.522  0.00  0.00    -0.000 C 
ENDBRANCH  18  19
ENDBRANCH  17  18
ENDBRANCH  16  17
BRANCH  16  25
ATOM     25  C   UNL     1      35.633 -19.654 -22.427  0.00  0.00    +0.063 C 
BRANCH  25  26
ATOM     26  S   UNL     1      34.737 -18.909 -23.828  0.00  0.00    -0.167 S 
ATOM     27  H   UNL     1      33.828 -19.798 -24.309  0.00  0.00    +0.102 HD
ENDBRANCH  25  26
ENDBRANCH  16  25
ENDBRANCH  15  16
ENDBRANCH   1  15
BRANCH   2  29
ATOM     28  OXT UNL     1      32.594 -22.232 -18.359  0.00  0.00    -0.244 OA
ATOM     29  C   UNL     1      33.655 -22.576 -18.837  0.00  0.00    +0.354 C 
BRANCH  29  30
ATOM     30  O   UNL     1      33.898 -23.595 -19.674  0.00  0.00    -0.476 OA
ATOM     31  H   UNL     1      34.011 -24.461 -19.336  0.00  0.00    +0.295 HD
ENDBRANCH  29  30
ENDBRANCH   2  29
TORSDOF 12
ENDMDL
MODEL 6
REMARK VINA RESULT:      -9.3      3.596      5.948
REMARK  Name = 5288784
REMARK  12 active torsions:
REMARK  status: ('A' for Active; 'I' for Inactive)
REMARK    1  A    between atoms: N_1  and  C_15
REMARK    2  A    between atoms: CA_2  and  C_4
REMARK    3  A    between atoms: CA_2  and  C_29
REMARK    4  A    between atoms: C_5  and  C_8
REMARK    5  A    between atoms: C_8  and  N_9
REMARK    6  A    between atoms: C_15  and  C_16
REMARK    7  A    between atoms: C_16  and  C_17
REMARK    8  A    between atoms: C_16  and  C_25
REMARK    9  A    between atoms: C_17  and  C_18
REMARK   10  A    between atoms: C_18  and  C_19
REMARK   11  A    between atoms: C_25  and  S_26
REMARK   12  A    between atoms: C_29  and  O_30
REMARK                            x       y       z     vdW  Elec       q    Type
REMARK                         _______ _______ _______ _____ _____    ______ ____
ROOT
ATOM      1  N   UNL     1      33.294 -15.833 -22.710  0.00  0.00    -0.172 NA
ATOM      2  CA  UNL     1      33.708 -16.213 -21.540  0.00  0.00    +0.154 C 
ENDROOT
BRANCH   2   4
ATOM      3  S   UNL     1      35.599 -18.157 -21.146  0.00  0.00    -0.088 S 
ATOM      4  C   UNL     1      33.976 -17.620 -21.243  0.00  0.00    +0.051 C 
ATOM      5  C   UNL     1      35.105 -19.758 -20.797  0.00  0.00    +0.029 C 
ATOM      6  C   UNL     1      33.079 -18.640 -21.014  0.00  0.00    +0.008 C 
ATOM      7  C   UNL     1      33.734 -19.879 -20.756  0.00  0.00    +0.004 C 
BRANCH   5   8
ATOM      8  C   UNL     1      36.128 -20.805 -20.581  0.00  0.00    +0.153 C 
BRANCH   8   9
ATOM      9  N   UNL     1      35.897 -21.547 -19.329  0.00  0.00    -0.167 N 
ATOM     10  N   UNL     1      34.866 -22.394 -19.197  0.00  0.00    -0.052 NA
ATOM     11  N   UNL     1      36.059 -22.333 -17.315  0.00  0.00    -0.108 NA
ATOM     12  N   UNL     1      34.970 -22.871 -17.964  0.00  0.00    -0.025 NA
ATOM     13  C   UNL     1      36.618 -21.517 -18.178  0.00  0.00    +0.211 C 
ENDBRANCH   8   9
ENDBRANCH   5   8
ENDBRANCH   2   4
BRANCH   1  15
ATOM     14  O   UNL     1      32.310 -13.807 -22.221  0.00  0.00    -0.273 OA
ATOM     15  C   UNL     1      33.038 -14.497 -22.930  0.00  0.00    +0.246 C 
BRANCH  15  16
ATOM     16  C   UNL     1      33.708 -13.955 -24.198  0.00  0.00    +0.089 C 
BRANCH  16  17
ATOM     17  C   UNL     1      33.214 -12.541 -24.562  0.00  0.00    +0.015 C 
BRANCH  17  18
ATOM     18  C   UNL     1      34.372 -11.551 -24.748  0.00  0.00    +0.027 C 
BRANCH  18  19
ATOM     19  C   UNL     1      34.088 -10.234 -24.072  0.00  0.00    -0.022 C 
ATOM     20  C   UNL     1      34.966  -9.161 -24.237  0.00  0.00    -0.004 C 
ATOM     21  C   UNL     1      32.948 -10.087 -23.281  0.00  0.00    -0.004 C 
ATOM     22  C   UNL     1      34.702  -7.942 -23.611  0.00  0.00    -0.000 C 
ATOM     23  C   UNL     1      32.685  -8.868 -22.655  0.00  0.00    -0.000 C 
ATOM     24  C   UNL     1      33.562  -7.795 -22.820  0.00  0.00    -0.000 C 
ENDBRANCH  18  19
ENDBRANCH  17  18
ENDBRANCH  16  17
BRANCH  16  25
ATOM     25  C   UNL     1      33.555 -14.956 -25.356  0.00  0.00    +0.063 C 
BRANCH  25  26
ATOM     26  S   UNL     1      32.964 -14.228 -26.918  0.00  0.00    -0.167 S 
ATOM     27  H   UNL     1      31.957 -14.990 -27.421  0.00  0.00    +0.102 HD
ENDBRANCH  25  26
ENDBRANCH  16  25
ENDBRANCH  15  16
ENDBRANCH   1  15
BRANCH   2  29
ATOM     28  OXT UNL     1      35.020 -14.713 -20.224  0.00  0.00    -0.244 OA
ATOM     29  C   UNL     1      33.936 -15.215 -20.438  0.00  0.00    +0.354 C 
BRANCH  29  30
ATOM     30  O   UNL     1      32.783 -15.012 -19.784  0.00  0.00    -0.476 OA
ATOM     31  H   UNL     1      32.742 -14.380 -19.094  0.00  0.00    +0.295 HD
ENDBRANCH  29  30
ENDBRANCH   2  29
TORSDOF 12
ENDMDL
MODEL 7
REMARK VINA RESULT:      -9.3      3.264      5.126
REMARK  Name = 5288784
REMARK  12 active torsions:
REMARK  status: ('A' for Active; 'I' for Inactive)
REMARK    1  A    between atoms: N_1  and  C_15
REMARK    2  A    between atoms: CA_2  and  C_4
REMARK    3  A    between atoms: CA_2  and  C_29
REMARK    4  A    between atoms: C_5  and  C_8
REMARK    5  A    between atoms: C_8  and  N_9
REMARK    6  A    between atoms: C_15  and  C_16
REMARK    7  A    between atoms: C_16  and  C_17
REMARK    8  A    between atoms: C_16  and  C_25
REMARK    9  A    between atoms: C_17  and  C_18
REMARK   10  A    between atoms: C_18  and  C_19
REMARK   11  A    between atoms: C_25  and  S_26
REMARK   12  A    between atoms: C_29  and  O_30
REMARK                            x       y       z     vdW  Elec       q    Type
REMARK                         _______ _______ _______ _____ _____    ______ ____
ROOT
ATOM      1  N   UNL     1      34.256 -16.987 -21.792  0.00  0.00    -0.172 NA
ATOM      2  CA  UNL     1      34.413 -18.228 -22.141  0.00  0.00    +0.154 C 
ENDROOT
BRANCH   2   4
ATOM      3  S   UNL     1      35.409 -20.268 -20.607  0.00  0.00    -0.088 S 
ATOM      4  C   UNL     1      34.118 -19.324 -21.219  0.00  0.00    +0.051 C 
ATOM      5  C   UNL     1      34.336 -21.239 -19.692  0.00  0.00    +0.029 C 
ATOM      6  C   UNL     1      32.898 -19.742 -20.736  0.00  0.00    +0.008 C 
ATOM      7  C   UNL     1      33.024 -20.851 -19.851  0.00  0.00    +0.004 C 
BRANCH   5   8
ATOM      8  C   UNL     1      34.877 -22.337 -18.861  0.00  0.00    +0.153 C 
BRANCH   8   9
ATOM      9  N   UNL     1      33.941 -22.728 -17.792  0.00  0.00    -0.167 N 
ATOM     10  N   UNL     1      32.617 -22.768 -18.001  0.00  0.00    -0.052 NA
ATOM     11  N   UNL     1      33.084 -23.356 -15.902  0.00  0.00    -0.108 NA
ATOM     12  N   UNL     1      32.099 -23.153 -16.842  0.00  0.00    -0.025 NA
ATOM     13  C   UNL     1      34.216 -23.088 -16.511  0.00  0.00    +0.211 C 
ENDBRANCH   8   9
ENDBRANCH   5   8
ENDBRANCH   2   4
BRANCH   1  15
ATOM     14  O   UNL     1      35.618 -15.939 -23.328  0.00  0.00    -0.273 OA
ATOM     15  C   UNL     1      34.568 -15.993 -22.692  0.00  0.00    +0.246 C 
BRANCH  15  16
ATOM     16  C   UNL     1      33.492 -14.905 -22.787  0.00  0.00    +0.089 C 
BRANCH  16  17
ATOM     17  C   UNL     1      34.094 -13.500 -22.980  0.00  0.00    +0.015 C 
BRANCH  17  18
ATOM     18  C   UNL     1      33.406 -12.723 -24.111  0.00  0.00    +0.027 C 
BRANCH  18  19
ATOM     19  C   UNL     1      33.639 -11.238 -23.985  0.00  0.00    -0.022 C 
ATOM     20  C   UNL     1      32.765 -10.457 -23.227  0.00  0.00    -0.004 C 
ATOM     21  C   UNL     1      34.728 -10.646 -24.626  0.00  0.00    -0.004 C 
ATOM     22  C   UNL     1      32.981  -9.084 -23.112  0.00  0.00    -0.000 C 
ATOM     23  C   UNL     1      34.943  -9.273 -24.509  0.00  0.00    -0.000 C 
ATOM     24  C   UNL     1      34.069  -8.491 -23.752  0.00  0.00    -0.000 C 
ENDBRANCH  18  19
ENDBRANCH  17  18
ENDBRANCH  16  17
BRANCH  16  25
ATOM     25  C   UNL     1      32.541 -14.984 -21.579  0.00  0.00    +0.063 C 
BRANCH  25  26
ATOM     26  S   UNL     1      32.273 -13.402 -20.717  0.00  0.00    -0.167 S 
ATOM     27  H   UNL     1      30.943 -13.225 -20.497  0.00  0.00    +0.102 HD
ENDBRANCH  25  26
ENDBRANCH  16  25
ENDBRANCH  15  16
ENDBRANCH   1  15
BRANCH   2  29
ATOM     28  OXT UNL     1      34.147 -18.859 -24.429  0.00  0.00    -0.244 OA
ATOM     29  C   UNL     1      34.901 -18.589 -23.517  0.00  0.00    +0.354 C 
BRANCH  29  30
ATOM     30  O   UNL     1      36.242 -18.560 -23.529  0.00  0.00    -0.476 OA
ATOM     31  H   UNL     1      36.728 -19.342 -23.356  0.00  0.00    +0.295 HD
ENDBRANCH  29  30
ENDBRANCH   2  29
TORSDOF 12
ENDMDL
MODEL 8
REMARK VINA RESULT:      -9.3      6.876     11.859
REMARK  Name = 5288784
REMARK  12 active torsions:
REMARK  status: ('A' for Active; 'I' for Inactive)
REMARK    1  A    between atoms: N_1  and  C_15
REMARK    2  A    between atoms: CA_2  and  C_4
REMARK    3  A    between atoms: CA_2  and  C_29
REMARK    4  A    between atoms: C_5  and  C_8
REMARK    5  A    between atoms: C_8  and  N_9
REMARK    6  A    between atoms: C_15  and  C_16
REMARK    7  A    between atoms: C_16  and  C_17
REMARK    8  A    between atoms: C_16  and  C_25
REMARK    9  A    between atoms: C_17  and  C_18
REMARK   10  A    between atoms: C_18  and  C_19
REMARK   11  A    between atoms: C_25  and  S_26
REMARK   12  A    between atoms: C_29  and  O_30
REMARK                            x       y       z     vdW  Elec       q    Type
REMARK                         _______ _______ _______ _____ _____    ______ ____
ROOT
ATOM      1  N   UNL     1      34.214 -14.113 -23.505  0.00  0.00    -0.172 NA
ATOM      2  CA  UNL     1      33.754 -13.322 -24.427  0.00  0.00    +0.154 C 
ENDROOT
BRANCH   2   4
ATOM      3  S   UNL     1      32.271 -11.269 -23.382  0.00  0.00    -0.088 S 
ATOM      4  C   UNL     1      33.639 -11.880 -24.209  0.00  0.00    +0.051 C 
ATOM      5  C   UNL     1      32.837  -9.659 -23.523  0.00  0.00    +0.029 C 
ATOM      6  C   UNL     1      34.507 -10.879 -24.584  0.00  0.00    +0.008 C 
ATOM      7  C   UNL     1      34.042  -9.592 -24.186  0.00  0.00    +0.004 C 
BRANCH   5   8
ATOM      8  C   UNL     1      32.036  -8.553 -22.954  0.00  0.00    +0.153 C 
BRANCH   8   9
ATOM      9  N   UNL     1      32.215  -8.440 -21.496  0.00  0.00    -0.167 N 
ATOM     10  N   UNL     1      32.727  -7.334 -20.938  0.00  0.00    -0.052 NA
ATOM     11  N   UNL     1      32.242  -8.838 -19.365  0.00  0.00    -0.108 NA
ATOM     12  N   UNL     1      32.741  -7.584 -19.634  0.00  0.00    -0.025 NA
ATOM     13  C   UNL     1      31.922  -9.350 -20.531  0.00  0.00    +0.211 C 
ENDBRANCH   8   9
ENDBRANCH   5   8
ENDBRANCH   2   4
BRANCH   1  15
ATOM     14  O   UNL     1      33.776 -16.015 -24.730  0.00  0.00    -0.273 OA
ATOM     15  C   UNL     1      34.282 -15.466 -23.755  0.00  0.00    +0.246 C 
BRANCH  15  16
ATOM     16  C   UNL     1      35.009 -16.247 -22.654  0.00  0.00    +0.089 C 
BRANCH  16  17
ATOM     17  C   UNL     1      34.829 -17.770 -22.800  0.00  0.00    +0.015 C 
BRANCH  17  18
ATOM     18  C   UNL     1      35.778 -18.558 -21.886  0.00  0.00    +0.027 C 
BRANCH  18  19
ATOM     19  C   UNL     1      35.031 -19.560 -21.043  0.00  0.00    -0.022 C 
ATOM     20  C   UNL     1      35.733 -20.518 -20.311  0.00  0.00    -0.004 C 
ATOM     21  C   UNL     1      33.637 -19.529 -20.995  0.00  0.00    -0.004 C 
ATOM     22  C   UNL     1      35.041 -21.445 -19.532  0.00  0.00    -0.000 C 
ATOM     23  C   UNL     1      32.945 -20.457 -20.216  0.00  0.00    -0.000 C 
ATOM     24  C   UNL     1      33.647 -21.415 -19.484  0.00  0.00    -0.000 C 
ENDBRANCH  18  19
ENDBRANCH  17  18
ENDBRANCH  16  17
BRANCH  16  25
ATOM     25  C   UNL     1      34.595 -15.729 -21.265  0.00  0.00    +0.063 C 
BRANCH  25  26
ATOM     26  S   UNL     1      32.805 -15.788 -20.934  0.00  0.00    -0.167 S 
ATOM     27  H   UNL     1      32.573 -15.467 -19.634  0.00  0.00    +0.102 HD
ENDBRANCH  25  26
ENDBRANCH  16  25
ENDBRANCH  15  16
ENDBRANCH   1  15
BRANCH   2  29
ATOM     28  OXT UNL     1      34.081 -13.938 -26.710  0.00  0.00    -0.244 OA
ATOM     29  C   UNL     1      33.325 -13.860 -25.764  0.00  0.00    +0.354 C 
BRANCH  29  30
ATOM     30  O   UNL     1      32.031 -14.204 -25.704  0.00  0.00    -0.476 OA
ATOM     31  H   UNL     1      31.405 -13.769 -26.250  0.00  0.00    +0.295 HD
ENDBRANCH  29  30
ENDBRANCH   2  29
TORSDOF 12
ENDMDL
MODEL 9
REMARK VINA RESULT:      -9.2      5.323     10.922
REMARK  Name = 5288784
REMARK  12 active torsions:
REMARK  status: ('A' for Active; 'I' for Inactive)
REMARK    1  A    between atoms: N_1  and  C_15
REMARK    2  A    between atoms: CA_2  and  C_4
REMARK    3  A    between atoms: CA_2  and  C_29
REMARK    4  A    between atoms: C_5  and  C_8
REMARK    5  A    between atoms: C_8  and  N_9
REMARK    6  A    between atoms: C_15  and  C_16
REMARK    7  A    between atoms: C_16  and  C_17
REMARK    8  A    between atoms: C_16  and  C_25
REMARK    9  A    between atoms: C_17  and  C_18
REMARK   10  A    between atoms: C_18  and  C_19
REMARK   11  A    between atoms: C_25  and  S_26
REMARK   12  A    between atoms: C_29  and  O_30
REMARK                            x       y       z     vdW  Elec       q    Type
REMARK                         _______ _______ _______ _____ _____    ______ ____
ROOT
ATOM      1  N   UNL     1      34.374 -16.495 -21.338  0.00  0.00    -0.172 NA
ATOM      2  CA  UNL     1      33.973 -15.581 -22.169  0.00  0.00    +0.154 C 
ENDROOT
BRANCH   2   4
ATOM      3  S   UNL     1      32.747 -13.229 -22.854  0.00  0.00    -0.088 S 
ATOM      4  C   UNL     1      33.178 -14.438 -21.721  0.00  0.00    +0.051 C 
ATOM      5  C   UNL     1      31.907 -12.333 -21.660  0.00  0.00    +0.029 C 
ATOM      6  C   UNL     1      32.693 -14.163 -20.462  0.00  0.00    +0.008 C 
ATOM      7  C   UNL     1      31.956 -12.944 -20.427  0.00  0.00    +0.004 C 
BRANCH   5   8
ATOM      8  C   UNL     1      31.243 -11.065 -22.034  0.00  0.00    +0.153 C 
BRANCH   8   9
ATOM      9  N   UNL     1      31.816  -9.914 -21.316  0.00  0.00    -0.167 N 
ATOM     10  N   UNL     1      32.484  -8.948 -21.963  0.00  0.00    -0.052 NA
ATOM     11  N   UNL     1      32.417  -8.508 -19.779  0.00  0.00    -0.108 NA
ATOM     12  N   UNL     1      32.849  -8.092 -21.018  0.00  0.00    -0.025 NA
ATOM     13  C   UNL     1      31.780  -9.637 -19.987  0.00  0.00    +0.211 C 
ENDBRANCH   8   9
ENDBRANCH   5   8
ENDBRANCH   2   4
BRANCH   1  15
ATOM     14  O   UNL     1      36.321 -17.554 -21.970  0.00  0.00    -0.273 OA
ATOM     15  C   UNL     1      35.103 -17.562 -21.816  0.00  0.00    +0.246 C 
BRANCH  15  16
ATOM     16  C   UNL     1      34.232 -18.764 -22.201  0.00  0.00    +0.089 C 
BRANCH  16  17
ATOM     17  C   UNL     1      33.930 -19.679 -20.998  0.00  0.00    +0.015 C 
BRANCH  17  18
ATOM     18  C   UNL     1      35.126 -20.569 -20.632  0.00  0.00    +0.027 C 
BRANCH  18  19
ATOM     19  C   UNL     1      34.831 -21.421 -19.423  0.00  0.00    -0.022 C 
ATOM     20  C   UNL     1      33.546 -21.928 -19.223  0.00  0.00    -0.004 C 
ATOM     21  C   UNL     1      35.843 -21.703 -18.505  0.00  0.00    -0.004 C 
ATOM     22  C   UNL     1      33.274 -22.715 -18.104  0.00  0.00    -0.000 C 
ATOM     23  C   UNL     1      35.570 -22.491 -17.387  0.00  0.00    -0.000 C 
ATOM     24  C   UNL     1      34.286 -22.997 -17.186  0.00  0.00    -0.000 C 
ENDBRANCH  18  19
ENDBRANCH  17  18
ENDBRANCH  16  17
BRANCH  16  25
ATOM     25  C   UNL     1      34.857 -19.522 -23.385  0.00  0.00    +0.063 C 
BRANCH  25  26
ATOM     26  S   UNL     1      34.272 -18.988 -25.025  0.00  0.00    -0.167 S 
ATOM     27  H   UNL     1      33.163 -18.214 -24.881  0.00  0.00    +0.102 HD
ENDBRANCH  25  26
ENDBRANCH  16  25
ENDBRANCH  15  16
ENDBRANCH   1  15
BRANCH   2  29
ATOM     28  OXT UNL     1      33.469 -15.726 -24.498  0.00  0.00    -0.244 OA
ATOM     29  C   UNL     1      34.315 -15.660 -23.630  0.00  0.00    +0.354 C 
BRANCH  29  30
ATOM     30  O   UNL     1      35.648 -15.650 -23.771  0.00  0.00    -0.476 OA
ATOM     31  H   UNL     1      36.056 -16.198 -24.412  0.00  0.00    +0.295 HD
ENDBRANCH  29  30
ENDBRANCH   2  29
TORSDOF 12
ENDMDL
