MODEL 1
REMARK VINA RESULT:     -11.4      0.000      0.000
REMARK  Name = 447478
REMARK  5 active torsions:
REMARK  status: ('A' for Active; 'I' for Inactive)
REMARK    1  A    between atoms: C_2  and  C_19
REMARK    2  A    between atoms: C_8  and  C_13
REMARK    3  A    between atoms: C_17  and  O_25
REMARK    4  A    between atoms: C_18  and  O_23
REMARK    5  A    between atoms: O_25  and  C_26
REMARK                            x       y       z     vdW  Elec       q    Type
REMARK                         _______ _______ _______ _____ _____    ______ ____
ROOT
ATOM      1  N   UNL     1      35.761 -19.695 -21.154  0.00  0.00    -0.312 N 
ATOM      2  C   UNL     1      34.601 -19.329 -21.782  0.00  0.00    +0.051 C 
ATOM      3  C   UNL     1      34.109 -20.766 -20.107  0.00  0.00    +0.015 C 
ATOM      4  C   UNL     1      35.491 -20.571 -20.127  0.00  0.00    +0.048 C 
ATOM      5  C   UNL     1      33.560 -19.977 -21.156  0.00  0.00    +0.016 C 
ATOM      6  C   UNL     1      33.559 -21.629 -19.138  0.00  0.00    +0.004 C 
ATOM      7  C   UNL     1      36.356 -21.200 -19.225  0.00  0.00    +0.015 C 
ATOM      8  C   UNL     1      34.412 -22.265 -18.229  0.00  0.00    +0.031 C 
ATOM      9  C   UNL     1      35.789 -22.052 -18.273  0.00  0.00    +0.004 C 
ATOM     10  H   UNL     1      36.660 -19.376 -21.401  0.00  0.00    +0.152 HD
ENDROOT
BRANCH   8  13
ATOM     11  N   UNL     1      32.480 -23.228 -17.000  0.00  0.00    -0.343 N 
ATOM     12  N   UNL     1      34.656 -23.920 -16.503  0.00  0.00    -0.285 NA
ATOM     13  C   UNL     1      33.853 -23.158 -17.225  0.00  0.00    +0.117 C 
ATOM     14  H   UNL     1      32.123 -23.839 -16.315  0.00  0.00    +0.144 HD
ATOM     15  H   UNL     1      31.867 -22.665 -17.527  0.00  0.00    +0.144 HD
ATOM     16  H   UNL     1      34.281 -24.524 -15.822  0.00  0.00    +0.188 HD
ENDBRANCH   8  13
BRANCH   2  19
ATOM     17  C   UNL     1      34.472 -16.173 -23.793  0.00  0.00    +0.172 C 
ATOM     18  C   UNL     1      34.481 -17.039 -22.699  0.00  0.00    +0.169 C 
ATOM     19  C   UNL     1      34.589 -18.416 -22.898  0.00  0.00    +0.050 C 
ATOM     20  C   UNL     1      34.569 -16.683 -25.087  0.00  0.00    +0.040 C 
ATOM     21  C   UNL     1      34.687 -18.925 -24.195  0.00  0.00    +0.004 C 
ATOM     22  C   UNL     1      34.677 -18.060 -25.288  0.00  0.00    +0.003 C 
BRANCH  18  23
ATOM     23  O   UNL     1      34.386 -16.524 -21.438  0.00  0.00    -0.503 OA
ATOM     24  H   UNL     1      35.043 -16.724 -20.800  0.00  0.00    +0.292 HD
ENDBRANCH  18  23
BRANCH  17  25
ATOM     25  O   UNL     1      34.368 -14.827 -23.611  0.00  0.00    -0.476 OA
BRANCH  25  26
ATOM     26  C   UNL     1      33.097 -14.239 -23.857  0.00  0.00    +0.166 C 
ATOM     27  C   UNL     1      33.058 -13.691 -25.274  0.00  0.00    +0.044 C 
ATOM     28  C   UNL     1      32.914 -12.994 -23.003  0.00  0.00    +0.044 C 
ATOM     29  C   UNL     1      33.794 -12.354 -25.189  0.00  0.00    +0.004 C 
ATOM     30  C   UNL     1      33.728 -11.922 -23.724  0.00  0.00    +0.004 C 
ENDBRANCH  25  26
ENDBRANCH  17  25
ENDBRANCH   2  19
TORSDOF 5
ENDMDL
MODEL 2
REMARK VINA RESULT:     -10.7      4.983     10.179
REMARK  Name = 447478
REMARK  5 active torsions:
REMARK  status: ('A' for Active; 'I' for Inactive)
REMARK    1  A    between atoms: C_2  and  C_19
REMARK    2  A    between atoms: C_8  and  C_13
REMARK    3  A    between atoms: C_17  and  O_25
REMARK    4  A    between atoms: C_18  and  O_23
REMARK    5  A    between atoms: O_25  and  C_26
REMARK                            x       y       z     vdW  Elec       q    Type
REMARK                         _______ _______ _______ _____ _____    ______ ____
ROOT
ATOM      1  N   UNL     1      34.527 -11.263 -24.318  0.00  0.00    -0.312 N 
ATOM      2  C   UNL     1      33.603 -12.187 -23.909  0.00  0.00    +0.051 C 
ATOM      3  C   UNL     1      32.956 -10.138 -23.205  0.00  0.00    +0.015 C 
ATOM      4  C   UNL     1      34.157 -10.004 -23.903  0.00  0.00    +0.048 C 
ATOM      5  C   UNL     1      32.618 -11.520 -23.217  0.00  0.00    +0.016 C 
ATOM      6  C   UNL     1      32.351  -8.984 -22.667  0.00  0.00    +0.004 C 
ATOM      7  C   UNL     1      34.789  -8.769 -24.089  0.00  0.00    +0.015 C 
ATOM      8  C   UNL     1      32.972  -7.743 -22.846  0.00  0.00    +0.031 C 
ATOM      9  C   UNL     1      34.171  -7.639 -23.546  0.00  0.00    +0.004 C 
ATOM     10  H   UNL     1      35.339 -11.471 -24.836  0.00  0.00    +0.152 HD
ENDROOT
BRANCH   8  13
ATOM     11  N   UNL     1      32.147  -6.404 -20.923  0.00  0.00    -0.343 N 
ATOM     12  N   UNL     1      31.974  -5.572 -23.099  0.00  0.00    -0.285 NA
ATOM     13  C   UNL     1      32.354  -6.546 -22.293  0.00  0.00    +0.117 C 
ATOM     14  H   UNL     1      31.727  -5.586 -20.570  0.00  0.00    +0.144 HD
ATOM     15  H   UNL     1      32.422  -7.122 -20.307  0.00  0.00    +0.144 HD
ATOM     16  H   UNL     1      31.555  -4.761 -22.729  0.00  0.00    +0.188 HD
ENDBRANCH   8  13
BRANCH   2  19
ATOM     17  C   UNL     1      34.391 -15.832 -23.575  0.00  0.00    +0.172 C 
ATOM     18  C   UNL     1      34.268 -14.477 -23.267  0.00  0.00    +0.169 C 
ATOM     19  C   UNL     1      33.740 -13.591 -24.207  0.00  0.00    +0.050 C 
ATOM     20  C   UNL     1      33.988 -16.303 -24.824  0.00  0.00    +0.040 C 
ATOM     21  C   UNL     1      33.336 -14.064 -25.457  0.00  0.00    +0.004 C 
ATOM     22  C   UNL     1      33.460 -15.418 -25.766  0.00  0.00    +0.003 C 
BRANCH  18  23
ATOM     23  O   UNL     1      34.666 -14.032 -22.039  0.00  0.00    -0.503 OA
ATOM     24  H   UNL     1      34.584 -13.124 -21.822  0.00  0.00    +0.292 HD
ENDBRANCH  18  23
BRANCH  17  25
ATOM     25  O   UNL     1      34.904 -16.707 -22.665  0.00  0.00    -0.476 OA
BRANCH  25  26
ATOM     26  C   UNL     1      35.382 -17.950 -23.163  0.00  0.00    +0.166 C 
ATOM     27  C   UNL     1      34.396 -19.051 -22.806  0.00  0.00    +0.044 C 
ATOM     28  C   UNL     1      36.644 -18.368 -22.424  0.00  0.00    +0.044 C 
ATOM     29  C   UNL     1      34.702 -19.381 -21.345  0.00  0.00    +0.004 C 
ATOM     30  C   UNL     1      36.136 -18.913 -21.093  0.00  0.00    +0.004 C 
ENDBRANCH  25  26
ENDBRANCH  17  25
ENDBRANCH   2  19
TORSDOF 5
ENDMDL
MODEL 3
REMARK VINA RESULT:     -10.6      3.296      6.434
REMARK  Name = 447478
REMARK  5 active torsions:
REMARK  status: ('A' for Active; 'I' for Inactive)
REMARK    1  A    between atoms: C_2  and  C_19
REMARK    2  A    between atoms: C_8  and  C_13
REMARK    3  A    between atoms: C_17  and  O_25
REMARK    4  A    between atoms: C_18  and  O_23
REMARK    5  A    between atoms: O_25  and  C_26
REMARK                            x       y       z     vdW  Elec       q    Type
REMARK                         _______ _______ _______ _____ _____    ______ ____
ROOT
ATOM      1  N   UNL     1      33.682 -14.229 -23.404  0.00  0.00    -0.312 N 
ATOM      2  C   UNL     1      33.138 -13.641 -22.294  0.00  0.00    +0.051 C 
ATOM      3  C   UNL     1      33.969 -15.664 -21.722  0.00  0.00    +0.015 C 
ATOM      4  C   UNL     1      34.197 -15.464 -23.084  0.00  0.00    +0.048 C 
ATOM      5  C   UNL     1      33.300 -14.507 -21.236  0.00  0.00    +0.016 C 
ATOM      6  C   UNL     1      34.405 -16.867 -21.129  0.00  0.00    +0.004 C 
ATOM      7  C   UNL     1      34.841 -16.411 -23.889  0.00  0.00    +0.015 C 
ATOM      8  C   UNL     1      35.050 -17.822 -21.922  0.00  0.00    +0.031 C 
ATOM      9  C   UNL     1      35.264 -17.596 -23.280  0.00  0.00    +0.004 C 
ATOM     10  H   UNL     1      33.703 -13.824 -24.302  0.00  0.00    +0.152 HD
ENDROOT
BRANCH   8  13
ATOM     11  N   UNL     1      36.691 -19.130 -20.594  0.00  0.00    -0.343 N 
ATOM     12  N   UNL     1      34.784 -20.166 -21.461  0.00  0.00    -0.285 NA
ATOM     13  C   UNL     1      35.504 -19.067 -21.319  0.00  0.00    +0.117 C 
ATOM     14  H   UNL     1      36.980 -19.983 -20.195  0.00  0.00    +0.144 HD
ATOM     15  H   UNL     1      37.242 -18.322 -20.480  0.00  0.00    +0.144 HD
ATOM     16  H   UNL     1      35.089 -21.010 -21.055  0.00  0.00    +0.188 HD
ENDBRANCH   8  13
BRANCH   2  19
ATOM     17  C   UNL     1      32.486 -10.045 -23.112  0.00  0.00    +0.172 C 
ATOM     18  C   UNL     1      33.096 -11.299 -23.079  0.00  0.00    +0.169 C 
ATOM     19  C   UNL     1      32.524 -12.337 -22.340  0.00  0.00    +0.050 C 
ATOM     20  C   UNL     1      31.305  -9.826 -22.405  0.00  0.00    +0.040 C 
ATOM     21  C   UNL     1      31.341 -12.115 -21.634  0.00  0.00    +0.004 C 
ATOM     22  C   UNL     1      30.732 -10.862 -21.666  0.00  0.00    +0.003 C 
BRANCH  18  23
ATOM     23  O   UNL     1      34.253 -11.499 -23.777  0.00  0.00    -0.503 OA
ATOM     24  H   UNL     1      34.330 -12.232 -24.356  0.00  0.00    +0.292 HD
ENDBRANCH  18  23
BRANCH  17  25
ATOM     25  O   UNL     1      33.035  -9.025 -23.829  0.00  0.00    -0.476 OA
BRANCH  25  26
ATOM     26  C   UNL     1      33.513  -7.905 -23.096  0.00  0.00    +0.166 C 
ATOM     27  C   UNL     1      32.648  -6.693 -23.403  0.00  0.00    +0.044 C 
ATOM     28  C   UNL     1      34.884  -7.484 -23.604  0.00  0.00    +0.044 C 
ATOM     29  C   UNL     1      33.163  -6.184 -24.749  0.00  0.00    +0.004 C 
ATOM     30  C   UNL     1      34.588  -6.720 -24.891  0.00  0.00    +0.004 C 
ENDBRANCH  25  26
ENDBRANCH  17  25
ENDBRANCH   2  19
TORSDOF 5
ENDMDL
MODEL 4
REMARK VINA RESULT:     -10.5      4.433      7.333
REMARK  Name = 447478
REMARK  5 active torsions:
REMARK  status: ('A' for Active; 'I' for Inactive)
REMARK    1  A    between atoms: C_2  and  C_19
REMARK    2  A    between atoms: C_8  and  C_13
REMARK    3  A    between atoms: C_17  and  O_25
REMARK    4  A    between atoms: C_18  and  O_23
REMARK    5  A    between atoms: O_25  and  C_26
REMARK                            x       y       z     vdW  Elec       q    Type
REMARK                         _______ _______ _______ _____ _____    ______ ____
ROOT
ATOM      1  N   UNL     1      32.929 -13.690 -24.199  0.00  0.00    -0.312 N 
ATOM      2  C   UNL     1      32.986 -13.225 -22.913  0.00  0.00    +0.051 C 
ATOM      3  C   UNL     1      33.971 -15.258 -23.003  0.00  0.00    +0.015 C 
ATOM      4  C   UNL     1      33.523 -14.928 -24.283  0.00  0.00    +0.048 C 
ATOM      5  C   UNL     1      33.625 -14.174 -22.148  0.00  0.00    +0.016 C 
ATOM      6  C   UNL     1      34.624 -16.491 -22.808  0.00  0.00    +0.004 C 
ATOM      7  C   UNL     1      33.697 -15.775 -25.384  0.00  0.00    +0.015 C 
ATOM      8  C   UNL     1      34.804 -17.347 -23.900  0.00  0.00    +0.031 C 
ATOM      9  C   UNL     1      34.347 -16.993 -25.168  0.00  0.00    +0.004 C 
ATOM     10  H   UNL     1      32.523 -13.206 -24.955  0.00  0.00    +0.152 HD
ENDROOT
BRANCH   8  13
ATOM     11  N   UNL     1      35.010 -19.789 -24.310  0.00  0.00    -0.343 N 
ATOM     12  N   UNL     1      36.555 -18.688 -22.945  0.00  0.00    -0.285 NA
ATOM     13  C   UNL     1      35.479 -18.623 -23.708  0.00  0.00    +0.117 C 
ATOM     14  H   UNL     1      35.481 -20.641 -24.166  0.00  0.00    +0.144 HD
ATOM     15  H   UNL     1      34.207 -19.759 -24.879  0.00  0.00    +0.144 HD
ATOM     16  H   UNL     1      37.013 -19.550 -22.812  0.00  0.00    +0.188 HD
ENDBRANCH   8  13
BRANCH   2  19
ATOM     17  C   UNL     1      32.127  -9.580 -22.930  0.00  0.00    +0.172 C 
ATOM     18  C   UNL     1      32.669 -10.808 -23.311  0.00  0.00    +0.169 C 
ATOM     19  C   UNL     1      32.437 -11.945 -22.536  0.00  0.00    +0.050 C 
ATOM     20  C   UNL     1      31.356  -9.487 -21.772  0.00  0.00    +0.040 C 
ATOM     21  C   UNL     1      31.663 -11.851 -21.378  0.00  0.00    +0.004 C 
ATOM     22  C   UNL     1      31.123 -10.624 -20.996  0.00  0.00    +0.003 C 
BRANCH  18  23
ATOM     23  O   UNL     1      33.422 -10.882 -24.448  0.00  0.00    -0.503 OA
ATOM     24  H   UNL     1      34.354 -10.961 -24.387  0.00  0.00    +0.292 HD
ENDBRANCH  18  23
BRANCH  17  25
ATOM     25  O   UNL     1      32.346  -8.462 -23.678  0.00  0.00    -0.476 OA
BRANCH  25  26
ATOM     26  C   UNL     1      33.033  -7.388 -23.048  0.00  0.00    +0.166 C 
ATOM     27  C   UNL     1      32.481  -6.067 -23.559  0.00  0.00    +0.044 C 
ATOM     28  C   UNL     1      34.485  -7.350 -23.499  0.00  0.00    +0.044 C 
ATOM     29  C   UNL     1      33.159  -5.865 -24.913  0.00  0.00    +0.004 C 
ATOM     30  C   UNL     1      34.431  -6.715 -24.886  0.00  0.00    +0.004 C 
ENDBRANCH  25  26
ENDBRANCH  17  25
ENDBRANCH   2  19
TORSDOF 5
ENDMDL
MODEL 5
REMARK VINA RESULT:     -10.4      4.844     10.056
REMARK  Name = 447478
REMARK  5 active torsions:
REMARK  status: ('A' for Active; 'I' for Inactive)
REMARK    1  A    between atoms: C_2  and  C_19
REMARK    2  A    between atoms: C_8  and  C_13
REMARK    3  A    between atoms: C_17  and  O_25
REMARK    4  A    between atoms: C_18  and  O_23
REMARK    5  A    between atoms: O_25  and  C_26
REMARK                            x       y       z     vdW  Elec       q    Type
REMARK                         _______ _______ _______ _____ _____    ______ ____
ROOT
ATOM      1  N   UNL     1      32.487 -12.275 -22.749  0.00  0.00    -0.312 N 
ATOM      2  C   UNL     1      33.359 -12.612 -23.748  0.00  0.00    +0.051 C 
ATOM      3  C   UNL     1      33.186 -10.360 -23.653  0.00  0.00    +0.015 C 
ATOM      4  C   UNL     1      32.363 -10.907 -22.667  0.00  0.00    +0.048 C 
ATOM      5  C   UNL     1      33.809 -11.447 -24.327  0.00  0.00    +0.016 C 
ATOM      6  C   UNL     1      33.247  -8.958 -23.787  0.00  0.00    +0.004 C 
ATOM      7  C   UNL     1      31.592 -10.118 -21.806  0.00  0.00    +0.015 C 
ATOM      8  C   UNL     1      32.481  -8.158 -22.933  0.00  0.00    +0.031 C 
ATOM      9  C   UNL     1      31.667  -8.731 -21.957  0.00  0.00    +0.004 C 
ATOM     10  H   UNL     1      32.017 -12.919 -22.170  0.00  0.00    +0.152 HD
ENDROOT
BRANCH   8  13
ATOM     11  N   UNL     1      32.232  -5.872 -21.993  0.00  0.00    -0.343 N 
ATOM     12  N   UNL     1      32.879  -6.168 -24.219  0.00  0.00    -0.285 NA
ATOM     13  C   UNL     1      32.537  -6.710 -23.064  0.00  0.00    +0.117 C 
ATOM     14  H   UNL     1      32.275  -4.895 -22.105  0.00  0.00    +0.144 HD
ATOM     15  H   UNL     1      31.972  -6.258 -21.126  0.00  0.00    +0.144 HD
ATOM     16  H   UNL     1      32.917  -5.188 -24.312  0.00  0.00    +0.188 HD
ENDBRANCH   8  13
BRANCH   2  19
ATOM     17  C   UNL     1      34.564 -16.142 -23.420  0.00  0.00    +0.172 C 
ATOM     18  C   UNL     1      34.265 -14.817 -23.102  0.00  0.00    +0.169 C 
ATOM     19  C   UNL     1      33.677 -13.985 -24.056  0.00  0.00    +0.050 C 
ATOM     20  C   UNL     1      34.278 -16.637 -24.692  0.00  0.00    +0.040 C 
ATOM     21  C   UNL     1      33.390 -14.482 -25.329  0.00  0.00    +0.004 C 
ATOM     22  C   UNL     1      33.690 -15.805 -25.647  0.00  0.00    +0.003 C 
BRANCH  18  23
ATOM     23  O   UNL     1      34.552 -14.348 -21.852  0.00  0.00    -0.503 OA
ATOM     24  H   UNL     1      33.880 -13.945 -21.339  0.00  0.00    +0.292 HD
ENDBRANCH  18  23
BRANCH  17  25
ATOM     25  O   UNL     1      35.138 -16.965 -22.498  0.00  0.00    -0.476 OA
BRANCH  25  26
ATOM     26  C   UNL     1      35.568 -18.242 -22.950  0.00  0.00    +0.166 C 
ATOM     27  C   UNL     1      34.558 -19.295 -22.525  0.00  0.00    +0.044 C 
ATOM     28  C   UNL     1      36.833 -18.666 -22.219  0.00  0.00    +0.044 C 
ATOM     29  C   UNL     1      34.885 -19.572 -21.058  0.00  0.00    +0.004 C 
ATOM     30  C   UNL     1      36.337 -19.138 -20.855  0.00  0.00    +0.004 C 
ENDBRANCH  25  26
ENDBRANCH  17  25
ENDBRANCH   2  19
TORSDOF 5
ENDMDL
MODEL 6
REMARK VINA RESULT:     -10.4      1.720      2.699
REMARK  Name = 447478
REMARK  5 active torsions:
REMARK  status: ('A' for Active; 'I' for Inactive)
REMARK    1  A    between atoms: C_2  and  C_19
REMARK    2  A    between atoms: C_8  and  C_13
REMARK    3  A    between atoms: C_17  and  O_25
REMARK    4  A    between atoms: C_18  and  O_23
REMARK    5  A    between atoms: O_25  and  C_26
REMARK                            x       y       z     vdW  Elec       q    Type
REMARK                         _______ _______ _______ _____ _____    ______ ____
ROOT
ATOM      1  N   UNL     1      35.943 -17.463 -22.507  0.00  0.00    -0.312 N 
ATOM      2  C   UNL     1      34.636 -17.235 -22.846  0.00  0.00    +0.051 C 
ATOM      3  C   UNL     1      34.732 -18.999 -21.434  0.00  0.00    +0.015 C 
ATOM      4  C   UNL     1      36.031 -18.533 -21.646  0.00  0.00    +0.048 C 
ATOM      5  C   UNL     1      33.862 -18.171 -22.198  0.00  0.00    +0.016 C 
ATOM      6  C   UNL     1      34.537 -20.102 -20.580  0.00  0.00    +0.004 C 
ATOM      7  C   UNL     1      37.150 -19.119 -21.045  0.00  0.00    +0.015 C 
ATOM      8  C   UNL     1      35.648 -20.698 -19.972  0.00  0.00    +0.031 C 
ATOM      9  C   UNL     1      36.933 -20.212 -20.201  0.00  0.00    +0.004 C 
ATOM     10  H   UNL     1      36.709 -16.935 -22.832  0.00  0.00    +0.152 HD
ENDROOT
BRANCH   8  13
ATOM     11  N   UNL     1      36.187 -21.973 -17.910  0.00  0.00    -0.343 N 
ATOM     12  N   UNL     1      34.577 -22.773 -19.403  0.00  0.00    -0.285 NA
ATOM     13  C   UNL     1      35.456 -21.838 -19.088  0.00  0.00    +0.117 C 
ATOM     14  H   UNL     1      36.041 -22.753 -17.327  0.00  0.00    +0.144 HD
ATOM     15  H   UNL     1      36.849 -21.288 -17.660  0.00  0.00    +0.144 HD
ATOM     16  H   UNL     1      34.445 -23.546 -18.807  0.00  0.00    +0.188 HD
ENDBRANCH   8  13
BRANCH   2  19
ATOM     17  C   UNL     1      33.931 -13.821 -24.214  0.00  0.00    +0.172 C 
ATOM     18  C   UNL     1      34.307 -14.836 -23.334  0.00  0.00    +0.169 C 
ATOM     19  C   UNL     1      34.251 -16.171 -23.740  0.00  0.00    +0.050 C 
ATOM     20  C   UNL     1      33.496 -14.139 -25.500  0.00  0.00    +0.040 C 
ATOM     21  C   UNL     1      33.815 -16.487 -25.028  0.00  0.00    +0.004 C 
ATOM     22  C   UNL     1      33.438 -15.473 -25.907  0.00  0.00    +0.003 C 
BRANCH  18  23
ATOM     23  O   UNL     1      34.732 -14.509 -22.078  0.00  0.00    -0.503 OA
ATOM     24  H   UNL     1      35.617 -14.233 -21.941  0.00  0.00    +0.292 HD
ENDBRANCH  18  23
BRANCH  17  25
ATOM     25  O   UNL     1      33.982 -12.515 -23.830  0.00  0.00    -0.476 OA
BRANCH  25  26
ATOM     26  C   UNL     1      33.451 -11.555 -24.734  0.00  0.00    +0.166 C 
ATOM     27  C   UNL     1      34.557 -11.058 -25.651  0.00  0.00    +0.044 C 
ATOM     28  C   UNL     1      33.034 -10.297 -23.987  0.00  0.00    +0.044 C 
ATOM     29  C   UNL     1      35.316 -10.029 -24.815  0.00  0.00    +0.004 C 
ATOM     30  C   UNL     1      34.347  -9.563 -23.727  0.00  0.00    +0.004 C 
ENDBRANCH  25  26
ENDBRANCH  17  25
ENDBRANCH   2  19
TORSDOF 5
ENDMDL
MODEL 7
REMARK VINA RESULT:     -10.3      3.836      9.998
REMARK  Name = 447478
REMARK  5 active torsions:
REMARK  status: ('A' for Active; 'I' for Inactive)
REMARK    1  A    between atoms: C_2  and  C_19
REMARK    2  A    between atoms: C_8  and  C_13
REMARK    3  A    between atoms: C_17  and  O_25
REMARK    4  A    between atoms: C_18  and  O_23
REMARK    5  A    between atoms: O_25  and  C_26
REMARK                            x       y       z     vdW  Elec       q    Type
REMARK                         _______ _______ _______ _____ _____    ______ ____
ROOT
ATOM      1  N   UNL     1      36.111 -20.808 -19.277  0.00  0.00    -0.312 N 
ATOM      2  C   UNL     1      34.898 -21.394 -19.032  0.00  0.00    +0.051 C 
ATOM      3  C   UNL     1      34.739 -20.125 -20.897  0.00  0.00    +0.015 C 
ATOM      4  C   UNL     1      36.043 -20.029 -20.409  0.00  0.00    +0.048 C 
ATOM      5  C   UNL     1      34.027 -20.989 -20.018  0.00  0.00    +0.016 C 
ATOM      6  C   UNL     1      34.396 -19.414 -22.064  0.00  0.00    +0.004 C 
ATOM      7  C   UNL     1      37.027 -19.253 -21.033  0.00  0.00    +0.015 C 
ATOM      8  C   UNL     1      35.370 -18.634 -22.698  0.00  0.00    +0.031 C 
ATOM      9  C   UNL     1      36.664 -18.557 -22.189  0.00  0.00    +0.004 C 
ATOM     10  H   UNL     1      36.917 -20.929 -18.723  0.00  0.00    +0.152 HD
ENDROOT
BRANCH   8  13
ATOM     11  N   UNL     1      35.336 -16.546 -24.043  0.00  0.00    -0.343 N 
ATOM     12  N   UNL     1      34.399 -18.511 -24.893  0.00  0.00    -0.285 NA
ATOM     13  C   UNL     1      35.025 -17.897 -23.905  0.00  0.00    +0.117 C 
ATOM     14  H   UNL     1      35.093 -16.066 -24.868  0.00  0.00    +0.144 HD
ATOM     15  H   UNL     1      35.799 -16.071 -23.315  0.00  0.00    +0.144 HD
ATOM     16  H   UNL     1      34.163 -18.015 -25.710  0.00  0.00    +0.188 HD
ENDBRANCH   8  13
BRANCH   2  19
ATOM     17  C   UNL     1      35.491 -23.417 -15.937  0.00  0.00    +0.172 C 
ATOM     18  C   UNL     1      35.721 -22.572 -17.023  0.00  0.00    +0.169 C 
ATOM     19  C   UNL     1      34.682 -22.266 -17.904  0.00  0.00    +0.050 C 
ATOM     20  C   UNL     1      34.223 -23.959 -15.732  0.00  0.00    +0.040 C 
ATOM     21  C   UNL     1      33.413 -22.809 -17.696  0.00  0.00    +0.004 C 
ATOM     22  C   UNL     1      33.183 -23.655 -16.612  0.00  0.00    +0.003 C 
BRANCH  18  23
ATOM     23  O   UNL     1      36.968 -22.048 -17.210  0.00  0.00    -0.503 OA
ATOM     24  H   UNL     1      37.196 -21.665 -18.035  0.00  0.00    +0.292 HD
ENDBRANCH  18  23
BRANCH  17  25
ATOM     25  O   UNL     1      36.496 -23.722 -15.070  0.00  0.00    -0.476 OA
BRANCH  25  26
ATOM     26  C   UNL     1      36.398 -24.960 -14.378  0.00  0.00    +0.166 C 
ATOM     27  C   UNL     1      37.041 -24.825 -13.007  0.00  0.00    +0.044 C 
ATOM     28  C   UNL     1      37.256 -26.017 -15.056  0.00  0.00    +0.044 C 
ATOM     29  C   UNL     1      38.540 -24.955 -13.272  0.00  0.00    +0.004 C 
ATOM     30  C   UNL     1      38.677 -25.693 -14.604  0.00  0.00    +0.004 C 
ENDBRANCH  25  26
ENDBRANCH  17  25
ENDBRANCH   2  19
TORSDOF 5
ENDMDL
MODEL 8
REMARK VINA RESULT:     -10.3      3.751      9.442
REMARK  Name = 447478
REMARK  5 active torsions:
REMARK  status: ('A' for Active; 'I' for Inactive)
REMARK    1  A    between atoms: C_2  and  C_19
REMARK    2  A    between atoms: C_8  and  C_13
REMARK    3  A    between atoms: C_17  and  O_25
REMARK    4  A    between atoms: C_18  and  O_23
REMARK    5  A    between atoms: O_25  and  C_26
REMARK                            x       y       z     vdW  Elec       q    Type
REMARK                         _______ _______ _______ _____ _____    ______ ____
ROOT
ATOM      1  N   UNL     1      36.243 -20.688 -19.346  0.00  0.00    -0.312 N 
ATOM      2  C   UNL     1      35.057 -21.310 -19.062  0.00  0.00    +0.051 C 
ATOM      3  C   UNL     1      34.818 -20.104 -20.960  0.00  0.00    +0.015 C 
ATOM      4  C   UNL     1      36.126 -19.946 -20.500  0.00  0.00    +0.048 C 
ATOM      5  C   UNL     1      34.155 -20.966 -20.043  0.00  0.00    +0.016 C 
ATOM      6  C   UNL     1      34.428 -19.442 -22.141  0.00  0.00    +0.004 C 
ATOM      7  C   UNL     1      37.069 -19.154 -21.164  0.00  0.00    +0.015 C 
ATOM      8  C   UNL     1      35.361 -18.646 -22.815  0.00  0.00    +0.031 C 
ATOM      9  C   UNL     1      36.661 -18.506 -22.333  0.00  0.00    +0.004 C 
ATOM     10  H   UNL     1      37.062 -20.763 -18.804  0.00  0.00    +0.152 HD
ENDROOT
BRANCH   8  13
ATOM     11  N   UNL     1      35.327 -16.632 -24.270  0.00  0.00    -0.343 N 
ATOM     12  N   UNL     1      34.251 -18.594 -24.946  0.00  0.00    -0.285 NA
ATOM     13  C   UNL     1      34.968 -17.958 -24.036  0.00  0.00    +0.117 C 
ATOM     14  H   UNL     1      35.050 -16.186 -25.102  0.00  0.00    +0.144 HD
ATOM     15  H   UNL     1      35.859 -16.142 -23.601  0.00  0.00    +0.144 HD
ATOM     16  H   UNL     1      33.983 -18.131 -25.773  0.00  0.00    +0.188 HD
ENDBRANCH   8  13
BRANCH   2  19
ATOM     17  C   UNL     1      33.513 -23.518 -16.461  0.00  0.00    +0.172 C 
ATOM     18  C   UNL     1      33.650 -22.702 -17.584  0.00  0.00    +0.169 C 
ATOM     19  C   UNL     1      34.893 -22.155 -17.905  0.00  0.00    +0.050 C 
ATOM     20  C   UNL     1      34.619 -23.787 -15.656  0.00  0.00    +0.040 C 
ATOM     21  C   UNL     1      36.000 -22.426 -17.098  0.00  0.00    +0.004 C 
ATOM     22  C   UNL     1      35.864 -23.240 -15.975  0.00  0.00    +0.003 C 
BRANCH  18  23
ATOM     23  O   UNL     1      32.557 -22.448 -18.364  0.00  0.00    -0.503 OA
ATOM     24  H   UNL     1      32.669 -22.113 -19.232  0.00  0.00    +0.292 HD
ENDBRANCH  18  23
BRANCH  17  25
ATOM     25  O   UNL     1      32.305 -24.058 -16.138  0.00  0.00    -0.476 OA
BRANCH  25  26
ATOM     26  C   UNL     1      31.795 -23.771 -14.842  0.00  0.00    +0.166 C 
ATOM     27  C   UNL     1      31.311 -25.057 -14.193  0.00  0.00    +0.044 C 
ATOM     28  C   UNL     1      30.526 -22.939 -14.943  0.00  0.00    +0.044 C 
ATOM     29  C   UNL     1      29.935 -25.304 -14.811  0.00  0.00    +0.004 C 
ATOM     30  C   UNL     1      29.445 -23.948 -15.320  0.00  0.00    +0.004 C 
ENDBRANCH  25  26
ENDBRANCH  17  25
ENDBRANCH   2  19
TORSDOF 5
ENDMDL
MODEL 9
REMARK VINA RESULT:     -10.2      2.104      3.083
REMARK  Name = 447478
REMARK  5 active torsions:
REMARK  status: ('A' for Active; 'I' for Inactive)
REMARK    1  A    between atoms: C_2  and  C_19
REMARK    2  A    between atoms: C_8  and  C_13
REMARK    3  A    between atoms: C_17  and  O_25
REMARK    4  A    between atoms: C_18  and  O_23
REMARK    5  A    between atoms: O_25  and  C_26
REMARK                            x       y       z     vdW  Elec       q    Type
REMARK                         _______ _______ _______ _____ _____    ______ ____
ROOT
ATOM      1  N   UNL     1      35.533 -17.325 -21.925  0.00  0.00    -0.312 N 
ATOM      2  C   UNL     1      34.236 -16.928 -22.108  0.00  0.00    +0.051 C 
ATOM      3  C   UNL     1      34.253 -18.889 -20.984  0.00  0.00    +0.015 C 
ATOM      4  C   UNL     1      35.573 -18.518 -21.241  0.00  0.00    +0.048 C 
ATOM      5  C   UNL     1      33.419 -17.877 -21.536  0.00  0.00    +0.016 C 
ATOM      6  C   UNL     1      34.008 -20.089 -20.286  0.00  0.00    +0.004 C 
ATOM      7  C   UNL     1      36.667 -19.291 -20.836  0.00  0.00    +0.015 C 
ATOM      8  C   UNL     1      35.092 -20.872 -19.875  0.00  0.00    +0.031 C 
ATOM      9  C   UNL     1      36.401 -20.477 -20.145  0.00  0.00    +0.004 C 
ATOM     10  H   UNL     1      36.324 -16.826 -22.237  0.00  0.00    +0.152 HD
ENDROOT
BRANCH   8  13
ATOM     11  N   UNL     1      33.841 -22.991 -19.543  0.00  0.00    -0.343 N 
ATOM     12  N   UNL     1      35.591 -22.418 -18.104  0.00  0.00    -0.285 NA
ATOM     13  C   UNL     1      34.849 -22.112 -19.153  0.00  0.00    +0.117 C 
ATOM     14  H   UNL     1      33.693 -23.825 -19.040  0.00  0.00    +0.144 HD
ATOM     15  H   UNL     1      33.276 -22.778 -20.321  0.00  0.00    +0.144 HD
ATOM     16  H   UNL     1      35.427 -23.256 -17.613  0.00  0.00    +0.188 HD
ENDBRANCH   8  13
BRANCH   2  19
ATOM     17  C   UNL     1      33.285 -13.368 -22.777  0.00  0.00    +0.172 C 
ATOM     18  C   UNL     1      33.609 -14.539 -22.091  0.00  0.00    +0.169 C 
ATOM     19  C   UNL     1      33.898 -15.707 -22.798  0.00  0.00    +0.050 C 
ATOM     20  C   UNL     1      33.249 -13.364 -24.171  0.00  0.00    +0.040 C 
ATOM     21  C   UNL     1      33.862 -15.701 -24.193  0.00  0.00    +0.004 C 
ATOM     22  C   UNL     1      33.537 -14.532 -24.880  0.00  0.00    +0.003 C 
BRANCH  18  23
ATOM     23  O   UNL     1      33.641 -14.526 -20.726  0.00  0.00    -0.503 OA
ATOM     24  H   UNL     1      32.921 -14.169 -20.244  0.00  0.00    +0.292 HD
ENDBRANCH  18  23
BRANCH  17  25
ATOM     25  O   UNL     1      33.001 -12.221 -22.099  0.00  0.00    -0.476 OA
BRANCH  25  26
ATOM     26  C   UNL     1      31.665 -11.742 -22.171  0.00  0.00    +0.166 C 
ATOM     27  C   UNL     1      31.677 -10.259 -22.504  0.00  0.00    +0.044 C 
ATOM     28  C   UNL     1      31.012 -11.780 -20.798  0.00  0.00    +0.044 C 
ATOM     29  C   UNL     1      31.979  -9.570 -21.174  0.00  0.00    +0.004 C 
ATOM     30  C   UNL     1      31.581 -10.560 -20.079  0.00  0.00    +0.004 C 
ENDBRANCH  25  26
ENDBRANCH  17  25
ENDBRANCH   2  19
TORSDOF 5
ENDMDL
