MODEL 1
REMARK VINA RESULT:     -10.8      0.000      0.000
REMARK  Name = 5327131
REMARK  4 active torsions:
REMARK  status: ('A' for Active; 'I' for Inactive)
REMARK    1  A    between atoms: N_2  and  C_6
REMARK    2  A    between atoms: N_2  and  C_20
REMARK    3  A    between atoms: C_7  and  C_14
REMARK    4  A    between atoms: C_20  and  C_22
REMARK                            x       y       z     vdW  Elec       q    Type
REMARK                         _______ _______ _______ _____ _____    ______ ____
ROOT
ATOM      1  N   UNL     1      33.785 -15.404 -23.849  0.00  0.00    -0.151 N 
ATOM      2  N   UNL     1      33.382 -14.586 -24.935  0.00  0.00    -0.191 NA
ATOM      3  N   UNL     1      34.610 -17.638 -23.683  0.00  0.00    -0.336 NA
ATOM      4  N   UNL     1      34.007 -16.554 -25.819  0.00  0.00    -0.177 NA
ATOM      5  C   UNL     1      33.828 -15.129 -22.415  0.00  0.00    +0.128 C 
ATOM      6  C   UNL     1      34.647 -17.374 -22.343  0.00  0.00    +0.147 C 
ATOM      7  C   UNL     1      34.288 -16.199 -21.670  0.00  0.00    +0.065 C 
ATOM      8  C   UNL     1      34.161 -16.599 -24.425  0.00  0.00    +0.164 C 
ATOM      9  C   UNL     1      33.536 -15.329 -26.089  0.00  0.00    +0.228 C 
ATOM     10  H   UNL     1      33.053 -13.660 -24.876  0.00  0.00    +0.148 HD
ENDROOT
BRANCH   6  12
ATOM     11 BR   UNL     1      33.458 -21.681 -19.472  0.00  0.00    -0.049 Br
ATOM     12  C   UNL     1      35.128 -18.496 -21.564  0.00  0.00    +0.031 C 
ATOM     13  C   UNL     1      34.221 -19.389 -20.995  0.00  0.00    +0.009 C 
ATOM     14  C   UNL     1      36.499 -18.683 -21.386  0.00  0.00    +0.003 C 
ATOM     15  C   UNL     1      34.685 -20.470 -20.246  0.00  0.00    +0.035 C 
ATOM     16  C   UNL     1      36.962 -19.764 -20.637  0.00  0.00    +0.001 C 
ATOM     17  C   UNL     1      36.056 -20.657 -20.067  0.00  0.00    +0.007 C 
ENDBRANCH   6  12
BRANCH   5  18
ATOM     18  N   UNL     1      33.441 -13.904 -21.882  0.00  0.00    -0.316 N 
ATOM     19  H   UNL     1      34.111 -13.184 -21.835  0.00  0.00    +0.148 HD
BRANCH  18  20
ATOM     20  C   UNL     1      32.112 -13.631 -21.397  0.00  0.00    +0.115 C 
BRANCH  20  22
ATOM     21  N   UNL     1      31.590  -9.431 -20.721  0.00  0.00    -0.242 NA
ATOM     22  C   UNL     1      31.929 -12.158 -21.160  0.00  0.00    +0.000 C 
ATOM     23  C   UNL     1      31.983 -11.280 -22.228  0.00  0.00    +0.018 C 
ATOM     24  C   UNL     1      31.707 -11.693 -19.875  0.00  0.00    +0.018 C 
ATOM     25  C   UNL     1      31.809  -9.932 -21.957  0.00  0.00    +0.099 C 
ATOM     26  C   UNL     1      31.546 -10.327 -19.709  0.00  0.00    +0.099 C 
ENDBRANCH  20  22
ENDBRANCH  18  20
ENDBRANCH   5  18
TORSDOF 4
ENDMDL
MODEL 2
REMARK VINA RESULT:     -10.8      6.946     10.184
REMARK  Name = 5327131
REMARK  4 active torsions:
REMARK  status: ('A' for Active; 'I' for Inactive)
REMARK    1  A    between atoms: N_2  and  C_6
REMARK    2  A    between atoms: N_2  and  C_20
REMARK    3  A    between atoms: C_7  and  C_14
REMARK    4  A    between atoms: C_20  and  C_22
REMARK                            x       y       z     vdW  Elec       q    Type
REMARK                         _______ _______ _______ _____ _____    ______ ____
ROOT
ATOM      1  N   UNL     1      31.549 -23.031 -16.418  0.00  0.00    -0.151 N 
ATOM      2  N   UNL     1      30.264 -22.665 -16.891  0.00  0.00    -0.191 NA
ATOM      3  N   UNL     1      32.378 -23.793 -14.313  0.00  0.00    -0.336 NA
ATOM      4  N   UNL     1      30.006 -23.250 -14.738  0.00  0.00    -0.177 NA
ATOM      5  C   UNL     1      32.841 -23.060 -17.098  0.00  0.00    +0.128 C 
ATOM      6  C   UNL     1      33.583 -23.817 -14.956  0.00  0.00    +0.147 C 
ATOM      7  C   UNL     1      33.876 -23.480 -16.284  0.00  0.00    +0.065 C 
ATOM      8  C   UNL     1      31.355 -23.382 -15.098  0.00  0.00    +0.164 C 
ATOM      9  C   UNL     1      29.379 -22.816 -15.840  0.00  0.00    +0.228 C 
ATOM     10  H   UNL     1      30.042 -22.360 -17.801  0.00  0.00    +0.148 HD
ENDROOT
BRANCH   6  12
ATOM     11 BR   UNL     1      38.457 -25.895 -14.595  0.00  0.00    -0.049 Br
ATOM     12  C   UNL     1      34.665 -24.257 -14.100  0.00  0.00    +0.031 C 
ATOM     13  C   UNL     1      35.832 -24.773 -14.661  0.00  0.00    +0.009 C 
ATOM     14  C   UNL     1      34.538 -24.163 -12.714  0.00  0.00    +0.003 C 
ATOM     15  C   UNL     1      36.874 -25.195 -13.836  0.00  0.00    +0.035 C 
ATOM     16  C   UNL     1      35.580 -24.586 -11.889  0.00  0.00    +0.001 C 
ATOM     17  C   UNL     1      36.747 -25.102 -12.450  0.00  0.00    +0.007 C 
ENDBRANCH   6  12
BRANCH   5  18
ATOM     18  N   UNL     1      32.985 -22.698 -18.434  0.00  0.00    -0.316 N 
ATOM     19  H   UNL     1      32.170 -22.576 -18.974  0.00  0.00    +0.148 HD
BRANCH  18  20
ATOM     20  C   UNL     1      34.261 -22.489 -19.070  0.00  0.00    +0.115 C 
BRANCH  20  22
ATOM     21  N   UNL     1      34.259 -18.819 -21.283  0.00  0.00    -0.242 NA
ATOM     22  C   UNL     1      34.260 -21.202 -19.846  0.00  0.00    +0.000 C 
ATOM     23  C   UNL     1      33.060 -20.574 -20.130  0.00  0.00    +0.018 C 
ATOM     24  C   UNL     1      35.460 -20.656 -20.269  0.00  0.00    +0.018 C 
ATOM     25  C   UNL     1      33.113 -19.390 -20.848  0.00  0.00    +0.099 C 
ATOM     26  C   UNL     1      35.405 -19.470 -20.981  0.00  0.00    +0.099 C 
ENDBRANCH  20  22
ENDBRANCH  18  20
ENDBRANCH   5  18
TORSDOF 4
ENDMDL
MODEL 3
REMARK VINA RESULT:     -10.7      2.974      7.510
REMARK  Name = 5327131
REMARK  4 active torsions:
REMARK  status: ('A' for Active; 'I' for Inactive)
REMARK    1  A    between atoms: N_2  and  C_6
REMARK    2  A    between atoms: N_2  and  C_20
REMARK    3  A    between atoms: C_7  and  C_14
REMARK    4  A    between atoms: C_20  and  C_22
REMARK                            x       y       z     vdW  Elec       q    Type
REMARK                         _______ _______ _______ _____ _____    ______ ____
ROOT
ATOM      1  N   UNL     1      34.637 -17.276 -23.430  0.00  0.00    -0.151 N 
ATOM      2  N   UNL     1      34.958 -18.571 -23.910  0.00  0.00    -0.191 NA
ATOM      3  N   UNL     1      33.732 -15.315 -24.446  0.00  0.00    -0.336 NA
ATOM      4  N   UNL     1      34.149 -17.423 -25.663  0.00  0.00    -0.177 NA
ATOM      5  C   UNL     1      34.764 -16.699 -22.094  0.00  0.00    +0.128 C 
ATOM      6  C   UNL     1      33.853 -14.782 -23.194  0.00  0.00    +0.147 C 
ATOM      7  C   UNL     1      34.338 -15.385 -22.026  0.00  0.00    +0.065 C 
ATOM      8  C   UNL     1      34.146 -16.601 -24.527  0.00  0.00    +0.164 C 
ATOM      9  C   UNL     1      34.644 -18.600 -25.255  0.00  0.00    +0.228 C 
ATOM     10  H   UNL     1      35.334 -19.312 -23.382  0.00  0.00    +0.148 HD
ENDROOT
BRANCH   6  12
ATOM     11 BR   UNL     1      30.766 -11.176 -20.811  0.00  0.00    -0.049 Br
ATOM     12  C   UNL     1      33.408 -13.405 -23.127  0.00  0.00    +0.031 C 
ATOM     13  C   UNL     1      32.468 -13.022 -22.170  0.00  0.00    +0.009 C 
ATOM     14  C   UNL     1      33.920 -12.464 -24.019  0.00  0.00    +0.003 C 
ATOM     15  C   UNL     1      32.040 -11.697 -22.106  0.00  0.00    +0.035 C 
ATOM     16  C   UNL     1      33.492 -11.138 -23.955  0.00  0.00    +0.001 C 
ATOM     17  C   UNL     1      32.552 -10.755 -22.999  0.00  0.00    +0.007 C 
ENDBRANCH   6  12
BRANCH   5  18
ATOM     18  N   UNL     1      35.264 -17.423 -21.016  0.00  0.00    -0.316 N 
ATOM     19  H   UNL     1      35.086 -17.087 -20.107  0.00  0.00    +0.148 HD
BRANCH  18  20
ATOM     20  C   UNL     1      36.026 -18.637 -21.157  0.00  0.00    +0.115 C 
BRANCH  20  22
ATOM     21  N   UNL     1      33.909 -21.949 -19.448  0.00  0.00    -0.242 NA
ATOM     22  C   UNL     1      35.283 -19.798 -20.558  0.00  0.00    +0.000 C 
ATOM     23  C   UNL     1      33.902 -19.840 -20.629  0.00  0.00    +0.018 C 
ATOM     24  C   UNL     1      35.989 -20.818 -19.941  0.00  0.00    +0.018 C 
ATOM     25  C   UNL     1      33.265 -20.931 -20.061  0.00  0.00    +0.099 C 
ATOM     26  C   UNL     1      35.258 -21.865 -19.404  0.00  0.00    +0.099 C 
ENDBRANCH  20  22
ENDBRANCH  18  20
ENDBRANCH   5  18
TORSDOF 4
ENDMDL
MODEL 4
REMARK VINA RESULT:     -10.7      6.872     10.097
REMARK  Name = 5327131
REMARK  4 active torsions:
REMARK  status: ('A' for Active; 'I' for Inactive)
REMARK    1  A    between atoms: N_2  and  C_6
REMARK    2  A    between atoms: N_2  and  C_20
REMARK    3  A    between atoms: C_7  and  C_14
REMARK    4  A    between atoms: C_20  and  C_22
REMARK                            x       y       z     vdW  Elec       q    Type
REMARK                         _______ _______ _______ _____ _____    ______ ____
ROOT
ATOM      1  N   UNL     1      31.383 -22.899 -16.585  0.00  0.00    -0.151 N 
ATOM      2  N   UNL     1      30.086 -22.487 -16.982  0.00  0.00    -0.191 NA
ATOM      3  N   UNL     1      32.268 -23.881 -14.597  0.00  0.00    -0.336 NA
ATOM      4  N   UNL     1      29.886 -23.301 -14.898  0.00  0.00    -0.177 NA
ATOM      5  C   UNL     1      32.657 -22.852 -17.299  0.00  0.00    +0.128 C 
ATOM      6  C   UNL     1      33.456 -23.834 -15.271  0.00  0.00    +0.147 C 
ATOM      7  C   UNL     1      33.713 -23.355 -16.562  0.00  0.00    +0.065 C 
ATOM      8  C   UNL     1      31.225 -23.391 -15.306  0.00  0.00    +0.164 C 
ATOM      9  C   UNL     1      29.230 -22.753 -15.930  0.00  0.00    +0.228 C 
ATOM     10  H   UNL     1      29.841 -22.087 -17.847  0.00  0.00    +0.148 HD
ENDROOT
BRANCH   6  12
ATOM     11 BR   UNL     1      35.784 -24.299 -10.520  0.00  0.00    -0.049 Br
ATOM     12  C   UNL     1      34.560 -24.360 -14.496  0.00  0.00    +0.031 C 
ATOM     13  C   UNL     1      34.627 -24.119 -13.125  0.00  0.00    +0.009 C 
ATOM     14  C   UNL     1      35.556 -25.109 -15.124  0.00  0.00    +0.003 C 
ATOM     15  C   UNL     1      35.691 -24.626 -12.379  0.00  0.00    +0.035 C 
ATOM     16  C   UNL     1      36.619 -25.616 -14.378  0.00  0.00    +0.001 C 
ATOM     17  C   UNL     1      36.687 -25.374 -13.006  0.00  0.00    +0.007 C 
ENDBRANCH   6  12
BRANCH   5  18
ATOM     18  N   UNL     1      32.765 -22.348 -18.591  0.00  0.00    -0.316 N 
ATOM     19  H   UNL     1      32.004 -21.844 -18.960  0.00  0.00    +0.148 HD
BRANCH  18  20
ATOM     20  C   UNL     1      33.931 -22.523 -19.420  0.00  0.00    +0.115 C 
BRANCH  20  22
ATOM     21  N   UNL     1      35.253 -18.754 -20.974  0.00  0.00    -0.242 NA
ATOM     22  C   UNL     1      34.394 -21.201 -19.965  0.00  0.00    +0.000 C 
ATOM     23  C   UNL     1      33.465 -20.289 -20.433  0.00  0.00    +0.018 C 
ATOM     24  C   UNL     1      35.747 -20.908 -19.992  0.00  0.00    +0.018 C 
ATOM     25  C   UNL     1      33.944 -19.085 -20.925  0.00  0.00    +0.099 C 
ATOM     26  C   UNL     1      36.123 -19.677 -20.505  0.00  0.00    +0.099 C 
ENDBRANCH  20  22
ENDBRANCH  18  20
ENDBRANCH   5  18
TORSDOF 4
ENDMDL
MODEL 5
REMARK VINA RESULT:     -10.6      6.283      9.691
REMARK  Name = 5327131
REMARK  4 active torsions:
REMARK  status: ('A' for Active; 'I' for Inactive)
REMARK    1  A    between atoms: N_2  and  C_6
REMARK    2  A    between atoms: N_2  and  C_20
REMARK    3  A    between atoms: C_7  and  C_14
REMARK    4  A    between atoms: C_20  and  C_22
REMARK                            x       y       z     vdW  Elec       q    Type
REMARK                         _______ _______ _______ _____ _____    ______ ____
ROOT
ATOM      1  N   UNL     1      35.213 -22.798 -16.742  0.00  0.00    -0.151 N 
ATOM      2  N   UNL     1      36.611 -22.563 -16.719  0.00  0.00    -0.191 NA
ATOM      3  N   UNL     1      33.640 -23.559 -15.117  0.00  0.00    -0.336 NA
ATOM      4  N   UNL     1      36.052 -23.278 -14.665  0.00  0.00    -0.177 NA
ATOM      5  C   UNL     1      34.240 -22.641 -17.820  0.00  0.00    +0.128 C 
ATOM      6  C   UNL     1      32.735 -23.411 -16.130  0.00  0.00    +0.147 C 
ATOM      7  C   UNL     1      32.953 -22.977 -17.444  0.00  0.00    +0.065 C 
ATOM      8  C   UNL     1      34.905 -23.234 -15.471  0.00  0.00    +0.164 C 
ATOM      9  C   UNL     1      37.059 -22.868 -15.448  0.00  0.00    +0.228 C 
ATOM     10  H   UNL     1      37.161 -22.242 -17.469  0.00  0.00    +0.148 HD
ENDROOT
BRANCH   6  12
ATOM     11 BR   UNL     1      27.534 -22.402 -16.509  0.00  0.00    -0.049 Br
ATOM     12  C   UNL     1      31.388 -23.765 -15.734  0.00  0.00    +0.031 C 
ATOM     13  C   UNL     1      30.303 -23.041 -16.226  0.00  0.00    +0.009 C 
ATOM     14  C   UNL     1      31.178 -24.832 -14.860  0.00  0.00    +0.003 C 
ATOM     15  C   UNL     1      29.006 -23.383 -15.844  0.00  0.00    +0.035 C 
ATOM     16  C   UNL     1      29.881 -25.174 -14.478  0.00  0.00    +0.001 C 
ATOM     17  C   UNL     1      28.795 -24.449 -14.970  0.00  0.00    +0.007 C 
ENDBRANCH   6  12
BRANCH   5  18
ATOM     18  N   UNL     1      34.601 -22.194 -19.087  0.00  0.00    -0.316 N 
ATOM     19  H   UNL     1      35.501 -22.415 -19.420  0.00  0.00    +0.148 HD
BRANCH  18  20
ATOM     20  C   UNL     1      33.729 -21.427 -19.939  0.00  0.00    +0.115 C 
BRANCH  20  22
ATOM     21  N   UNL     1      35.803 -18.041 -21.554  0.00  0.00    -0.242 NA
ATOM     22  C   UNL     1      34.456 -20.239 -20.506  0.00  0.00    +0.000 C 
ATOM     23  C   UNL     1      33.737 -19.198 -21.065  0.00  0.00    +0.018 C 
ATOM     24  C   UNL     1      35.839 -20.198 -20.462  0.00  0.00    +0.018 C 
ATOM     25  C   UNL     1      34.454 -18.127 -21.573  0.00  0.00    +0.099 C 
ATOM     26  C   UNL     1      36.462 -19.083 -20.998  0.00  0.00    +0.099 C 
ENDBRANCH  20  22
ENDBRANCH  18  20
ENDBRANCH   5  18
TORSDOF 4
ENDMDL
MODEL 6
REMARK VINA RESULT:     -10.5      6.817     10.503
REMARK  Name = 5327131
REMARK  4 active torsions:
REMARK  status: ('A' for Active; 'I' for Inactive)
REMARK    1  A    between atoms: N_2  and  C_6
REMARK    2  A    between atoms: N_2  and  C_20
REMARK    3  A    between atoms: C_7  and  C_14
REMARK    4  A    between atoms: C_20  and  C_22
REMARK                            x       y       z     vdW  Elec       q    Type
REMARK                         _______ _______ _______ _____ _____    ______ ____
ROOT
ATOM      1  N   UNL     1      36.886 -23.460 -15.720  0.00  0.00    -0.151 N 
ATOM      2  N   UNL     1      38.299 -23.567 -15.732  0.00  0.00    -0.191 NA
ATOM      3  N   UNL     1      35.154 -24.594 -14.532  0.00  0.00    -0.336 NA
ATOM      4  N   UNL     1      37.558 -25.092 -14.260  0.00  0.00    -0.177 NA
ATOM      5  C   UNL     1      35.992 -22.578 -16.467  0.00  0.00    +0.128 C 
ATOM      6  C   UNL     1      34.324 -23.766 -15.233  0.00  0.00    +0.147 C 
ATOM      7  C   UNL     1      34.656 -22.782 -16.173  0.00  0.00    +0.065 C 
ATOM      8  C   UNL     1      36.465 -24.406 -14.810  0.00  0.00    +0.164 C 
ATOM      9  C   UNL     1      38.645 -24.562 -14.838  0.00  0.00    +0.228 C 
ATOM     10  H   UNL     1      38.920 -23.031 -16.277  0.00  0.00    +0.148 HD
ENDROOT
BRANCH   6  12
ATOM     11 BR   UNL     1      29.252 -22.789 -16.471  0.00  0.00    -0.049 Br
ATOM     12  C   UNL     1      32.926 -23.983 -14.925  0.00  0.00    +0.031 C 
ATOM     13  C   UNL     1      31.939 -23.387 -15.708  0.00  0.00    +0.009 C 
ATOM     14  C   UNL     1      32.569 -24.789 -13.844  0.00  0.00    +0.003 C 
ATOM     15  C   UNL     1      30.592 -23.597 -15.411  0.00  0.00    +0.035 C 
ATOM     16  C   UNL     1      31.222 -24.998 -13.547  0.00  0.00    +0.001 C 
ATOM     17  C   UNL     1      30.234 -24.402 -14.330  0.00  0.00    +0.007 C 
ENDBRANCH   6  12
BRANCH   5  18
ATOM     18  N   UNL     1      36.466 -21.636 -17.373  0.00  0.00    -0.316 N 
ATOM     19  H   UNL     1      36.714 -20.745 -17.033  0.00  0.00    +0.148 HD
BRANCH  18  20
ATOM     20  C   UNL     1      36.614 -21.891 -18.784  0.00  0.00    +0.115 C 
BRANCH  20  22
ATOM     21  N   UNL     1      33.704 -19.686 -21.027  0.00  0.00    -0.242 NA
ATOM     22  C   UNL     1      35.594 -21.118 -19.571  0.00  0.00    +0.000 C 
ATOM     23  C   UNL     1      36.002 -20.081 -20.392  0.00  0.00    +0.018 C 
ATOM     24  C   UNL     1      34.253 -21.449 -19.467  0.00  0.00    +0.018 C 
ATOM     25  C   UNL     1      35.023 -19.399 -21.095  0.00  0.00    +0.099 C 
ATOM     26  C   UNL     1      33.353 -20.706 -20.212  0.00  0.00    +0.099 C 
ENDBRANCH  20  22
ENDBRANCH  18  20
ENDBRANCH   5  18
TORSDOF 4
ENDMDL
MODEL 7
REMARK VINA RESULT:     -10.4      8.077     11.340
REMARK  Name = 5327131
REMARK  4 active torsions:
REMARK  status: ('A' for Active; 'I' for Inactive)
REMARK    1  A    between atoms: N_2  and  C_6
REMARK    2  A    between atoms: N_2  and  C_20
REMARK    3  A    between atoms: C_7  and  C_14
REMARK    4  A    between atoms: C_20  and  C_22
REMARK                            x       y       z     vdW  Elec       q    Type
REMARK                         _______ _______ _______ _____ _____    ______ ____
ROOT
ATOM      1  N   UNL     1      35.926 -24.165 -14.801  0.00  0.00    -0.151 N 
ATOM      2  N   UNL     1      36.637 -24.770 -13.734  0.00  0.00    -0.191 NA
ATOM      3  N   UNL     1      36.578 -22.854 -16.686  0.00  0.00    -0.336 NA
ATOM      4  N   UNL     1      38.167 -23.742 -15.016  0.00  0.00    -0.177 NA
ATOM      5  C   UNL     1      34.497 -24.148 -15.104  0.00  0.00    +0.128 C 
ATOM      6  C   UNL     1      35.240 -22.843 -16.963  0.00  0.00    +0.147 C 
ATOM      7  C   UNL     1      34.192 -23.439 -16.251  0.00  0.00    +0.065 C 
ATOM      8  C   UNL     1      36.892 -23.545 -15.565  0.00  0.00    +0.164 C 
ATOM      9  C   UNL     1      37.976 -24.482 -13.916  0.00  0.00    +0.228 C 
ATOM     10  H   UNL     1      36.248 -25.298 -13.000  0.00  0.00    +0.148 HD
ENDROOT
BRANCH   6  12
ATOM     11 BR   UNL     1      36.947 -19.617 -20.822  0.00  0.00    -0.049 Br
ATOM     12  C   UNL     1      34.924 -22.098 -18.164  0.00  0.00    +0.031 C 
ATOM     13  C   UNL     1      35.913 -21.349 -18.801  0.00  0.00    +0.009 C 
ATOM     14  C   UNL     1      33.629 -22.130 -18.682  0.00  0.00    +0.003 C 
ATOM     15  C   UNL     1      35.608 -20.632 -19.957  0.00  0.00    +0.035 C 
ATOM     16  C   UNL     1      33.324 -21.413 -19.839  0.00  0.00    +0.001 C 
ATOM     17  C   UNL     1      34.313 -20.664 -20.476  0.00  0.00    +0.007 C 
ENDBRANCH   6  12
BRANCH   5  18
ATOM     18  N   UNL     1      33.560 -24.792 -14.302  0.00  0.00    -0.316 N 
ATOM     19  H   UNL     1      33.558 -25.777 -14.287  0.00  0.00    +0.148 HD
BRANCH  18  20
ATOM     20  C   UNL     1      32.594 -24.097 -13.490  0.00  0.00    +0.115 C 
BRANCH  20  22
ATOM     21  N   UNL     1      28.796 -23.948 -15.471  0.00  0.00    -0.242 NA
ATOM     22  C   UNL     1      31.262 -24.044 -14.185  0.00  0.00    +0.000 C 
ATOM     23  C   UNL     1      30.804 -22.844 -14.699  0.00  0.00    +0.018 C 
ATOM     24  C   UNL     1      30.506 -25.198 -14.304  0.00  0.00    +0.018 C 
ATOM     25  C   UNL     1      29.570 -22.849 -15.330  0.00  0.00    +0.099 C 
ATOM     26  C   UNL     1      29.286 -25.097 -14.952  0.00  0.00    +0.099 C 
ENDBRANCH  20  22
ENDBRANCH  18  20
ENDBRANCH   5  18
TORSDOF 4
ENDMDL
MODEL 8
REMARK VINA RESULT:     -10.3      4.812      9.630
REMARK  Name = 5327131
REMARK  4 active torsions:
REMARK  status: ('A' for Active; 'I' for Inactive)
REMARK    1  A    between atoms: N_2  and  C_6
REMARK    2  A    between atoms: N_2  and  C_20
REMARK    3  A    between atoms: C_7  and  C_14
REMARK    4  A    between atoms: C_20  and  C_22
REMARK                            x       y       z     vdW  Elec       q    Type
REMARK                         _______ _______ _______ _____ _____    ______ ____
ROOT
ATOM      1  N   UNL     1      31.841 -10.909 -20.948  0.00  0.00    -0.151 N 
ATOM      2  N   UNL     1      31.437 -11.650 -19.809  0.00  0.00    -0.191 NA
ATOM      3  N   UNL     1      32.343  -8.607 -21.328  0.00  0.00    -0.336 NA
ATOM      4  N   UNL     1      31.658  -9.518 -19.136  0.00  0.00    -0.177 NA
ATOM      5  C   UNL     1      32.092 -11.338 -22.322  0.00  0.00    +0.128 C 
ATOM      6  C   UNL     1      32.576  -9.015 -22.611  0.00  0.00    +0.147 C 
ATOM      7  C   UNL     1      32.475 -10.302 -23.153  0.00  0.00    +0.065 C 
ATOM      8  C   UNL     1      31.967  -9.611 -20.502  0.00  0.00    +0.164 C 
ATOM      9  C   UNL     1      31.344 -10.764 -18.753  0.00  0.00    +0.228 C 
ATOM     10  H   UNL     1      31.256 -12.617 -19.776  0.00  0.00    +0.148 HD
ENDROOT
BRANCH   6  12
ATOM     11 BR   UNL     1      31.248  -4.461 -25.000  0.00  0.00    -0.049 Br
ATOM     12  C   UNL     1      32.976  -7.928 -23.480  0.00  0.00    +0.031 C 
ATOM     13  C   UNL     1      32.078  -6.901 -23.769  0.00  0.00    +0.009 C 
ATOM     14  C   UNL     1      34.259  -7.909 -24.026  0.00  0.00    +0.003 C 
ATOM     15  C   UNL     1      32.463  -5.854 -24.606  0.00  0.00    +0.035 C 
ATOM     16  C   UNL     1      34.644  -6.862 -24.863  0.00  0.00    +0.001 C 
ATOM     17  C   UNL     1      33.746  -5.835 -25.153  0.00  0.00    +0.007 C 
ENDBRANCH   6  12
BRANCH   5  18
ATOM     18  N   UNL     1      31.954 -12.663 -22.723  0.00  0.00    -0.316 N 
ATOM     19  H   UNL     1      31.119 -12.928 -23.173  0.00  0.00    +0.148 HD
BRANCH  18  20
ATOM     20  C   UNL     1      32.966 -13.667 -22.517  0.00  0.00    +0.115 C 
BRANCH  20  22
ATOM     21  N   UNL     1      33.770 -15.766 -26.166  0.00  0.00    -0.242 NA
ATOM     22  C   UNL     1      33.247 -14.403 -23.797  0.00  0.00    +0.000 C 
ATOM     23  C   UNL     1      32.804 -13.881 -24.999  0.00  0.00    +0.018 C 
ATOM     24  C   UNL     1      33.950 -15.596 -23.761  0.00  0.00    +0.018 C 
ATOM     25  C   UNL     1      33.090 -14.598 -26.151  0.00  0.00    +0.099 C 
ATOM     26  C   UNL     1      34.183 -16.235 -24.968  0.00  0.00    +0.099 C 
ENDBRANCH  20  22
ENDBRANCH  18  20
ENDBRANCH   5  18
TORSDOF 4
ENDMDL
MODEL 9
REMARK VINA RESULT:     -10.3      8.053     11.963
REMARK  Name = 5327131
REMARK  4 active torsions:
REMARK  status: ('A' for Active; 'I' for Inactive)
REMARK    1  A    between atoms: N_2  and  C_6
REMARK    2  A    between atoms: N_2  and  C_20
REMARK    3  A    between atoms: C_7  and  C_14
REMARK    4  A    between atoms: C_20  and  C_22
REMARK                            x       y       z     vdW  Elec       q    Type
REMARK                         _______ _______ _______ _____ _____    ______ ____
ROOT
ATOM      1  N   UNL     1      34.827 -22.456 -17.644  0.00  0.00    -0.151 N 
ATOM      2  N   UNL     1      35.826 -21.992 -18.535  0.00  0.00    -0.191 NA
ATOM      3  N   UNL     1      32.488 -22.881 -17.862  0.00  0.00    -0.336 NA
ATOM      4  N   UNL     1      33.910 -22.055 -19.705  0.00  0.00    -0.177 NA
ATOM      5  C   UNL     1      34.911 -22.843 -16.238  0.00  0.00    +0.128 C 
ATOM      6  C   UNL     1      32.574 -23.241 -16.547  0.00  0.00    +0.147 C 
ATOM      7  C   UNL     1      33.698 -23.246 -15.711  0.00  0.00    +0.065 C 
ATOM      8  C   UNL     1      33.668 -22.483 -18.391  0.00  0.00    +0.164 C 
ATOM      9  C   UNL     1      35.218 -21.768 -19.756  0.00  0.00    +0.228 C 
ATOM     10  H   UNL     1      36.778 -21.855 -18.324  0.00  0.00    +0.148 HD
ENDROOT
BRANCH   6  12
ATOM     11 BR   UNL     1      27.345 -22.384 -16.173  0.00  0.00    -0.049 Br
ATOM     12  C   UNL     1      31.302 -23.661 -15.998  0.00  0.00    +0.031 C 
ATOM     13  C   UNL     1      30.143 -22.946 -16.297  0.00  0.00    +0.009 C 
ATOM     14  C   UNL     1      31.238 -24.781 -15.169  0.00  0.00    +0.003 C 
ATOM     15  C   UNL     1      28.918 -23.352 -15.768  0.00  0.00    +0.035 C 
ATOM     16  C   UNL     1      30.012 -25.187 -14.640  0.00  0.00    +0.001 C 
ATOM     17  C   UNL     1      28.853 -24.472 -14.939  0.00  0.00    +0.007 C 
ENDBRANCH   6  12
BRANCH   5  18
ATOM     18  N   UNL     1      36.105 -22.801 -15.527  0.00  0.00    -0.316 N 
ATOM     19  H   UNL     1      36.864 -22.311 -15.919  0.00  0.00    +0.148 HD
BRANCH  18  20
ATOM     20  C   UNL     1      36.293 -23.436 -14.247  0.00  0.00    +0.115 C 
BRANCH  20  22
ATOM     21  N   UNL     1      38.524 -27.069 -14.680  0.00  0.00    -0.242 NA
ATOM     22  C   UNL     1      37.076 -24.710 -14.399  0.00  0.00    +0.000 C 
ATOM     23  C   UNL     1      38.435 -24.714 -14.142  0.00  0.00    +0.018 C 
ATOM     24  C   UNL     1      36.428 -25.868 -14.794  0.00  0.00    +0.018 C 
ATOM     25  C   UNL     1      39.111 -25.914 -14.297  0.00  0.00    +0.099 C 
ATOM     26  C   UNL     1      37.194 -27.016 -14.920  0.00  0.00    +0.099 C 
ENDBRANCH  20  22
ENDBRANCH  18  20
ENDBRANCH   5  18
TORSDOF 4
ENDMDL
