MODEL 1
REMARK VINA RESULT:      -5.7      0.000      0.000
REMARK  Name = 7950
REMARK  0 active torsions:
REMARK  status: ('A' for Active; 'I' for Inactive)
REMARK                            x       y       z     vdW  Elec       q    Type
REMARK                         _______ _______ _______ _____ _____    ______ ____
ROOT
ATOM      1 CL   UNL     1      34.676 -17.348 -25.429  0.00  0.00    -0.082 Cl
ATOM      2 CL   UNL     1      35.649 -20.084 -20.881  0.00  0.00    -0.082 Cl
ATOM      3 CL   UNL     1      34.563 -14.801 -20.672  0.00  0.00    -0.082 Cl
ATOM      4  C   UNL     1      34.834 -17.382 -23.716  0.00  0.00    +0.059 C 
ATOM      5  C   UNL     1      35.270 -18.607 -21.679  0.00  0.00    +0.059 C 
ATOM      6  C   UNL     1      34.784 -16.243 -21.586  0.00  0.00    +0.059 C 
ATOM      7  C   UNL     1      35.142 -18.579 -23.068  0.00  0.00    +0.023 C 
ATOM      8  C   UNL     1      34.655 -16.214 -22.975  0.00  0.00    +0.023 C 
ATOM      9  C   UNL     1      35.091 -17.440 -20.938  0.00  0.00    +0.023 C 
ENDROOT
TORSDOF 0
ENDMDL
MODEL 2
REMARK VINA RESULT:      -5.7      0.010      3.011
REMARK  Name = 7950
REMARK  0 active torsions:
REMARK  status: ('A' for Active; 'I' for Inactive)
REMARK                            x       y       z     vdW  Elec       q    Type
REMARK                         _______ _______ _______ _____ _____    ______ ____
ROOT
ATOM      1 CL   UNL     1      34.670 -17.341 -25.433  0.00  0.00    -0.082 Cl
ATOM      2 CL   UNL     1      34.561 -14.804 -20.671  0.00  0.00    -0.082 Cl
ATOM      3 CL   UNL     1      35.636 -20.089 -20.889  0.00  0.00    -0.082 Cl
ATOM      4  C   UNL     1      34.828 -17.380 -23.720  0.00  0.00    +0.059 C 
ATOM      5  C   UNL     1      34.779 -16.244 -21.587  0.00  0.00    +0.059 C 
ATOM      6  C   UNL     1      35.260 -18.609 -21.686  0.00  0.00    +0.059 C 
ATOM      7  C   UNL     1      34.651 -16.213 -22.976  0.00  0.00    +0.023 C 
ATOM      8  C   UNL     1      35.132 -18.578 -23.075  0.00  0.00    +0.023 C 
ATOM      9  C   UNL     1      35.084 -17.442 -20.942  0.00  0.00    +0.023 C 
ENDROOT
TORSDOF 0
ENDMDL
MODEL 3
REMARK VINA RESULT:      -5.7      0.081      3.690
REMARK  Name = 7950
REMARK  0 active torsions:
REMARK  status: ('A' for Active; 'I' for Inactive)
REMARK                            x       y       z     vdW  Elec       q    Type
REMARK                         _______ _______ _______ _____ _____    ______ ____
ROOT
ATOM      1 CL   UNL     1      34.592 -14.873 -20.660  0.00  0.00    -0.082 Cl
ATOM      2 CL   UNL     1      34.704 -17.412 -25.420  0.00  0.00    -0.082 Cl
ATOM      3 CL   UNL     1      35.595 -20.172 -20.868  0.00  0.00    -0.082 Cl
ATOM      4  C   UNL     1      34.798 -16.316 -21.575  0.00  0.00    +0.059 C 
ATOM      5  C   UNL     1      34.848 -17.453 -23.706  0.00  0.00    +0.059 C 
ATOM      6  C   UNL     1      35.246 -18.688 -21.668  0.00  0.00    +0.059 C 
ATOM      7  C   UNL     1      34.681 -16.284 -22.964  0.00  0.00    +0.023 C 
ATOM      8  C   UNL     1      35.080 -17.518 -20.927  0.00  0.00    +0.023 C 
ATOM      9  C   UNL     1      35.130 -18.655 -23.058  0.00  0.00    +0.023 C 
ENDROOT
TORSDOF 0
ENDMDL
MODEL 4
REMARK VINA RESULT:      -5.7      0.070      3.012
REMARK  Name = 7950
REMARK  0 active torsions:
REMARK  status: ('A' for Active; 'I' for Inactive)
REMARK                            x       y       z     vdW  Elec       q    Type
REMARK                         _______ _______ _______ _____ _____    ______ ____
ROOT
ATOM      1 CL   UNL     1      34.593 -14.863 -20.657  0.00  0.00    -0.082 Cl
ATOM      2 CL   UNL     1      35.586 -20.163 -20.878  0.00  0.00    -0.082 Cl
ATOM      3 CL   UNL     1      34.709 -17.390 -25.425  0.00  0.00    -0.082 Cl
ATOM      4  C   UNL     1      34.797 -16.304 -21.576  0.00  0.00    +0.059 C 
ATOM      5  C   UNL     1      35.242 -18.677 -21.675  0.00  0.00    +0.059 C 
ATOM      6  C   UNL     1      34.849 -17.435 -23.709  0.00  0.00    +0.059 C 
ATOM      7  C   UNL     1      35.076 -17.509 -20.931  0.00  0.00    +0.023 C 
ATOM      8  C   UNL     1      34.683 -16.267 -22.965  0.00  0.00    +0.023 C 
ATOM      9  C   UNL     1      35.128 -18.640 -23.064  0.00  0.00    +0.023 C 
ENDROOT
TORSDOF 0
ENDMDL
MODEL 5
REMARK VINA RESULT:      -5.7      0.125      3.667
REMARK  Name = 7950
REMARK  0 active torsions:
REMARK  status: ('A' for Active; 'I' for Inactive)
REMARK                            x       y       z     vdW  Elec       q    Type
REMARK                         _______ _______ _______ _____ _____    ______ ____
ROOT
ATOM      1 CL   UNL     1      35.401 -20.138 -20.950  0.00  0.00    -0.082 Cl
ATOM      2 CL   UNL     1      34.589 -14.811 -20.658  0.00  0.00    -0.082 Cl
ATOM      3 CL   UNL     1      34.774 -17.252 -25.468  0.00  0.00    -0.082 Cl
ATOM      4  C   UNL     1      35.136 -18.626 -21.728  0.00  0.00    +0.059 C 
ATOM      5  C   UNL     1      34.772 -16.241 -21.598  0.00  0.00    +0.059 C 
ATOM      6  C   UNL     1      34.856 -17.334 -23.750  0.00  0.00    +0.059 C 
ATOM      7  C   UNL     1      34.987 -17.466 -20.967  0.00  0.00    +0.023 C 
ATOM      8  C   UNL     1      35.070 -18.560 -23.120  0.00  0.00    +0.023 C 
ATOM      9  C   UNL     1      34.707 -16.174 -22.989  0.00  0.00    +0.023 C 
ENDROOT
TORSDOF 0
ENDMDL
MODEL 6
REMARK VINA RESULT:      -5.6      0.174      3.010
REMARK  Name = 7950
REMARK  0 active torsions:
REMARK  status: ('A' for Active; 'I' for Inactive)
REMARK                            x       y       z     vdW  Elec       q    Type
REMARK                         _______ _______ _______ _____ _____    ______ ____
ROOT
ATOM      1 CL   UNL     1      35.340 -20.149 -21.026  0.00  0.00    -0.082 Cl
ATOM      2 CL   UNL     1      34.756 -17.166 -25.485  0.00  0.00    -0.082 Cl
ATOM      3 CL   UNL     1      34.592 -14.818 -20.628  0.00  0.00    -0.082 Cl
ATOM      4  C   UNL     1      35.095 -18.618 -21.773  0.00  0.00    +0.059 C 
ATOM      5  C   UNL     1      34.833 -17.282 -23.770  0.00  0.00    +0.059 C 
ATOM      6  C   UNL     1      34.760 -16.233 -21.596  0.00  0.00    +0.059 C 
ATOM      7  C   UNL     1      35.032 -18.523 -23.163  0.00  0.00    +0.023 C 
ATOM      8  C   UNL     1      34.959 -17.473 -20.989  0.00  0.00    +0.023 C 
ATOM      9  C   UNL     1      34.697 -16.137 -22.986  0.00  0.00    +0.023 C 
ENDROOT
TORSDOF 0
ENDMDL
MODEL 7
REMARK VINA RESULT:      -5.5      1.775      4.557
REMARK  Name = 7950
REMARK  0 active torsions:
REMARK  status: ('A' for Active; 'I' for Inactive)
REMARK                            x       y       z     vdW  Elec       q    Type
REMARK                         _______ _______ _______ _____ _____    ______ ____
ROOT
ATOM      1 CL   UNL     1      34.573 -14.995 -21.090  0.00  0.00    -0.082 Cl
ATOM      2 CL   UNL     1      33.308 -14.837 -26.334  0.00  0.00    -0.082 Cl
ATOM      3 CL   UNL     1      35.087 -19.428 -24.125  0.00  0.00    -0.082 Cl
ATOM      4  C   UNL     1      34.435 -15.782 -22.614  0.00  0.00    +0.059 C 
ATOM      5  C   UNL     1      33.868 -15.712 -24.962  0.00  0.00    +0.059 C 
ATOM      6  C   UNL     1      34.665 -17.766 -23.973  0.00  0.00    +0.059 C 
ATOM      7  C   UNL     1      33.981 -15.074 -23.727  0.00  0.00    +0.023 C 
ATOM      8  C   UNL     1      34.777 -17.129 -22.737  0.00  0.00    +0.023 C 
ATOM      9  C   UNL     1      34.211 -17.058 -25.085  0.00  0.00    +0.023 C 
ENDROOT
TORSDOF 0
ENDMDL
MODEL 8
REMARK VINA RESULT:      -5.5      1.781      3.587
REMARK  Name = 7950
REMARK  0 active torsions:
REMARK  status: ('A' for Active; 'I' for Inactive)
REMARK                            x       y       z     vdW  Elec       q    Type
REMARK                         _______ _______ _______ _____ _____    ______ ____
ROOT
ATOM      1 CL   UNL     1      33.312 -14.828 -26.343  0.00  0.00    -0.082 Cl
ATOM      2 CL   UNL     1      34.606 -14.986 -21.107  0.00  0.00    -0.082 Cl
ATOM      3 CL   UNL     1      35.076 -19.427 -24.137  0.00  0.00    -0.082 Cl
ATOM      4  C   UNL     1      33.875 -15.704 -24.973  0.00  0.00    +0.059 C 
ATOM      5  C   UNL     1      34.455 -15.775 -22.628  0.00  0.00    +0.059 C 
ATOM      6  C   UNL     1      34.664 -17.762 -23.985  0.00  0.00    +0.059 C 
ATOM      7  C   UNL     1      33.998 -15.065 -23.739  0.00  0.00    +0.023 C 
ATOM      8  C   UNL     1      34.208 -17.052 -25.096  0.00  0.00    +0.023 C 
ATOM      9  C   UNL     1      34.788 -17.123 -22.752  0.00  0.00    +0.023 C 
ENDROOT
TORSDOF 0
ENDMDL
MODEL 9
REMARK VINA RESULT:      -5.5      1.778      3.590
REMARK  Name = 7950
REMARK  0 active torsions:
REMARK  status: ('A' for Active; 'I' for Inactive)
REMARK                            x       y       z     vdW  Elec       q    Type
REMARK                         _______ _______ _______ _____ _____    ______ ____
ROOT
ATOM      1 CL   UNL     1      35.113 -19.375 -24.029  0.00  0.00    -0.082 Cl
ATOM      2 CL   UNL     1      34.573 -14.834 -21.164  0.00  0.00    -0.082 Cl
ATOM      3 CL   UNL     1      33.294 -14.884 -26.407  0.00  0.00    -0.082 Cl
ATOM      4  C   UNL     1      34.678 -17.712 -23.940  0.00  0.00    +0.059 C 
ATOM      5  C   UNL     1      34.437 -15.679 -22.657  0.00  0.00    +0.059 C 
ATOM      6  C   UNL     1      33.865 -15.702 -25.004  0.00  0.00    +0.059 C 
ATOM      7  C   UNL     1      34.789 -17.027 -22.730  0.00  0.00    +0.023 C 
ATOM      8  C   UNL     1      34.216 -17.050 -25.077  0.00  0.00    +0.023 C 
ATOM      9  C   UNL     1      33.975 -15.016 -23.794  0.00  0.00    +0.023 C 
ENDROOT
TORSDOF 0
ENDMDL
