MODEL 1
REMARK VINA RESULT:      -9.1      0.000      0.000
REMARK  Name = 6398761
REMARK  9 active torsions:
REMARK  status: ('A' for Active; 'I' for Inactive)
REMARK    1  A    between atoms: C_3  and  C_24
REMARK    2  A    between atoms: C_11  and  C_12
REMARK    3  A    between atoms: C_16  and  O_20
REMARK    4  A    between atoms: C_17  and  O_22
REMARK    5  A    between atoms: C_24  and  O_26
REMARK    6  A    between atoms: O_26  and  C_27
REMARK    7  A    between atoms: C_27  and  C_28
REMARK    8  A    between atoms: C_28  and  C_29
REMARK    9  A    between atoms: C_29  and  O_32
REMARK                            x       y       z     vdW  Elec       q    Type
REMARK                         _______ _______ _______ _____ _____    ______ ____
ROOT
ATOM      1  C   UNL     1      33.888 -15.893 -22.518  0.00  0.00    +0.006 C 
ATOM      2  C   UNL     1      32.591 -15.111 -22.192  0.00  0.00    +0.018 C 
ATOM      3  C   UNL     1      33.536 -17.254 -21.867  0.00  0.00    +0.028 C 
ATOM      4  C   UNL     1      32.362 -15.414 -20.709  0.00  0.00    +0.004 C 
ATOM      5  C   UNL     1      32.846 -16.865 -20.539  0.00  0.00    +0.003 C 
ATOM      6  C   UNL     1      34.054 -15.946 -24.050  0.00  0.00    +0.001 C 
ATOM      7  C   UNL     1      32.648 -13.708 -22.730  0.00  0.00    -0.045 C 
ATOM      8  C   UNL     1      35.155 -15.271 -21.878  0.00  0.00    +0.000 C 
ATOM      9  C   UNL     1      34.066 -14.537 -24.670  0.00  0.00    +0.004 C 
ATOM     10  C   UNL     1      32.879 -13.666 -24.228  0.00  0.00    +0.022 C 
ATOM     11  C   UNL     1      32.506 -12.595 -21.998  0.00  0.00    -0.009 C 
ENDROOT
BRANCH  11  12
ATOM     12  C   UNL     1      32.559 -11.267 -22.559  0.00  0.00    -0.005 C 
ATOM     13  C   UNL     1      32.016 -10.194 -21.964  0.00  0.00    -0.021 C 
ATOM     14  C   UNL     1      32.129  -8.812 -22.559  0.00  0.00    +0.055 C 
ATOM     15  C   UNL     1      31.314 -10.265 -20.685  0.00  0.00    +0.000 C 
ATOM     16  C   UNL     1      32.622  -7.782 -21.540  0.00  0.00    +0.118 C 
ATOM     17  C   UNL     1      31.710  -9.224 -19.662  0.00  0.00    +0.135 C 
ATOM     18  C   UNL     1      31.765  -7.818 -20.269  0.00  0.00    +0.063 C 
ATOM     19  C   UNL     1      30.339 -11.155 -20.441  0.00  0.00    -0.003 C 
BRANCH  16  20
ATOM     20  O   UNL     1      32.546  -6.488 -22.128  0.00  0.00    -0.384 OA
ATOM     21  H   UNL     1      32.002  -6.530 -22.930  0.00  0.00    +0.210 HD
ENDBRANCH  16  20
BRANCH  17  22
ATOM     22  O   UNL     1      32.996  -9.572 -19.145  0.00  0.00    -0.380 OA
ATOM     23  H   UNL     1      33.551  -9.912 -19.863  0.00  0.00    +0.211 HD
ENDBRANCH  17  22
ENDBRANCH  11  12
BRANCH   3  24
ATOM     24  C   UNL     1      34.686 -18.231 -21.674  0.00  0.00    +0.115 C 
ATOM     25  C   UNL     1      34.792 -19.216 -22.828  0.00  0.00    +0.032 C 
BRANCH  24  26
ATOM     26  O   UNL     1      34.491 -18.949 -20.460  0.00  0.00    -0.356 OA
BRANCH  26  27
ATOM     27  C   UNL     1      34.604 -20.350 -20.662  0.00  0.00    +0.144 C 
BRANCH  27  28
ATOM     28  C   UNL     1      33.532 -21.072 -19.847  0.00  0.00    +0.059 C 
BRANCH  28  29
ATOM     29  C   UNL     1      34.046 -22.276 -19.035  0.00  0.00    +0.091 C 
ATOM     30  C   UNL     1      33.101 -22.653 -17.893  0.00  0.00    +0.029 C 
ATOM     31  C   UNL     1      35.438 -21.973 -18.475  0.00  0.00    +0.029 C 
BRANCH  29  32
ATOM     32  O   UNL     1      34.155 -23.414 -19.894  0.00  0.00    -0.387 OA
ATOM     33  H   UNL     1      33.728 -23.220 -20.743  0.00  0.00    +0.210 HD
ENDBRANCH  29  32
ENDBRANCH  28  29
ENDBRANCH  27  28
ENDBRANCH  26  27
ENDBRANCH  24  26
ENDBRANCH   3  24
TORSDOF 9
ENDMDL
MODEL 2
REMARK VINA RESULT:      -8.3      2.819      5.609
REMARK  Name = 6398761
REMARK  9 active torsions:
REMARK  status: ('A' for Active; 'I' for Inactive)
REMARK    1  A    between atoms: C_3  and  C_24
REMARK    2  A    between atoms: C_11  and  C_12
REMARK    3  A    between atoms: C_16  and  O_20
REMARK    4  A    between atoms: C_17  and  O_22
REMARK    5  A    between atoms: C_24  and  O_26
REMARK    6  A    between atoms: O_26  and  C_27
REMARK    7  A    between atoms: C_27  and  C_28
REMARK    8  A    between atoms: C_28  and  C_29
REMARK    9  A    between atoms: C_29  and  O_32
REMARK                            x       y       z     vdW  Elec       q    Type
REMARK                         _______ _______ _______ _____ _____    ______ ____
ROOT
ATOM      1  C   UNL     1      32.094 -11.705 -21.710  0.00  0.00    +0.006 C 
ATOM      2  C   UNL     1      32.825 -10.629 -22.551  0.00  0.00    +0.018 C 
ATOM      3  C   UNL     1      32.959 -12.939 -22.068  0.00  0.00    +0.028 C 
ATOM      4  C   UNL     1      32.986 -11.300 -23.917  0.00  0.00    +0.004 C 
ATOM      5  C   UNL     1      33.219 -12.784 -23.585  0.00  0.00    +0.003 C 
ATOM      6  C   UNL     1      32.161 -11.293 -20.226  0.00  0.00    +0.001 C 
ATOM      7  C   UNL     1      32.185  -9.278 -22.385  0.00  0.00    -0.045 C 
ATOM      8  C   UNL     1      30.616 -11.910 -22.128  0.00  0.00    +0.000 C 
ATOM      9  C   UNL     1      31.567  -9.891 -19.998  0.00  0.00    +0.004 C 
ATOM     10  C   UNL     1      32.146  -8.824 -20.940  0.00  0.00    +0.022 C 
ATOM     11  C   UNL     1      31.699  -8.527 -23.384  0.00  0.00    -0.009 C 
ENDROOT
BRANCH  11  12
ATOM     12  C   UNL     1      31.101  -7.231 -23.179  0.00  0.00    -0.005 C 
ATOM     13  C   UNL     1      31.666  -6.085 -23.592  0.00  0.00    -0.021 C 
ATOM     14  C   UNL     1      30.990  -4.750 -23.400  0.00  0.00    +0.055 C 
ATOM     15  C   UNL     1      32.947  -6.038 -24.292  0.00  0.00    +0.000 C 
ATOM     16  C   UNL     1      30.944  -3.934 -24.693  0.00  0.00    +0.118 C 
ATOM     17  C   UNL     1      32.980  -5.186 -25.541  0.00  0.00    +0.135 C 
ATOM     18  C   UNL     1      32.341  -3.813 -25.312  0.00  0.00    +0.063 C 
ATOM     19  C   UNL     1      34.046  -6.660 -23.835  0.00  0.00    -0.003 C 
BRANCH  16  20
ATOM     20  O   UNL     1      30.442  -2.635 -24.393  0.00  0.00    -0.384 OA
ATOM     21  H   UNL     1      31.079  -1.967 -24.692  0.00  0.00    +0.210 HD
ENDBRANCH  16  20
BRANCH  17  22
ATOM     22  O   UNL     1      32.273  -5.877 -26.572  0.00  0.00    -0.380 OA
ATOM     23  H   UNL     1      31.324  -5.695 -26.491  0.00  0.00    +0.211 HD
ENDBRANCH  17  22
ENDBRANCH  11  12
BRANCH   3  24
ATOM     24  C   UNL     1      32.385 -14.299 -21.701  0.00  0.00    +0.115 C 
ATOM     25  C   UNL     1      32.694 -14.674 -20.260  0.00  0.00    +0.032 C 
BRANCH  24  26
ATOM     26  O   UNL     1      32.929 -15.287 -22.570  0.00  0.00    -0.356 OA
BRANCH  26  27
ATOM     27  C   UNL     1      34.007 -15.980 -21.959  0.00  0.00    +0.144 C 
BRANCH  27  28
ATOM     28  C   UNL     1      34.944 -16.522 -23.037  0.00  0.00    +0.059 C 
BRANCH  28  29
ATOM     29  C   UNL     1      35.193 -18.040 -22.967  0.00  0.00    +0.091 C 
ATOM     30  C   UNL     1      34.680 -18.771 -24.207  0.00  0.00    +0.029 C 
ATOM     31  C   UNL     1      34.531 -18.621 -21.714  0.00  0.00    +0.029 C 
BRANCH  29  32
ATOM     32  O   UNL     1      36.599 -18.286 -22.875  0.00  0.00    -0.387 OA
ATOM     33  H   UNL     1      36.939 -18.544 -23.746  0.00  0.00    +0.210 HD
ENDBRANCH  29  32
ENDBRANCH  28  29
ENDBRANCH  27  28
ENDBRANCH  26  27
ENDBRANCH  24  26
ENDBRANCH   3  24
TORSDOF 9
ENDMDL
MODEL 3
REMARK VINA RESULT:      -7.6      3.521     11.504
REMARK  Name = 6398761
REMARK  9 active torsions:
REMARK  status: ('A' for Active; 'I' for Inactive)
REMARK    1  A    between atoms: C_3  and  C_24
REMARK    2  A    between atoms: C_11  and  C_12
REMARK    3  A    between atoms: C_16  and  O_20
REMARK    4  A    between atoms: C_17  and  O_22
REMARK    5  A    between atoms: C_24  and  O_26
REMARK    6  A    between atoms: O_26  and  C_27
REMARK    7  A    between atoms: C_27  and  C_28
REMARK    8  A    between atoms: C_28  and  C_29
REMARK    9  A    between atoms: C_29  and  O_32
REMARK                            x       y       z     vdW  Elec       q    Type
REMARK                         _______ _______ _______ _____ _____    ______ ____
ROOT
ATOM      1  C   UNL     1      32.003  -7.821 -21.858  0.00  0.00    +0.006 C 
ATOM      2  C   UNL     1      31.072  -9.033 -22.107  0.00  0.00    +0.018 C 
ATOM      3  C   UNL     1      31.331  -6.786 -22.794  0.00  0.00    +0.028 C 
ATOM      4  C   UNL     1      30.958  -9.080 -23.632  0.00  0.00    +0.004 C 
ATOM      5  C   UNL     1      30.980  -7.602 -24.060  0.00  0.00    +0.003 C 
ATOM      6  C   UNL     1      31.940  -7.457 -20.361  0.00  0.00    +0.001 C 
ATOM      7  C   UNL     1      31.495 -10.224 -21.292  0.00  0.00    -0.045 C 
ATOM      8  C   UNL     1      33.474  -8.083 -22.268  0.00  0.00    +0.000 C 
ATOM      9  C   UNL     1      32.312  -8.654 -19.468  0.00  0.00    +0.004 C 
ATOM     10  C   UNL     1      31.528  -9.932 -19.805  0.00  0.00    +0.022 C 
ATOM     11  C   UNL     1      31.808 -11.428 -21.790  0.00  0.00    -0.009 C 
ENDROOT
BRANCH  11  12
ATOM     12  C   UNL     1      32.201 -12.546 -20.969  0.00  0.00    -0.005 C 
ATOM     13  C   UNL     1      32.682 -13.695 -21.469  0.00  0.00    -0.021 C 
ATOM     14  C   UNL     1      33.125 -14.828 -20.578  0.00  0.00    +0.055 C 
ATOM     15  C   UNL     1      32.857 -13.926 -22.901  0.00  0.00    +0.000 C 
ATOM     16  C   UNL     1      34.519 -15.341 -20.943  0.00  0.00    +0.118 C 
ATOM     17  C   UNL     1      34.192 -14.502 -23.314  0.00  0.00    +0.135 C 
ATOM     18  C   UNL     1      34.600 -15.688 -22.434  0.00  0.00    +0.063 C 
ATOM     19  C   UNL     1      31.881 -13.701 -23.796  0.00  0.00    -0.003 C 
BRANCH  16  20
ATOM     20  O   UNL     1      34.793 -16.505 -20.169  0.00  0.00    -0.384 OA
ATOM     21  H   UNL     1      35.751 -16.597 -20.053  0.00  0.00    +0.210 HD
ENDBRANCH  16  20
BRANCH  17  22
ATOM     22  O   UNL     1      35.175 -13.470 -23.211  0.00  0.00    -0.380 OA
ATOM     23  H   UNL     1      35.235 -12.996 -24.055  0.00  0.00    +0.211 HD
ENDBRANCH  17  22
ENDBRANCH  11  12
BRANCH   3  24
ATOM     24  C   UNL     1      32.131  -5.529 -23.102  0.00  0.00    +0.115 C 
ATOM     25  C   UNL     1      31.412  -4.273 -22.635  0.00  0.00    +0.032 C 
BRANCH  24  26
ATOM     26  O   UNL     1      32.354  -5.448 -24.506  0.00  0.00    -0.356 OA
BRANCH  26  27
ATOM     27  C   UNL     1      32.133  -4.132 -24.992  0.00  0.00    +0.144 C 
BRANCH  27  28
ATOM     28  C   UNL     1      31.986  -4.166 -26.512  0.00  0.00    +0.059 C 
BRANCH  28  29
ATOM     29  C   UNL     1      33.318  -4.153 -27.286  0.00  0.00    +0.091 C 
ATOM     30  C   UNL     1      34.036  -2.807 -27.185  0.00  0.00    +0.029 C 
ATOM     31  C   UNL     1      33.071  -4.498 -28.757  0.00  0.00    +0.029 C 
BRANCH  29  32
ATOM     32  O   UNL     1      34.190  -5.146 -26.742  0.00  0.00    -0.387 OA
ATOM     33  H   UNL     1      35.043  -5.115 -27.203  0.00  0.00    +0.210 HD
ENDBRANCH  29  32
ENDBRANCH  28  29
ENDBRANCH  27  28
ENDBRANCH  26  27
ENDBRANCH  24  26
ENDBRANCH   3  24
TORSDOF 9
ENDMDL
MODEL 4
REMARK VINA RESULT:      -7.1      3.206     11.358
REMARK  Name = 6398761
REMARK  9 active torsions:
REMARK  status: ('A' for Active; 'I' for Inactive)
REMARK    1  A    between atoms: C_3  and  C_24
REMARK    2  A    between atoms: C_11  and  C_12
REMARK    3  A    between atoms: C_16  and  O_20
REMARK    4  A    between atoms: C_17  and  O_22
REMARK    5  A    between atoms: C_24  and  O_26
REMARK    6  A    between atoms: O_26  and  C_27
REMARK    7  A    between atoms: C_27  and  C_28
REMARK    8  A    between atoms: C_28  and  C_29
REMARK    9  A    between atoms: C_29  and  O_32
REMARK                            x       y       z     vdW  Elec       q    Type
REMARK                         _______ _______ _______ _____ _____    ______ ____
ROOT
ATOM      1  C   UNL     1      32.381  -9.565 -22.767  0.00  0.00    +0.006 C 
ATOM      2  C   UNL     1      32.935 -10.796 -23.527  0.00  0.00    +0.018 C 
ATOM      3  C   UNL     1      32.659  -8.467 -23.823  0.00  0.00    +0.028 C 
ATOM      4  C   UNL     1      34.290 -10.309 -24.042  0.00  0.00    +0.004 C 
ATOM      5  C   UNL     1      34.060  -8.823 -24.371  0.00  0.00    +0.003 C 
ATOM      6  C   UNL     1      30.885  -9.802 -22.477  0.00  0.00    +0.001 C 
ATOM      7  C   UNL     1      32.783 -12.053 -22.716  0.00  0.00    -0.045 C 
ATOM      8  C   UNL     1      33.129  -9.277 -21.441  0.00  0.00    +0.000 C 
ATOM      9  C   UNL     1      30.658 -11.107 -21.692  0.00  0.00    +0.004 C 
ATOM     10  C   UNL     1      31.344 -12.327 -22.326  0.00  0.00    +0.022 C 
ATOM     11  C   UNL     1      33.786 -12.869 -22.363  0.00  0.00    -0.009 C 
ENDROOT
BRANCH  11  12
ATOM     12  C   UNL     1      33.593 -14.071 -21.590  0.00  0.00    -0.005 C 
ATOM     13  C   UNL     1      33.582 -15.300 -22.130  0.00  0.00    -0.021 C 
ATOM     14  C   UNL     1      33.422 -16.539 -21.285  0.00  0.00    +0.055 C 
ATOM     15  C   UNL     1      33.765 -15.542 -23.559  0.00  0.00    +0.000 C 
ATOM     16  C   UNL     1      34.492 -17.590 -21.590  0.00  0.00    +0.118 C 
ATOM     17  C   UNL     1      34.760 -16.623 -23.919  0.00  0.00    +0.135 C 
ATOM     18  C   UNL     1      34.547 -17.894 -23.091  0.00  0.00    +0.063 C 
ATOM     19  C   UNL     1      33.059 -14.894 -24.500  0.00  0.00    -0.003 C 
BRANCH  16  20
ATOM     20  O   UNL     1      34.176 -18.781 -20.875  0.00  0.00    -0.384 OA
ATOM     21  H   UNL     1      34.718 -18.827 -20.072  0.00  0.00    +0.210 HD
ENDBRANCH  16  20
BRANCH  17  22
ATOM     22  O   UNL     1      36.075 -16.115 -23.686  0.00  0.00    -0.380 OA
ATOM     23  H   UNL     1      36.720 -16.655 -24.168  0.00  0.00    +0.211 HD
ENDBRANCH  17  22
ENDBRANCH  11  12
BRANCH   3  24
ATOM     24  C   UNL     1      32.558  -7.026 -23.346  0.00  0.00    +0.115 C 
ATOM     25  C   UNL     1      31.133  -6.501 -23.427  0.00  0.00    +0.032 C 
BRANCH  24  26
ATOM     26  O   UNL     1      33.406  -6.208 -24.145  0.00  0.00    -0.356 OA
BRANCH  26  27
ATOM     27  C   UNL     1      32.675  -5.537 -25.161  0.00  0.00    +0.144 C 
BRANCH  27  28
ATOM     28  C   UNL     1      33.594  -5.248 -26.347  0.00  0.00    +0.059 C 
BRANCH  28  29
ATOM     29  C   UNL     1      33.219  -3.993 -27.157  0.00  0.00    +0.091 C 
ATOM     30  C   UNL     1      32.050  -3.228 -26.537  0.00  0.00    +0.029 C 
ATOM     31  C   UNL     1      32.873  -4.385 -28.597  0.00  0.00    +0.029 C 
BRANCH  29  32
ATOM     32  O   UNL     1      34.338  -3.105 -27.199  0.00  0.00    -0.387 OA
ATOM     33  H   UNL     1      35.159  -3.616 -27.124  0.00  0.00    +0.210 HD
ENDBRANCH  29  32
ENDBRANCH  28  29
ENDBRANCH  27  28
ENDBRANCH  26  27
ENDBRANCH  24  26
ENDBRANCH   3  24
TORSDOF 9
ENDMDL
MODEL 5
REMARK VINA RESULT:      -7.1      2.974     11.432
REMARK  Name = 6398761
REMARK  9 active torsions:
REMARK  status: ('A' for Active; 'I' for Inactive)
REMARK    1  A    between atoms: C_3  and  C_24
REMARK    2  A    between atoms: C_11  and  C_12
REMARK    3  A    between atoms: C_16  and  O_20
REMARK    4  A    between atoms: C_17  and  O_22
REMARK    5  A    between atoms: C_24  and  O_26
REMARK    6  A    between atoms: O_26  and  C_27
REMARK    7  A    between atoms: C_27  and  C_28
REMARK    8  A    between atoms: C_28  and  C_29
REMARK    9  A    between atoms: C_29  and  O_32
REMARK                            x       y       z     vdW  Elec       q    Type
REMARK                         _______ _______ _______ _____ _____    ______ ____
ROOT
ATOM      1  C   UNL     1      32.318  -9.524 -22.663  0.00  0.00    +0.006 C 
ATOM      2  C   UNL     1      32.883 -10.736 -23.445  0.00  0.00    +0.018 C 
ATOM      3  C   UNL     1      32.591  -8.404 -23.696  0.00  0.00    +0.028 C 
ATOM      4  C   UNL     1      34.237 -10.230 -23.947  0.00  0.00    +0.004 C 
ATOM      5  C   UNL     1      33.996  -8.739 -24.248  0.00  0.00    +0.003 C 
ATOM      6  C   UNL     1      30.824  -9.778 -22.382  0.00  0.00    +0.001 C 
ATOM      7  C   UNL     1      32.738 -12.010 -22.659  0.00  0.00    -0.045 C 
ATOM      8  C   UNL     1      33.061  -9.257 -21.329  0.00  0.00    +0.000 C 
ATOM      9  C   UNL     1      30.604 -11.099 -21.623  0.00  0.00    +0.004 C 
ATOM     10  C   UNL     1      31.301 -12.302 -22.279  0.00  0.00    +0.022 C 
ATOM     11  C   UNL     1      33.746 -12.826 -22.320  0.00  0.00    -0.009 C 
ENDROOT
BRANCH  11  12
ATOM     12  C   UNL     1      33.560 -14.044 -21.572  0.00  0.00    -0.005 C 
ATOM     13  C   UNL     1      33.551 -15.262 -22.137  0.00  0.00    -0.021 C 
ATOM     14  C   UNL     1      33.397 -16.519 -21.317  0.00  0.00    +0.055 C 
ATOM     15  C   UNL     1      33.729 -15.474 -23.571  0.00  0.00    +0.000 C 
ATOM     16  C   UNL     1      34.469 -17.559 -21.646  0.00  0.00    +0.118 C 
ATOM     17  C   UNL     1      34.726 -16.543 -23.956  0.00  0.00    +0.135 C 
ATOM     18  C   UNL     1      34.520 -17.832 -23.154  0.00  0.00    +0.063 C 
ATOM     19  C   UNL     1      33.018 -14.808 -24.496  0.00  0.00    -0.003 C 
BRANCH  16  20
ATOM     20  O   UNL     1      34.160 -18.765 -20.955  0.00  0.00    -0.384 OA
ATOM     21  H   UNL     1      33.434 -19.220 -21.410  0.00  0.00    +0.210 HD
ENDBRANCH  16  20
BRANCH  17  22
ATOM     22  O   UNL     1      36.040 -16.036 -23.717  0.00  0.00    -0.380 OA
ATOM     23  H   UNL     1      36.624 -16.296 -24.447  0.00  0.00    +0.211 HD
ENDBRANCH  17  22
ENDBRANCH  11  12
BRANCH   3  24
ATOM     24  C   UNL     1      32.479  -6.973 -23.191  0.00  0.00    +0.115 C 
ATOM     25  C   UNL     1      31.034  -6.576 -22.933  0.00  0.00    +0.032 C 
BRANCH  24  26
ATOM     26  O   UNL     1      33.043  -6.090 -24.156  0.00  0.00    -0.356 OA
BRANCH  26  27
ATOM     27  C   UNL     1      32.059  -5.618 -25.066  0.00  0.00    +0.144 C 
BRANCH  27  28
ATOM     28  C   UNL     1      32.436  -4.217 -25.544  0.00  0.00    +0.059 C 
BRANCH  28  29
ATOM     29  C   UNL     1      31.413  -3.122 -25.188  0.00  0.00    +0.091 C 
ATOM     30  C   UNL     1      31.115  -2.198 -26.370  0.00  0.00    +0.029 C 
ATOM     31  C   UNL     1      31.922  -2.297 -24.003  0.00  0.00    +0.029 C 
BRANCH  29  32
ATOM     32  O   UNL     1      30.180  -3.733 -24.801  0.00  0.00    -0.387 OA
ATOM     33  H   UNL     1      30.335  -4.325 -24.048  0.00  0.00    +0.210 HD
ENDBRANCH  29  32
ENDBRANCH  28  29
ENDBRANCH  27  28
ENDBRANCH  26  27
ENDBRANCH  24  26
ENDBRANCH   3  24
TORSDOF 9
ENDMDL
MODEL 6
REMARK VINA RESULT:      -7.1      3.605      6.710
REMARK  Name = 6398761
REMARK  9 active torsions:
REMARK  status: ('A' for Active; 'I' for Inactive)
REMARK    1  A    between atoms: C_3  and  C_24
REMARK    2  A    between atoms: C_11  and  C_12
REMARK    3  A    between atoms: C_16  and  O_20
REMARK    4  A    between atoms: C_17  and  O_22
REMARK    5  A    between atoms: C_24  and  O_26
REMARK    6  A    between atoms: O_26  and  C_27
REMARK    7  A    between atoms: C_27  and  C_28
REMARK    8  A    between atoms: C_28  and  C_29
REMARK    9  A    between atoms: C_29  and  O_32
REMARK                            x       y       z     vdW  Elec       q    Type
REMARK                         _______ _______ _______ _____ _____    ______ ____
ROOT
ATOM      1  C   UNL     1      32.147 -10.362 -22.183  0.00  0.00    +0.006 C 
ATOM      2  C   UNL     1      33.016  -9.536 -23.164  0.00  0.00    +0.018 C 
ATOM      3  C   UNL     1      32.856 -11.733 -22.306  0.00  0.00    +0.028 C 
ATOM      4  C   UNL     1      33.109 -10.439 -24.395  0.00  0.00    +0.004 C 
ATOM      5  C   UNL     1      33.152 -11.866 -23.818  0.00  0.00    +0.003 C 
ATOM      6  C   UNL     1      32.246  -9.720 -20.784  0.00  0.00    +0.001 C 
ATOM      7  C   UNL     1      32.547  -8.110 -23.242  0.00  0.00    -0.045 C 
ATOM      8  C   UNL     1      30.660 -10.454 -22.609  0.00  0.00    +0.000 C 
ATOM      9  C   UNL     1      31.828  -8.239 -20.807  0.00  0.00    +0.004 C 
ATOM     10  C   UNL     1      32.547  -7.420 -21.892  0.00  0.00    +0.022 C 
ATOM     11  C   UNL     1      32.170  -7.482 -24.365  0.00  0.00    -0.009 C 
ENDROOT
BRANCH  11  12
ATOM     12  C   UNL     1      31.735  -6.108 -24.394  0.00  0.00    -0.005 C 
ATOM     13  C   UNL     1      32.389  -5.142 -25.059  0.00  0.00    -0.021 C 
ATOM     14  C   UNL     1      31.880  -3.723 -25.105  0.00  0.00    +0.055 C 
ATOM     15  C   UNL     1      33.610  -5.389 -25.821  0.00  0.00    +0.000 C 
ATOM     16  C   UNL     1      31.825  -3.173 -26.532  0.00  0.00    +0.118 C 
ATOM     17  C   UNL     1      33.642  -4.806 -27.216  0.00  0.00    +0.135 C 
ATOM     18  C   UNL     1      33.176  -3.347 -27.236  0.00  0.00    +0.063 C 
ATOM     19  C   UNL     1      34.666  -6.041 -25.307  0.00  0.00    -0.003 C 
BRANCH  16  20
ATOM     20  O   UNL     1      31.494  -1.789 -26.473  0.00  0.00    -0.384 OA
ATOM     21  H   UNL     1      31.149  -1.505 -27.334  0.00  0.00    +0.210 HD
ENDBRANCH  16  20
BRANCH  17  22
ATOM     22  O   UNL     1      32.787  -5.592 -28.048  0.00  0.00    -0.380 OA
ATOM     23  H   UNL     1      31.862  -5.356 -27.875  0.00  0.00    +0.211 HD
ENDBRANCH  17  22
ENDBRANCH  11  12
BRANCH   3  24
ATOM     24  C   UNL     1      32.114 -12.934 -21.740  0.00  0.00    +0.115 C 
ATOM     25  C   UNL     1      32.210 -12.997 -20.223  0.00  0.00    +0.032 C 
BRANCH  24  26
ATOM     26  O   UNL     1      32.660 -14.127 -22.295  0.00  0.00    -0.356 OA
BRANCH  26  27
ATOM     27  C   UNL     1      33.942 -14.411 -21.755  0.00  0.00    +0.144 C 
BRANCH  27  28
ATOM     28  C   UNL     1      34.532 -15.634 -22.455  0.00  0.00    +0.059 C 
BRANCH  28  29
ATOM     29  C   UNL     1      34.778 -16.844 -21.533  0.00  0.00    +0.091 C 
ATOM     30  C   UNL     1      35.738 -17.860 -22.152  0.00  0.00    +0.029 C 
ATOM     31  C   UNL     1      33.449 -17.526 -21.199  0.00  0.00    +0.029 C 
BRANCH  29  32
ATOM     32  O   UNL     1      35.362 -16.394 -20.308  0.00  0.00    -0.387 OA
ATOM     33  H   UNL     1      35.981 -15.670 -20.492  0.00  0.00    +0.210 HD
ENDBRANCH  29  32
ENDBRANCH  28  29
ENDBRANCH  27  28
ENDBRANCH  26  27
ENDBRANCH  24  26
ENDBRANCH   3  24
TORSDOF 9
ENDMDL
MODEL 7
REMARK VINA RESULT:      -6.9      4.691      7.593
REMARK  Name = 6398761
REMARK  9 active torsions:
REMARK  status: ('A' for Active; 'I' for Inactive)
REMARK    1  A    between atoms: C_3  and  C_24
REMARK    2  A    between atoms: C_11  and  C_12
REMARK    3  A    between atoms: C_16  and  O_20
REMARK    4  A    between atoms: C_17  and  O_22
REMARK    5  A    between atoms: C_24  and  O_26
REMARK    6  A    between atoms: O_26  and  C_27
REMARK    7  A    between atoms: C_27  and  C_28
REMARK    8  A    between atoms: C_28  and  C_29
REMARK    9  A    between atoms: C_29  and  O_32
REMARK                            x       y       z     vdW  Elec       q    Type
REMARK                         _______ _______ _______ _____ _____    ______ ____
ROOT
ATOM      1  C   UNL     1      34.644 -21.711 -19.179  0.00  0.00    +0.006 C 
ATOM      2  C   UNL     1      35.215 -20.358 -19.669  0.00  0.00    +0.018 C 
ATOM      3  C   UNL     1      35.418 -21.847 -17.845  0.00  0.00    +0.028 C 
ATOM      4  C   UNL     1      36.723 -20.521 -19.470  0.00  0.00    +0.004 C 
ATOM      5  C   UNL     1      36.847 -21.372 -18.193  0.00  0.00    +0.003 C 
ATOM      6  C   UNL     1      33.117 -21.566 -19.015  0.00  0.00    +0.001 C 
ATOM      7  C   UNL     1      34.614 -19.955 -20.988  0.00  0.00    -0.045 C 
ATOM      8  C   UNL     1      34.954 -22.890 -20.135  0.00  0.00    +0.000 C 
ATOM      9  C   UNL     1      32.446 -21.103 -20.320  0.00  0.00    +0.004 C 
ATOM     10  C   UNL     1      33.102 -19.856 -20.934  0.00  0.00    +0.022 C 
ATOM     11  C   UNL     1      35.307 -19.698 -22.105  0.00  0.00    -0.009 C 
ENDROOT
BRANCH  11  12
ATOM     12  C   UNL     1      34.688 -19.307 -23.347  0.00  0.00    -0.005 C 
ATOM     13  C   UNL     1      34.196 -18.078 -23.570  0.00  0.00    -0.021 C 
ATOM     14  C   UNL     1      33.594 -17.689 -24.897  0.00  0.00    +0.055 C 
ATOM     15  C   UNL     1      34.239 -17.012 -22.571  0.00  0.00    +0.000 C 
ATOM     16  C   UNL     1      34.175 -16.379 -25.435  0.00  0.00    +0.118 C 
ATOM     17  C   UNL     1      34.737 -15.672 -23.064  0.00  0.00    +0.135 C 
ATOM     18  C   UNL     1      34.074 -15.267 -24.385  0.00  0.00    +0.063 C 
ATOM     19  C   UNL     1      33.812 -17.183 -21.309  0.00  0.00    -0.003 C 
BRANCH  16  20
ATOM     20  O   UNL     1      33.445 -16.003 -26.598  0.00  0.00    -0.384 OA
ATOM     21  H   UNL     1      32.783 -16.682 -26.797  0.00  0.00    +0.210 HD
ENDBRANCH  16  20
BRANCH  17  22
ATOM     22  O   UNL     1      36.152 -15.761 -23.247  0.00  0.00    -0.380 OA
ATOM     23  H   UNL     1      36.382 -15.448 -24.135  0.00  0.00    +0.211 HD
ENDBRANCH  17  22
ENDBRANCH  11  12
BRANCH   3  24
ATOM     24  C   UNL     1      35.393 -23.216 -17.182  0.00  0.00    +0.115 C 
ATOM     25  C   UNL     1      34.179 -23.388 -16.282  0.00  0.00    +0.032 C 
BRANCH  24  26
ATOM     26  O   UNL     1      36.578 -23.384 -16.410  0.00  0.00    -0.356 OA
BRANCH  26  27
ATOM     27  C   UNL     1      36.282 -23.831 -15.095  0.00  0.00    +0.144 C 
BRANCH  27  28
ATOM     28  C   UNL     1      37.582 -24.133 -14.352  0.00  0.00    +0.059 C 
BRANCH  28  29
ATOM     29  C   UNL     1      38.019 -25.610 -14.397  0.00  0.00    +0.091 C 
ATOM     30  C   UNL     1      37.328 -26.453 -13.325  0.00  0.00    +0.029 C 
ATOM     31  C   UNL     1      39.538 -25.711 -14.235  0.00  0.00    +0.029 C 
BRANCH  29  32
ATOM     32  O   UNL     1      37.674 -26.166 -15.668  0.00  0.00    -0.387 OA
ATOM     33  H   UNL     1      37.538 -25.450 -16.309  0.00  0.00    +0.210 HD
ENDBRANCH  29  32
ENDBRANCH  28  29
ENDBRANCH  27  28
ENDBRANCH  26  27
ENDBRANCH  24  26
ENDBRANCH   3  24
TORSDOF 9
ENDMDL
MODEL 8
REMARK VINA RESULT:      -6.8     10.163     13.660
REMARK  Name = 6398761
REMARK  9 active torsions:
REMARK  status: ('A' for Active; 'I' for Inactive)
REMARK    1  A    between atoms: C_3  and  C_24
REMARK    2  A    between atoms: C_11  and  C_12
REMARK    3  A    between atoms: C_16  and  O_20
REMARK    4  A    between atoms: C_17  and  O_22
REMARK    5  A    between atoms: C_24  and  O_26
REMARK    6  A    between atoms: O_26  and  C_27
REMARK    7  A    between atoms: C_27  and  C_28
REMARK    8  A    between atoms: C_28  and  C_29
REMARK    9  A    between atoms: C_29  and  O_32
REMARK                            x       y       z     vdW  Elec       q    Type
REMARK                         _______ _______ _______ _____ _____    ______ ____
ROOT
ATOM      1  C   UNL     1      31.766 -23.573 -15.614  0.00  0.00    +0.006 C 
ATOM      2  C   UNL     1      32.930 -23.085 -14.716  0.00  0.00    +0.018 C 
ATOM      3  C   UNL     1      30.566 -23.086 -14.764  0.00  0.00    +0.028 C 
ATOM      4  C   UNL     1      32.515 -23.552 -13.319  0.00  0.00    +0.004 C 
ATOM      5  C   UNL     1      30.983 -23.410 -13.311  0.00  0.00    +0.003 C 
ATOM      6  C   UNL     1      31.889 -22.887 -16.989  0.00  0.00    +0.001 C 
ATOM      7  C   UNL     1      34.265 -23.425 -15.319  0.00  0.00    -0.045 C 
ATOM      8  C   UNL     1      31.739 -25.111 -15.799  0.00  0.00    +0.000 C 
ATOM      9  C   UNL     1      33.260 -23.155 -17.637  0.00  0.00    +0.004 C 
ATOM     10  C   UNL     1      34.444 -22.845 -16.707  0.00  0.00    +0.022 C 
ATOM     11  C   UNL     1      35.219 -24.152 -14.720  0.00  0.00    -0.009 C 
ENDROOT
BRANCH  11  12
ATOM     12  C   UNL     1      36.490 -24.447 -15.333  0.00  0.00    -0.005 C 
ATOM     13  C   UNL     1      37.644 -24.496 -14.649  0.00  0.00    -0.021 C 
ATOM     14  C   UNL     1      38.950 -24.851 -15.315  0.00  0.00    +0.055 C 
ATOM     15  C   UNL     1      37.725 -24.256 -13.210  0.00  0.00    +0.000 C 
ATOM     16  C   UNL     1      39.706 -25.947 -14.559  0.00  0.00    +0.118 C 
ATOM     17  C   UNL     1      38.523 -25.269 -12.420  0.00  0.00    +0.135 C 
ATOM     18  C   UNL     1      39.871 -25.575 -13.081  0.00  0.00    +0.063 C 
ATOM     19  C   UNL     1      37.181 -23.177 -12.623  0.00  0.00    -0.003 C 
BRANCH  16  20
ATOM     20  O   UNL     1      40.989 -26.107 -15.156  0.00  0.00    -0.384 OA
ATOM     21  H   UNL     1      41.101 -27.029 -15.435  0.00  0.00    +0.210 HD
ENDBRANCH  16  20
BRANCH  17  22
ATOM     22  O   UNL     1      37.753 -26.468 -12.326  0.00  0.00    -0.380 OA
ATOM     23  H   UNL     1      38.328 -27.201 -12.056  0.00  0.00    +0.211 HD
ENDBRANCH  17  22
ENDBRANCH  11  12
BRANCH   3  24
ATOM     24  C   UNL     1      29.202 -23.650 -15.130  0.00  0.00    +0.115 C 
ATOM     25  C   UNL     1      28.994 -25.044 -14.558  0.00  0.00    +0.032 C 
BRANCH  24  26
ATOM     26  O   UNL     1      29.081 -23.702 -16.548  0.00  0.00    -0.356 OA
BRANCH  26  27
ATOM     27  C   UNL     1      27.845 -24.279 -16.943  0.00  0.00    +0.144 C 
BRANCH  27  28
ATOM     28  C   UNL     1      27.085 -23.298 -17.835  0.00  0.00    +0.059 C 
BRANCH  28  29
ATOM     29  C   UNL     1      26.789 -21.934 -17.183  0.00  0.00    +0.091 C 
ATOM     30  C   UNL     1      26.053 -22.075 -15.850  0.00  0.00    +0.029 C 
ATOM     31  C   UNL     1      25.968 -21.065 -18.139  0.00  0.00    +0.029 C 
BRANCH  29  32
ATOM     32  O   UNL     1      28.022 -21.258 -16.922  0.00  0.00    -0.387 OA
ATOM     33  H   UNL     1      28.507 -21.138 -17.753  0.00  0.00    +0.210 HD
ENDBRANCH  29  32
ENDBRANCH  28  29
ENDBRANCH  27  28
ENDBRANCH  26  27
ENDBRANCH  24  26
ENDBRANCH   3  24
TORSDOF 9
ENDMDL
MODEL 9
REMARK VINA RESULT:      -6.7      3.077      6.112
REMARK  Name = 6398761
REMARK  9 active torsions:
REMARK  status: ('A' for Active; 'I' for Inactive)
REMARK    1  A    between atoms: C_3  and  C_24
REMARK    2  A    between atoms: C_11  and  C_12
REMARK    3  A    between atoms: C_16  and  O_20
REMARK    4  A    between atoms: C_17  and  O_22
REMARK    5  A    between atoms: C_24  and  O_26
REMARK    6  A    between atoms: O_26  and  C_27
REMARK    7  A    between atoms: C_27  and  C_28
REMARK    8  A    between atoms: C_28  and  C_29
REMARK    9  A    between atoms: C_29  and  O_32
REMARK                            x       y       z     vdW  Elec       q    Type
REMARK                         _______ _______ _______ _____ _____    ______ ____
ROOT
ATOM      1  C   UNL     1      32.610 -10.147 -22.443  0.00  0.00    +0.006 C 
ATOM      2  C   UNL     1      33.702  -9.578 -23.383  0.00  0.00    +0.018 C 
ATOM      3  C   UNL     1      32.985 -11.649 -22.496  0.00  0.00    +0.028 C 
ATOM      4  C   UNL     1      33.651 -10.518 -24.589  0.00  0.00    +0.004 C 
ATOM      5  C   UNL     1      33.328 -11.896 -23.983  0.00  0.00    +0.003 C 
ATOM      6  C   UNL     1      32.776  -9.499 -21.054  0.00  0.00    +0.001 C 
ATOM      7  C   UNL     1      33.584  -8.085 -23.518  0.00  0.00    -0.045 C 
ATOM      8  C   UNL     1      31.170  -9.906 -22.961  0.00  0.00    +0.000 C 
ATOM      9  C   UNL     1      32.717  -7.963 -21.131  0.00  0.00    +0.004 C 
ATOM     10  C   UNL     1      33.667  -7.370 -22.184  0.00  0.00    +0.022 C 
ATOM     11  C   UNL     1      33.429  -7.425 -24.674  0.00  0.00    -0.009 C 
ENDROOT
BRANCH  11  12
ATOM     12  C   UNL     1      33.329  -5.989 -24.757  0.00  0.00    -0.005 C 
ATOM     13  C   UNL     1      32.231  -5.305 -24.398  0.00  0.00    -0.021 C 
ATOM     14  C   UNL     1      32.176  -3.799 -24.457  0.00  0.00    +0.055 C 
ATOM     15  C   UNL     1      31.024  -5.951 -23.886  0.00  0.00    +0.000 C 
ATOM     16  C   UNL     1      31.670  -3.186 -23.149  0.00  0.00    +0.118 C 
ATOM     17  C   UNL     1      30.437  -5.342 -22.633  0.00  0.00    +0.135 C 
ATOM     18  C   UNL     1      30.336  -3.816 -22.732  0.00  0.00    +0.063 C 
ATOM     19  C   UNL     1      30.434  -6.982 -24.511  0.00  0.00    -0.003 C 
BRANCH  16  20
ATOM     20  O   UNL     1      31.495  -1.786 -23.341  0.00  0.00    -0.384 OA
ATOM     21  H   UNL     1      30.597  -1.535 -23.077  0.00  0.00    +0.210 HD
ENDBRANCH  16  20
BRANCH  17  22
ATOM     22  O   UNL     1      31.273  -5.696 -21.530  0.00  0.00    -0.380 OA
ATOM     23  H   UNL     1      30.890  -5.349 -20.710  0.00  0.00    +0.211 HD
ENDBRANCH  17  22
ENDBRANCH  11  12
BRANCH   3  24
ATOM     24  C   UNL     1      31.951 -12.625 -21.955  0.00  0.00    +0.115 C 
ATOM     25  C   UNL     1      32.201 -12.963 -20.493  0.00  0.00    +0.032 C 
BRANCH  24  26
ATOM     26  O   UNL     1      31.989 -13.822 -22.726  0.00  0.00    -0.356 OA
BRANCH  26  27
ATOM     27  C   UNL     1      32.723 -14.843 -22.065  0.00  0.00    +0.144 C 
BRANCH  27  28
ATOM     28  C   UNL     1      33.631 -15.552 -23.069  0.00  0.00    +0.059 C 
BRANCH  28  29
ATOM     29  C   UNL     1      34.654 -16.515 -22.438  0.00  0.00    +0.091 C 
ATOM     30  C   UNL     1      34.236 -17.979 -22.575  0.00  0.00    +0.029 C 
ATOM     31  C   UNL     1      34.854 -16.171 -20.960  0.00  0.00    +0.029 C 
BRANCH  29  32
ATOM     32  O   UNL     1      35.913 -16.366 -23.099  0.00  0.00    -0.387 OA
ATOM     33  H   UNL     1      35.791 -16.468 -24.056  0.00  0.00    +0.210 HD
ENDBRANCH  29  32
ENDBRANCH  28  29
ENDBRANCH  27  28
ENDBRANCH  26  27
ENDBRANCH  24  26
ENDBRANCH   3  24
TORSDOF 9
ENDMDL
