MODEL 1
REMARK VINA RESULT:     -11.1      0.000      0.000
REMARK  Name = 25113181
REMARK  3 active torsions:
REMARK  status: ('A' for Active; 'I' for Inactive)
REMARK    1  A    between atoms: C_14  and  C_19
REMARK    2  A    between atoms: C_17  and  C_30
REMARK    3  A    between atoms: C_22  and  O_25
REMARK                            x       y       z     vdW  Elec       q    Type
REMARK                         _______ _______ _______ _____ _____    ______ ____
ROOT
ATOM      1  N   UNL     1      30.875 -23.719 -15.516  0.00  0.00    -0.290 N 
ATOM      2  N   UNL     1      28.517 -23.357 -17.087  0.00  0.00    +0.388 N 
ATOM      3  N   UNL     1      33.241 -23.541 -15.439  0.00  0.00    -0.392 NA
ATOM      4  N   UNL     1      33.209 -24.730 -12.927  0.00  0.00    -0.263 NA
ATOM      5  C   UNL     1      30.766 -22.573 -16.427  0.00  0.00    +0.070 C 
ATOM      6  C   UNL     1      30.023 -24.868 -15.837  0.00  0.00    +0.070 C 
ATOM      7  C   UNL     1      29.300 -22.196 -16.644  0.00  0.00    -0.056 C 
ATOM      8  C   UNL     1      28.579 -24.417 -16.074  0.00  0.00    -0.056 C 
ATOM      9  C   UNL     1      32.092 -23.921 -14.855  0.00  0.00    +0.184 C 
ATOM     10  C   UNL     1      27.130 -22.974 -17.344  0.00  0.00    -0.101 C 
ATOM     11  C   UNL     1      34.387 -23.755 -14.766  0.00  0.00    +0.131 C 
ATOM     12  C   UNL     1      32.075 -24.506 -13.616  0.00  0.00    +0.199 C 
ATOM     13  C   UNL     1      34.370 -24.356 -13.494  0.00  0.00    +0.084 C 
ATOM     14  C   UNL     1      35.607 -23.381 -15.323  0.00  0.00    +0.097 C 
ATOM     15  C   UNL     1      35.574 -24.564 -12.827  0.00  0.00    +0.078 C 
ATOM     16  C   UNL     1      36.808 -23.593 -14.646  0.00  0.00    -0.015 C 
ATOM     17  C   UNL     1      36.791 -24.185 -13.393  0.00  0.00    +0.052 C 
ATOM     18  H   UNL     1      28.915 -23.709 -17.958  0.00  0.00    -0.080 HD
ENDROOT
BRANCH  14  19
ATOM     19  C   UNL     1      35.664 -22.757 -16.633  0.00  0.00    -0.009 C 
ATOM     20  C   UNL     1      34.586 -22.875 -17.510  0.00  0.00    +0.033 C 
ATOM     21  C   UNL     1      36.796 -22.037 -17.013  0.00  0.00    -0.003 C 
ATOM     22  C   UNL     1      34.640 -22.274 -18.767  0.00  0.00    +0.133 C 
ATOM     23  C   UNL     1      36.851 -21.435 -18.271  0.00  0.00    +0.003 C 
ATOM     24  C   UNL     1      35.773 -21.553 -19.148  0.00  0.00    +0.037 C 
BRANCH  22  25
ATOM     25  O   UNL     1      33.588 -22.388 -19.623  0.00  0.00    -0.506 OA
ATOM     26  H   UNL     1      32.944 -21.709 -19.668  0.00  0.00    +0.292 HD
ENDBRANCH  22  25
ENDBRANCH  14  19
BRANCH  17  30
ATOM     27  F   UNL     1      39.150 -24.579 -13.469  0.00  0.00    -0.166 F 
ATOM     28  F   UNL     1      38.403 -23.397 -11.812  0.00  0.00    -0.166 F 
ATOM     29  F   UNL     1      38.024 -25.537 -11.874  0.00  0.00    -0.166 F 
ATOM     30  C   UNL     1      38.065 -24.417 -12.655  0.00  0.00    +0.415 C 
ENDBRANCH  17  30
TORSDOF 3
ENDMDL
MODEL 2
REMARK VINA RESULT:     -10.9      4.066      6.815
REMARK  Name = 25113181
REMARK  3 active torsions:
REMARK  status: ('A' for Active; 'I' for Inactive)
REMARK    1  A    between atoms: C_14  and  C_19
REMARK    2  A    between atoms: C_17  and  C_30
REMARK    3  A    between atoms: C_22  and  O_25
REMARK                            x       y       z     vdW  Elec       q    Type
REMARK                         _______ _______ _______ _____ _____    ______ ____
ROOT
ATOM      1  N   UNL     1      35.854 -24.517 -14.143  0.00  0.00    -0.290 N 
ATOM      2  N   UNL     1      38.689 -24.756 -13.886  0.00  0.00    +0.388 N 
ATOM      3  N   UNL     1      34.055 -23.671 -15.440  0.00  0.00    -0.392 NA
ATOM      4  N   UNL     1      32.288 -24.521 -13.471  0.00  0.00    -0.263 NA
ATOM      5  C   UNL     1      36.687 -24.719 -15.335  0.00  0.00    +0.070 C 
ATOM      6  C   UNL     1      36.538 -23.939 -12.982  0.00  0.00    +0.070 C 
ATOM      7  C   UNL     1      37.981 -25.449 -14.969  0.00  0.00    -0.056 C 
ATOM      8  C   UNL     1      37.837 -24.694 -12.692  0.00  0.00    -0.056 C 
ATOM      9  C   UNL     1      34.486 -24.290 -14.327  0.00  0.00    +0.184 C 
ATOM     10  C   UNL     1      39.950 -25.431 -13.582  0.00  0.00    -0.101 C 
ATOM     11  C   UNL     1      32.731 -23.473 -15.574  0.00  0.00    +0.131 C 
ATOM     12  C   UNL     1      33.615 -24.710 -13.357  0.00  0.00    +0.199 C 
ATOM     13  C   UNL     1      31.836 -23.904 -14.577  0.00  0.00    +0.084 C 
ATOM     14  C   UNL     1      32.228 -22.836 -16.706  0.00  0.00    +0.097 C 
ATOM     15  C   UNL     1      30.473 -23.682 -14.748  0.00  0.00    +0.078 C 
ATOM     16  C   UNL     1      30.861 -22.619 -16.868  0.00  0.00    -0.015 C 
ATOM     17  C   UNL     1      29.979 -23.045 -15.886  0.00  0.00    +0.052 C 
ATOM     18  H   UNL     1      38.903 -23.805 -14.188  0.00  0.00    -0.080 HD
ENDROOT
BRANCH  14  19
ATOM     19  C   UNL     1      33.121 -22.379 -17.757  0.00  0.00    -0.009 C 
ATOM     20  C   UNL     1      32.620 -21.633 -18.823  0.00  0.00    +0.033 C 
ATOM     21  C   UNL     1      34.481 -22.684 -17.697  0.00  0.00    -0.003 C 
ATOM     22  C   UNL     1      33.478 -21.194 -19.830  0.00  0.00    +0.133 C 
ATOM     23  C   UNL     1      35.339 -22.244 -18.705  0.00  0.00    +0.003 C 
ATOM     24  C   UNL     1      34.838 -21.499 -19.771  0.00  0.00    +0.037 C 
BRANCH  22  25
ATOM     25  O   UNL     1      32.990 -20.464 -20.871  0.00  0.00    -0.506 OA
ATOM     26  H   UNL     1      32.097 -20.565 -21.136  0.00  0.00    +0.292 HD
ENDBRANCH  22  25
ENDBRANCH  14  19
BRANCH  17  30
ATOM     27  F   UNL     1      27.993 -21.934 -15.146  0.00  0.00    -0.166 F 
ATOM     28  F   UNL     1      28.165 -22.331 -17.271  0.00  0.00    -0.166 F 
ATOM     29  F   UNL     1      27.788 -23.968 -15.889  0.00  0.00    -0.166 F 
ATOM     30  C   UNL     1      28.514 -22.821 -16.044  0.00  0.00    +0.415 C 
ENDBRANCH  17  30
TORSDOF 3
ENDMDL
MODEL 3
REMARK VINA RESULT:     -10.4     12.544     14.981
REMARK  Name = 25113181
REMARK  3 active torsions:
REMARK  status: ('A' for Active; 'I' for Inactive)
REMARK    1  A    between atoms: C_14  and  C_19
REMARK    2  A    between atoms: C_17  and  C_30
REMARK    3  A    between atoms: C_22  and  O_25
REMARK                            x       y       z     vdW  Elec       q    Type
REMARK                         _______ _______ _______ _____ _____    ______ ____
ROOT
ATOM      1  N   UNL     1      33.774 -15.170 -22.519  0.00  0.00    -0.290 N 
ATOM      2  N   UNL     1      35.010 -17.709 -22.952  0.00  0.00    +0.388 N 
ATOM      3  N   UNL     1      33.549 -12.931 -23.274  0.00  0.00    -0.392 NA
ATOM      4  N   UNL     1      31.994 -12.375 -21.040  0.00  0.00    -0.263 NA
ATOM      5  C   UNL     1      33.979 -15.666 -23.885  0.00  0.00    +0.070 C 
ATOM      6  C   UNL     1      34.660 -15.740 -21.499  0.00  0.00    +0.070 C 
ATOM      7  C   UNL     1      34.016 -17.196 -23.903  0.00  0.00    -0.056 C 
ATOM      8  C   UNL     1      34.676 -17.268 -21.593  0.00  0.00    -0.056 C 
ATOM      9  C   UNL     1      33.273 -13.874 -22.357  0.00  0.00    +0.184 C 
ATOM     10  C   UNL     1      35.076 -19.169 -23.016  0.00  0.00    -0.101 C 
ATOM     11  C   UNL     1      33.047 -11.699 -23.078  0.00  0.00    +0.131 C 
ATOM     12  C   UNL     1      32.506 -13.601 -21.256  0.00  0.00    +0.199 C 
ATOM     13  C   UNL     1      32.259 -11.418 -21.947  0.00  0.00    +0.084 C 
ATOM     14  C   UNL     1      33.301 -10.683 -23.996  0.00  0.00    +0.097 C 
ATOM     15  C   UNL     1      31.755 -10.131 -21.774  0.00  0.00    +0.078 C 
ATOM     16  C   UNL     1      32.792  -9.398 -23.814  0.00  0.00    -0.015 C 
ATOM     17  C   UNL     1      32.015  -9.121 -22.699  0.00  0.00    +0.052 C 
ATOM     18  H   UNL     1      35.927 -17.339 -23.202  0.00  0.00    -0.080 HD
ENDROOT
BRANCH  14  19
ATOM     19  C   UNL     1      34.109 -10.936 -25.176  0.00  0.00    -0.009 C 
ATOM     20  C   UNL     1      33.783 -11.986 -26.033  0.00  0.00    +0.033 C 
ATOM     21  C   UNL     1      35.211 -10.126 -25.452  0.00  0.00    -0.003 C 
ATOM     22  C   UNL     1      34.559 -12.227 -27.166  0.00  0.00    +0.133 C 
ATOM     23  C   UNL     1      35.987 -10.368 -26.586  0.00  0.00    +0.003 C 
ATOM     24  C   UNL     1      35.661 -11.418 -27.443  0.00  0.00    +0.037 C 
BRANCH  22  25
ATOM     25  O   UNL     1      34.240 -13.251 -28.005  0.00  0.00    -0.506 OA
ATOM     26  H   UNL     1      34.917 -13.724 -28.446  0.00  0.00    +0.292 HD
ENDBRANCH  22  25
ENDBRANCH  14  19
BRANCH  17  30
ATOM     27  F   UNL     1      30.267  -7.542 -23.119  0.00  0.00    -0.166 F 
ATOM     28  F   UNL     1      31.230  -7.451 -21.179  0.00  0.00    -0.166 F 
ATOM     29  F   UNL     1      32.295  -6.773 -22.950  0.00  0.00    -0.166 F 
ATOM     30  C   UNL     1      31.461  -7.753 -22.491  0.00  0.00    +0.415 C 
ENDBRANCH  17  30
TORSDOF 3
ENDMDL
MODEL 4
REMARK VINA RESULT:     -10.1     12.080     14.526
REMARK  Name = 25113181
REMARK  3 active torsions:
REMARK  status: ('A' for Active; 'I' for Inactive)
REMARK    1  A    between atoms: C_14  and  C_19
REMARK    2  A    between atoms: C_17  and  C_30
REMARK    3  A    between atoms: C_22  and  O_25
REMARK                            x       y       z     vdW  Elec       q    Type
REMARK                         _______ _______ _______ _____ _____    ______ ____
ROOT
ATOM      1  N   UNL     1      33.890 -15.855 -23.224  0.00  0.00    -0.290 N 
ATOM      2  N   UNL     1      35.013 -18.276 -24.242  0.00  0.00    +0.388 N 
ATOM      3  N   UNL     1      33.688 -13.505 -23.499  0.00  0.00    -0.392 NA
ATOM      4  N   UNL     1      32.298 -13.384 -21.096  0.00  0.00    -0.263 NA
ATOM      5  C   UNL     1      33.990 -16.068 -24.673  0.00  0.00    +0.070 C 
ATOM      6  C   UNL     1      34.820 -16.635 -22.403  0.00  0.00    +0.070 C 
ATOM      7  C   UNL     1      33.977 -17.563 -24.999  0.00  0.00    -0.056 C 
ATOM      8  C   UNL     1      34.781 -18.112 -22.802  0.00  0.00    -0.056 C 
ATOM      9  C   UNL     1      33.441 -14.609 -22.772  0.00  0.00    +0.184 C 
ATOM     10  C   UNL     1      35.028 -19.693 -24.601  0.00  0.00    -0.101 C 
ATOM     11  C   UNL     1      33.238 -12.329 -23.025  0.00  0.00    +0.131 C 
ATOM     12  C   UNL     1      32.755 -14.550 -21.588  0.00  0.00    +0.199 C 
ATOM     13  C   UNL     1      32.534 -12.268 -21.808  0.00  0.00    +0.084 C 
ATOM     14  C   UNL     1      33.465 -11.154 -23.736  0.00  0.00    +0.097 C 
ATOM     15  C   UNL     1      32.084 -11.034 -21.347  0.00  0.00    +0.078 C 
ATOM     16  C   UNL     1      33.010  -9.923 -23.266  0.00  0.00    -0.015 C 
ATOM     17  C   UNL     1      32.315  -9.863 -22.067  0.00  0.00    +0.052 C 
ATOM     18  H   UNL     1      35.924 -17.880 -24.476  0.00  0.00    -0.080 HD
ENDROOT
BRANCH  14  19
ATOM     19  C   UNL     1      34.187 -11.178 -24.996  0.00  0.00    -0.009 C 
ATOM     20  C   UNL     1      33.873 -12.132 -25.963  0.00  0.00    +0.033 C 
ATOM     21  C   UNL     1      35.195 -10.244 -25.240  0.00  0.00    -0.003 C 
ATOM     22  C   UNL     1      34.566 -12.154 -27.173  0.00  0.00    +0.133 C 
ATOM     23  C   UNL     1      35.888 -10.266 -26.450  0.00  0.00    +0.003 C 
ATOM     24  C   UNL     1      35.573 -11.220 -27.417  0.00  0.00    +0.037 C 
BRANCH  22  25
ATOM     25  O   UNL     1      34.258 -13.084 -28.117  0.00  0.00    -0.506 OA
ATOM     26  H   UNL     1      33.721 -13.819 -27.894  0.00  0.00    +0.292 HD
ENDBRANCH  22  25
ENDBRANCH  14  19
BRANCH  17  30
ATOM     27  F   UNL     1      31.307  -8.623 -20.286  0.00  0.00    -0.166 F 
ATOM     28  F   UNL     1      32.785  -7.590 -21.491  0.00  0.00    -0.166 F 
ATOM     29  F   UNL     1      30.824  -8.028 -22.323  0.00  0.00    -0.166 F 
ATOM     30  C   UNL     1      31.820  -8.555 -21.551  0.00  0.00    +0.415 C 
ENDBRANCH  17  30
TORSDOF 3
ENDMDL
MODEL 5
REMARK VINA RESULT:     -10.1     13.200     15.337
REMARK  Name = 25113181
REMARK  3 active torsions:
REMARK  status: ('A' for Active; 'I' for Inactive)
REMARK    1  A    between atoms: C_14  and  C_19
REMARK    2  A    between atoms: C_17  and  C_30
REMARK    3  A    between atoms: C_22  and  O_25
REMARK                            x       y       z     vdW  Elec       q    Type
REMARK                         _______ _______ _______ _____ _____    ______ ____
ROOT
ATOM      1  N   UNL     1      31.989  -8.062 -23.081  0.00  0.00    -0.290 N 
ATOM      2  N   UNL     1      31.842  -5.634 -24.580  0.00  0.00    +0.388 N 
ATOM      3  N   UNL     1      32.446 -10.391 -23.138  0.00  0.00    -0.392 NA
ATOM      4  N   UNL     1      31.647 -10.571 -20.482  0.00  0.00    -0.263 NA
ATOM      5  C   UNL     1      32.967  -7.791 -24.142  0.00  0.00    +0.070 C 
ATOM      6  C   UNL     1      30.716  -7.345 -23.195  0.00  0.00    +0.070 C 
ATOM      7  C   UNL     1      33.138  -6.284 -24.344  0.00  0.00    -0.056 C 
ATOM      8  C   UNL     1      30.958  -5.851 -23.429  0.00  0.00    -0.056 C 
ATOM      9  C   UNL     1      32.028  -9.312 -22.453  0.00  0.00    +0.184 C 
ATOM     10  C   UNL     1      32.022  -4.204 -24.826  0.00  0.00    -0.101 C 
ATOM     11  C   UNL     1      32.466 -11.572 -22.494  0.00  0.00    +0.131 C 
ATOM     12  C   UNL     1      31.635  -9.400 -21.144  0.00  0.00    +0.199 C 
ATOM     13  C   UNL     1      32.062 -11.663 -21.149  0.00  0.00    +0.084 C 
ATOM     14  C   UNL     1      32.890 -12.723 -23.154  0.00  0.00    +0.097 C 
ATOM     15  C   UNL     1      32.095 -12.902 -20.514  0.00  0.00    +0.078 C 
ATOM     16  C   UNL     1      32.920 -13.958 -22.508  0.00  0.00    -0.015 C 
ATOM     17  C   UNL     1      32.522 -14.048 -21.183  0.00  0.00    +0.052 C 
ATOM     18  H   UNL     1      31.413  -6.047 -25.408  0.00  0.00    -0.080 HD
ENDROOT
BRANCH  14  19
ATOM     19  C   UNL     1      33.316 -12.667 -24.541  0.00  0.00    -0.009 C 
ATOM     20  C   UNL     1      34.191 -11.667 -24.963  0.00  0.00    +0.033 C 
ATOM     21  C   UNL     1      32.850 -13.616 -25.451  0.00  0.00    -0.003 C 
ATOM     22  C   UNL     1      34.600 -11.616 -26.295  0.00  0.00    +0.133 C 
ATOM     23  C   UNL     1      33.259 -13.564 -26.784  0.00  0.00    +0.003 C 
ATOM     24  C   UNL     1      34.135 -12.564 -27.206  0.00  0.00    +0.037 C 
BRANCH  22  25
ATOM     25  O   UNL     1      35.456 -10.641 -26.707  0.00  0.00    -0.506 OA
ATOM     26  H   UNL     1      36.129 -10.334 -26.133  0.00  0.00    +0.292 HD
ENDBRANCH  22  25
ENDBRANCH  14  19
BRANCH  17  30
ATOM     27  F   UNL     1      31.617 -16.249 -20.935  0.00  0.00    -0.166 F 
ATOM     28  F   UNL     1      33.744 -16.014 -20.584  0.00  0.00    -0.166 F 
ATOM     29  F   UNL     1      32.315 -15.243 -19.138  0.00  0.00    -0.166 F 
ATOM     30  C   UNL     1      32.549 -15.361 -20.478  0.00  0.00    +0.415 C 
ENDBRANCH  17  30
TORSDOF 3
ENDMDL
MODEL 6
REMARK VINA RESULT:      -9.1     15.963     18.261
REMARK  Name = 25113181
REMARK  3 active torsions:
REMARK  status: ('A' for Active; 'I' for Inactive)
REMARK    1  A    between atoms: C_14  and  C_19
REMARK    2  A    between atoms: C_17  and  C_30
REMARK    3  A    between atoms: C_22  and  O_25
REMARK                            x       y       z     vdW  Elec       q    Type
REMARK                         _______ _______ _______ _____ _____    ______ ____
ROOT
ATOM      1  N   UNL     1      32.810  -5.230 -25.240  0.00  0.00    -0.290 N 
ATOM      2  N   UNL     1      33.359  -3.808 -27.657  0.00  0.00    +0.388 N 
ATOM      3  N   UNL     1      32.902  -7.318 -24.116  0.00  0.00    -0.392 NA
ATOM      4  N   UNL     1      31.544  -6.180 -21.975  0.00  0.00    -0.263 NA
ATOM      5  C   UNL     1      34.019  -5.535 -26.015  0.00  0.00    +0.070 C 
ATOM      6  C   UNL     1      31.716  -4.607 -25.992  0.00  0.00    +0.070 C 
ATOM      7  C   UNL     1      34.460  -4.314 -26.827  0.00  0.00    -0.056 C 
ATOM      8  C   UNL     1      32.230  -3.417 -26.805  0.00  0.00    -0.056 C 
ATOM      9  C   UNL     1      32.522  -6.029 -24.129  0.00  0.00    +0.184 C 
ATOM     10  C   UNL     1      33.807  -2.677 -28.468  0.00  0.00    -0.101 C 
ATOM     11  C   UNL     1      32.603  -8.049 -23.026  0.00  0.00    +0.131 C 
ATOM     12  C   UNL     1      31.853  -5.467 -23.074  0.00  0.00    +0.199 C 
ATOM     13  C   UNL     1      31.916  -7.472 -21.942  0.00  0.00    +0.084 C 
ATOM     14  C   UNL     1      32.973  -9.390 -22.958  0.00  0.00    +0.097 C 
ATOM     15  C   UNL     1      31.623  -8.257 -20.831  0.00  0.00    +0.078 C 
ATOM     16  C   UNL     1      32.674 -10.167 -21.840  0.00  0.00    -0.015 C 
ATOM     17  C   UNL     1      31.998  -9.599 -20.772  0.00  0.00    +0.052 C 
ATOM     18  H   UNL     1      33.055  -4.550 -28.287  0.00  0.00    -0.080 HD
ENDROOT
BRANCH  14  19
ATOM     19  C   UNL     1      33.684 -10.019 -24.057  0.00  0.00    -0.009 C 
ATOM     20  C   UNL     1      33.150 -11.146 -24.680  0.00  0.00    +0.033 C 
ATOM     21  C   UNL     1      34.901  -9.493 -24.490  0.00  0.00    -0.003 C 
ATOM     22  C   UNL     1      33.834 -11.749 -25.735  0.00  0.00    +0.133 C 
ATOM     23  C   UNL     1      35.585 -10.096 -25.546  0.00  0.00    +0.003 C 
ATOM     24  C   UNL     1      35.051 -11.224 -26.169  0.00  0.00    +0.037 C 
BRANCH  22  25
ATOM     25  O   UNL     1      33.312 -12.849 -26.345  0.00  0.00    -0.506 OA
ATOM     26  H   UNL     1      33.571 -13.705 -26.068  0.00  0.00    +0.292 HD
ENDBRANCH  22  25
ENDBRANCH  14  19
BRANCH  17  30
ATOM     27  F   UNL     1      30.371 -10.306 -19.165  0.00  0.00    -0.166 F 
ATOM     28  F   UNL     1      31.877 -11.755 -19.745  0.00  0.00    -0.166 F 
ATOM     29  F   UNL     1      32.423 -10.072 -18.480  0.00  0.00    -0.166 F 
ATOM     30  C   UNL     1      31.672 -10.416 -19.568  0.00  0.00    +0.415 C 
ENDBRANCH  17  30
TORSDOF 3
ENDMDL
MODEL 7
REMARK VINA RESULT:      -8.9      4.381      7.610
REMARK  Name = 25113181
REMARK  3 active torsions:
REMARK  status: ('A' for Active; 'I' for Inactive)
REMARK    1  A    between atoms: C_14  and  C_19
REMARK    2  A    between atoms: C_17  and  C_30
REMARK    3  A    between atoms: C_22  and  O_25
REMARK                            x       y       z     vdW  Elec       q    Type
REMARK                         _______ _______ _______ _____ _____    ______ ____
ROOT
ATOM      1  N   UNL     1      36.649 -24.002 -14.926  0.00  0.00    -0.290 N 
ATOM      2  N   UNL     1      37.397 -25.623 -12.696  0.00  0.00    +0.388 N 
ATOM      3  N   UNL     1      34.866 -23.207 -16.277  0.00  0.00    -0.392 NA
ATOM      4  N   UNL     1      36.726 -21.989 -17.944  0.00  0.00    -0.263 NA
ATOM      5  C   UNL     1      35.791 -24.059 -13.736  0.00  0.00    +0.070 C 
ATOM      6  C   UNL     1      37.543 -25.148 -15.118  0.00  0.00    +0.070 C 
ATOM      7  C   UNL     1      36.617 -24.396 -12.493  0.00  0.00    -0.056 C 
ATOM      8  C   UNL     1      38.313 -25.451 -13.830  0.00  0.00    -0.056 C 
ATOM      9  C   UNL     1      36.186 -23.289 -16.037  0.00  0.00    +0.184 C 
ATOM     10  C   UNL     1      38.140 -25.965 -11.484  0.00  0.00    -0.101 C 
ATOM     11  C   UNL     1      34.467 -22.512 -17.357  0.00  0.00    +0.131 C 
ATOM     12  C   UNL     1      37.103 -22.688 -16.858  0.00  0.00    +0.199 C 
ATOM     13  C   UNL     1      35.409 -21.894 -18.201  0.00  0.00    +0.084 C 
ATOM     14  C   UNL     1      33.111 -22.394 -17.654  0.00  0.00    +0.097 C 
ATOM     15  C   UNL     1      34.961 -21.183 -19.311  0.00  0.00    +0.078 C 
ATOM     16  C   UNL     1      32.673 -21.679 -18.768  0.00  0.00    -0.015 C 
ATOM     17  C   UNL     1      33.602 -21.070 -19.599  0.00  0.00    +0.052 C 
ATOM     18  H   UNL     1      36.757 -26.390 -12.903  0.00  0.00    -0.080 HD
ENDROOT
BRANCH  14  19
ATOM     19  C   UNL     1      32.110 -23.016 -16.805  0.00  0.00    -0.009 C 
ATOM     20  C   UNL     1      32.497 -23.928 -15.823  0.00  0.00    +0.033 C 
ATOM     21  C   UNL     1      30.762 -22.700 -16.972  0.00  0.00    -0.003 C 
ATOM     22  C   UNL     1      31.535 -24.524 -15.009  0.00  0.00    +0.133 C 
ATOM     23  C   UNL     1      29.800 -23.297 -16.157  0.00  0.00    +0.003 C 
ATOM     24  C   UNL     1      30.186 -24.208 -15.175  0.00  0.00    +0.037 C 
BRANCH  22  25
ATOM     25  O   UNL     1      31.912 -25.412 -14.049  0.00  0.00    -0.506 OA
ATOM     26  H   UNL     1      32.488 -25.144 -13.361  0.00  0.00    +0.292 HD
ENDBRANCH  22  25
ENDBRANCH  14  19
BRANCH  17  30
ATOM     27  F   UNL     1      34.114 -20.155 -21.750  0.00  0.00    -0.166 F 
ATOM     28  F   UNL     1      32.090 -20.869 -21.441  0.00  0.00    -0.166 F 
ATOM     29  F   UNL     1      32.749 -19.033 -20.481  0.00  0.00    -0.166 F 
ATOM     30  C   UNL     1      33.150 -20.301 -20.793  0.00  0.00    +0.415 C 
ENDBRANCH  17  30
TORSDOF 3
ENDMDL
MODEL 8
REMARK VINA RESULT:      -8.7      2.747      5.541
REMARK  Name = 25113181
REMARK  3 active torsions:
REMARK  status: ('A' for Active; 'I' for Inactive)
REMARK    1  A    between atoms: C_14  and  C_19
REMARK    2  A    between atoms: C_17  and  C_30
REMARK    3  A    between atoms: C_22  and  O_25
REMARK                            x       y       z     vdW  Elec       q    Type
REMARK                         _______ _______ _______ _____ _____    ______ ____
ROOT
ATOM      1  N   UNL     1      36.208 -21.355 -18.774  0.00  0.00    -0.290 N 
ATOM      2  N   UNL     1      35.393 -19.865 -21.072  0.00  0.00    +0.388 N 
ATOM      3  N   UNL     1      35.509 -22.495 -16.813  0.00  0.00    -0.392 NA
ATOM      4  N   UNL     1      38.176 -22.862 -16.125  0.00  0.00    -0.263 NA
ATOM      5  C   UNL     1      34.974 -21.714 -19.486  0.00  0.00    +0.070 C 
ATOM      6  C   UNL     1      36.663 -19.973 -18.954  0.00  0.00    +0.070 C 
ATOM      7  C   UNL     1      35.057 -21.289 -20.953  0.00  0.00    -0.056 C 
ATOM      8  C   UNL     1      36.691 -19.604 -20.439  0.00  0.00    -0.056 C 
ATOM      9  C   UNL     1      36.506 -22.036 -17.589  0.00  0.00    +0.184 C 
ATOM     10  C   UNL     1      35.415 -19.458 -22.476  0.00  0.00    -0.101 C 
ATOM     11  C   UNL     1      35.843 -23.144 -15.683  0.00  0.00    +0.131 C 
ATOM     12  C   UNL     1      37.821 -22.217 -17.251  0.00  0.00    +0.199 C 
ATOM     13  C   UNL     1      37.194 -23.330 -15.335  0.00  0.00    +0.084 C 
ATOM     14  C   UNL     1      34.852 -23.642 -14.841  0.00  0.00    +0.097 C 
ATOM     15  C   UNL     1      37.503 -24.005 -14.157  0.00  0.00    +0.078 C 
ATOM     16  C   UNL     1      35.172 -24.317 -13.664  0.00  0.00    -0.015 C 
ATOM     17  C   UNL     1      36.503 -24.500 -13.322  0.00  0.00    +0.052 C 
ATOM     18  H   UNL     1      34.677 -19.317 -20.594  0.00  0.00    -0.080 HD
ENDROOT
BRANCH  14  19
ATOM     19  C   UNL     1      33.447 -23.470 -15.168  0.00  0.00    -0.009 C 
ATOM     20  C   UNL     1      32.485 -23.514 -14.160  0.00  0.00    +0.033 C 
ATOM     21  C   UNL     1      33.061 -23.260 -16.492  0.00  0.00    -0.003 C 
ATOM     22  C   UNL     1      31.137 -23.348 -14.476  0.00  0.00    +0.133 C 
ATOM     23  C   UNL     1      31.712 -23.094 -16.808  0.00  0.00    +0.003 C 
ATOM     24  C   UNL     1      30.750 -23.138 -15.799  0.00  0.00    +0.037 C 
BRANCH  22  25
ATOM     25  O   UNL     1      30.197 -23.390 -13.491  0.00  0.00    -0.506 OA
ATOM     26  H   UNL     1      29.620 -22.663 -13.363  0.00  0.00    +0.292 HD
ENDBRANCH  22  25
ENDBRANCH  14  19
BRANCH  17  30
ATOM     27  F   UNL     1      37.074 -26.559 -12.244  0.00  0.00    -0.166 F 
ATOM     28  F   UNL     1      38.005 -24.757 -11.478  0.00  0.00    -0.166 F 
ATOM     29  F   UNL     1      35.894 -25.126 -11.110  0.00  0.00    -0.166 F 
ATOM     30  C   UNL     1      36.863 -25.221 -12.067  0.00  0.00    +0.415 C 
ENDBRANCH  17  30
TORSDOF 3
ENDMDL
MODEL 9
REMARK VINA RESULT:      -8.3     10.075     12.937
REMARK  Name = 25113181
REMARK  3 active torsions:
REMARK  status: ('A' for Active; 'I' for Inactive)
REMARK    1  A    between atoms: C_14  and  C_19
REMARK    2  A    between atoms: C_17  and  C_30
REMARK    3  A    between atoms: C_22  and  O_25
REMARK                            x       y       z     vdW  Elec       q    Type
REMARK                         _______ _______ _______ _____ _____    ______ ____
ROOT
ATOM      1  N   UNL     1      35.124 -18.669 -22.167  0.00  0.00    -0.290 N 
ATOM      2  N   UNL     1      35.612 -20.388 -19.939  0.00  0.00    +0.388 N 
ATOM      3  N   UNL     1      34.177 -16.622 -22.910  0.00  0.00    -0.392 NA
ATOM      4  N   UNL     1      34.763 -17.348 -25.528  0.00  0.00    -0.263 NA
ATOM      5  C   UNL     1      35.459 -18.098 -20.857  0.00  0.00    +0.070 C 
ATOM      6  C   UNL     1      34.556 -20.020 -22.143  0.00  0.00    +0.070 C 
ATOM      7  C   UNL     1      36.288 -19.088 -20.036  0.00  0.00    -0.056 C 
ATOM      8  C   UNL     1      35.414 -20.949 -21.280  0.00  0.00    -0.056 C 
ATOM      9  C   UNL     1      34.779 -17.789 -23.199  0.00  0.00    +0.184 C 
ATOM     10  C   UNL     1      36.386 -21.308 -19.107  0.00  0.00    -0.101 C 
ATOM     11  C   UNL     1      33.863 -15.808 -23.934  0.00  0.00    +0.131 C 
ATOM     12  C   UNL     1      35.068 -18.147 -24.489  0.00  0.00    +0.199 C 
ATOM     13  C   UNL     1      34.160 -16.176 -25.259  0.00  0.00    +0.084 C 
ATOM     14  C   UNL     1      33.239 -14.587 -23.693  0.00  0.00    +0.097 C 
ATOM     15  C   UNL     1      33.821 -15.309 -26.295  0.00  0.00    +0.078 C 
ATOM     16  C   UNL     1      32.904 -13.726 -24.738  0.00  0.00    -0.015 C 
ATOM     17  C   UNL     1      33.197 -14.089 -26.044  0.00  0.00    +0.052 C 
ATOM     18  H   UNL     1      34.701 -20.253 -19.499  0.00  0.00    -0.080 HD
ENDROOT
BRANCH  14  19
ATOM     19  C   UNL     1      32.918 -14.174 -22.338  0.00  0.00    -0.009 C 
ATOM     20  C   UNL     1      32.325 -12.933 -22.109  0.00  0.00    +0.033 C 
ATOM     21  C   UNL     1      33.201 -15.020 -21.267  0.00  0.00    -0.003 C 
ATOM     22  C   UNL     1      32.017 -12.537 -20.808  0.00  0.00    +0.133 C 
ATOM     23  C   UNL     1      32.893 -14.624 -19.965  0.00  0.00    +0.003 C 
ATOM     24  C   UNL     1      32.300 -13.383 -19.736  0.00  0.00    +0.037 C 
BRANCH  22  25
ATOM     25  O   UNL     1      31.437 -11.326 -20.584  0.00  0.00    -0.506 OA
ATOM     26  H   UNL     1      31.748 -10.566 -21.034  0.00  0.00    +0.292 HD
ENDBRANCH  22  25
ENDBRANCH  14  19
BRANCH  17  30
ATOM     27  F   UNL     1      31.611 -13.417 -27.705  0.00  0.00    -0.166 F 
ATOM     28  F   UNL     1      32.835 -11.858 -26.826  0.00  0.00    -0.166 F 
ATOM     29  F   UNL     1      33.721 -13.276 -28.216  0.00  0.00    -0.166 F 
ATOM     30  C   UNL     1      32.846 -13.180 -27.171  0.00  0.00    +0.415 C 
ENDBRANCH  17  30
TORSDOF 3
ENDMDL
