MODEL 1
REMARK VINA RESULT:      -4.0      0.000      0.000
REMARK  Name = 8063
REMARK  3 active torsions:
REMARK  status: ('A' for Active; 'I' for Inactive)
REMARK    1  A    between atoms: C_1  and  C_2
REMARK    2  A    between atoms: C_1  and  C_4
REMARK    3  A    between atoms: C_4  and  C_6
REMARK                            x       y       z     vdW  Elec       q    Type
REMARK                         _______ _______ _______ _____ _____    ______ ____
ROOT
ATOM      1  C   UNL     1      33.094 -20.065 -20.529  0.00  0.00    +0.008 C 
ENDROOT
BRANCH   1   2
ATOM      2  C   UNL     1      33.428 -21.244 -19.616  0.00  0.00    +0.000 C 
ATOM      3  C   UNL     1      34.926 -21.495 -19.555  0.00  0.00    +0.000 C 
ENDBRANCH   1   2
BRANCH   1   4
ATOM      4  C   UNL     1      34.317 -19.613 -21.321  0.00  0.00    +0.072 C 
BRANCH   4   6
ATOM      5  O   UNL     1      35.411 -17.546 -20.669  0.00  0.00    -0.288 OA
ATOM      6  C   UNL     1      34.514 -18.117 -21.282  0.00  0.00    +0.207 C 
ENDBRANCH   4   6
ENDBRANCH   1   4
TORSDOF 3
ENDMDL
MODEL 2
REMARK VINA RESULT:      -4.0      1.321      2.023
REMARK  Name = 8063
REMARK  3 active torsions:
REMARK  status: ('A' for Active; 'I' for Inactive)
REMARK    1  A    between atoms: C_1  and  C_2
REMARK    2  A    between atoms: C_1  and  C_4
REMARK    3  A    between atoms: C_4  and  C_6
REMARK                            x       y       z     vdW  Elec       q    Type
REMARK                         _______ _______ _______ _____ _____    ______ ____
ROOT
ATOM      1  C   UNL     1      34.646 -19.074 -21.726  0.00  0.00    +0.008 C 
ENDROOT
BRANCH   1   2
ATOM      2  C   UNL     1      34.378 -20.092 -20.620  0.00  0.00    +0.000 C 
ATOM      3  C   UNL     1      32.889 -20.248 -20.353  0.00  0.00    +0.000 C 
ENDBRANCH   1   2
BRANCH   1   4
ATOM      4  C   UNL     1      35.513 -17.924 -21.224  0.00  0.00    +0.072 C 
BRANCH   4   6
ATOM      5  O   UNL     1      34.931 -15.776 -20.253  0.00  0.00    -0.288 OA
ATOM      6  C   UNL     1      34.752 -16.624 -21.121  0.00  0.00    +0.207 C 
ENDBRANCH   4   6
ENDBRANCH   1   4
TORSDOF 3
ENDMDL
MODEL 3
REMARK VINA RESULT:      -4.0      2.303      3.479
REMARK  Name = 8063
REMARK  3 active torsions:
REMARK  status: ('A' for Active; 'I' for Inactive)
REMARK    1  A    between atoms: C_1  and  C_2
REMARK    2  A    between atoms: C_1  and  C_4
REMARK    3  A    between atoms: C_4  and  C_6
REMARK                            x       y       z     vdW  Elec       q    Type
REMARK                         _______ _______ _______ _____ _____    ______ ____
ROOT
ATOM      1  C   UNL     1      33.253 -20.193 -20.576  0.00  0.00    +0.008 C 
ENDROOT
BRANCH   1   2
ATOM      2  C   UNL     1      34.621 -19.685 -21.028  0.00  0.00    +0.000 C 
ATOM      3  C   UNL     1      34.602 -19.254 -22.486  0.00  0.00    +0.000 C 
ENDBRANCH   1   2
BRANCH   1   4
ATOM      4  C   UNL     1      33.388 -21.305 -19.540  0.00  0.00    +0.072 C 
BRANCH   4   6
ATOM      5  O   UNL     1      35.238 -22.441 -18.453  0.00  0.00    -0.288 OA
ATOM      6  C   UNL     1      34.804 -21.812 -19.413  0.00  0.00    +0.207 C 
ENDBRANCH   4   6
ENDBRANCH   1   4
TORSDOF 3
ENDMDL
MODEL 4
REMARK VINA RESULT:      -4.0      2.416      3.683
REMARK  Name = 8063
REMARK  3 active torsions:
REMARK  status: ('A' for Active; 'I' for Inactive)
REMARK    1  A    between atoms: C_1  and  C_2
REMARK    2  A    between atoms: C_1  and  C_4
REMARK    3  A    between atoms: C_4  and  C_6
REMARK                            x       y       z     vdW  Elec       q    Type
REMARK                         _______ _______ _______ _____ _____    ______ ____
ROOT
ATOM      1  C   UNL     1      34.174 -19.160 -20.999  0.00  0.00    +0.008 C 
ENDROOT
BRANCH   1   2
ATOM      2  C   UNL     1      34.600 -19.356 -22.453  0.00  0.00    +0.000 C 
ATOM      3  C   UNL     1      35.669 -18.355 -22.860  0.00  0.00    +0.000 C 
ENDBRANCH   1   2
BRANCH   1   4
ATOM      4  C   UNL     1      33.041 -20.108 -20.619  0.00  0.00    +0.072 C 
BRANCH   4   6
ATOM      5  O   UNL     1      32.744 -22.005 -19.133  0.00  0.00    -0.288 OA
ATOM      6  C   UNL     1      33.493 -21.214 -19.696  0.00  0.00    +0.207 C 
ENDBRANCH   4   6
ENDBRANCH   1   4
TORSDOF 3
ENDMDL
MODEL 5
REMARK VINA RESULT:      -3.9      2.570      3.089
REMARK  Name = 8063
REMARK  3 active torsions:
REMARK  status: ('A' for Active; 'I' for Inactive)
REMARK    1  A    between atoms: C_1  and  C_2
REMARK    2  A    between atoms: C_1  and  C_4
REMARK    3  A    between atoms: C_4  and  C_6
REMARK                            x       y       z     vdW  Elec       q    Type
REMARK                         _______ _______ _______ _____ _____    ______ ____
ROOT
ATOM      1  C   UNL     1      34.513 -18.602 -21.960  0.00  0.00    +0.008 C 
ENDROOT
BRANCH   1   2
ATOM      2  C   UNL     1      34.370 -19.798 -21.021  0.00  0.00    +0.000 C 
ATOM      3  C   UNL     1      32.924 -20.009 -20.602  0.00  0.00    +0.000 C 
ENDBRANCH   1   2
BRANCH   1   4
ATOM      4  C   UNL     1      34.701 -19.049 -23.406  0.00  0.00    +0.072 C 
BRANCH   4   6
ATOM      5  O   UNL     1      34.463 -17.847 -25.502  0.00  0.00    -0.288 OA
ATOM      6  C   UNL     1      34.891 -17.889 -24.353  0.00  0.00    +0.207 C 
ENDBRANCH   4   6
ENDBRANCH   1   4
TORSDOF 3
ENDMDL
MODEL 6
REMARK VINA RESULT:      -3.8      1.501      1.501
REMARK  Name = 8063
REMARK  3 active torsions:
REMARK  status: ('A' for Active; 'I' for Inactive)
REMARK    1  A    between atoms: C_1  and  C_2
REMARK    2  A    between atoms: C_1  and  C_4
REMARK    3  A    between atoms: C_4  and  C_6
REMARK                            x       y       z     vdW  Elec       q    Type
REMARK                         _______ _______ _______ _____ _____    ______ ____
ROOT
ATOM      1  C   UNL     1      33.186 -20.191 -20.580  0.00  0.00    +0.008 C 
ENDROOT
BRANCH   1   2
ATOM      2  C   UNL     1      33.334 -21.283 -19.523  0.00  0.00    +0.000 C 
ATOM      3  C   UNL     1      34.780 -21.731 -19.382  0.00  0.00    +0.000 C 
ENDBRANCH   1   2
BRANCH   1   4
ATOM      4  C   UNL     1      34.541 -19.616 -20.978  0.00  0.00    +0.072 C 
BRANCH   4   6
ATOM      5  O   UNL     1      34.882 -19.488 -23.379  0.00  0.00    -0.288 OA
ATOM      6  C   UNL     1      34.516 -18.956 -22.336  0.00  0.00    +0.207 C 
ENDBRANCH   4   6
ENDBRANCH   1   4
TORSDOF 3
ENDMDL
MODEL 7
REMARK VINA RESULT:      -3.8      3.142      3.866
REMARK  Name = 8063
REMARK  3 active torsions:
REMARK  status: ('A' for Active; 'I' for Inactive)
REMARK    1  A    between atoms: C_1  and  C_2
REMARK    2  A    between atoms: C_1  and  C_4
REMARK    3  A    between atoms: C_4  and  C_6
REMARK                            x       y       z     vdW  Elec       q    Type
REMARK                         _______ _______ _______ _____ _____    ______ ____
ROOT
ATOM      1  C   UNL     1      35.423 -18.734 -23.252  0.00  0.00    +0.008 C 
ENDROOT
BRANCH   1   2
ATOM      2  C   UNL     1      34.546 -18.419 -22.042  0.00  0.00    +0.000 C 
ATOM      3  C   UNL     1      34.297 -19.658 -21.196  0.00  0.00    +0.000 C 
ENDBRANCH   1   2
BRANCH   1   4
ATOM      4  C   UNL     1      34.598 -18.807 -24.532  0.00  0.00    +0.072 C 
BRANCH   4   6
ATOM      5  O   UNL     1      34.906 -16.787 -25.844  0.00  0.00    -0.288 OA
ATOM      6  C   UNL     1      34.225 -17.444 -25.062  0.00  0.00    +0.207 C 
ENDBRANCH   4   6
ENDBRANCH   1   4
TORSDOF 3
ENDMDL
MODEL 8
REMARK VINA RESULT:      -3.7      7.051      7.737
REMARK  Name = 8063
REMARK  3 active torsions:
REMARK  status: ('A' for Active; 'I' for Inactive)
REMARK    1  A    between atoms: C_1  and  C_2
REMARK    2  A    between atoms: C_1  and  C_4
REMARK    3  A    between atoms: C_4  and  C_6
REMARK                            x       y       z     vdW  Elec       q    Type
REMARK                         _______ _______ _______ _____ _____    ______ ____
ROOT
ATOM      1  C   UNL     1      29.944 -22.717 -15.083  0.00  0.00    +0.008 C 
ENDROOT
BRANCH   1   2
ATOM      2  C   UNL     1      31.019 -23.016 -16.125  0.00  0.00    +0.000 C 
ATOM      3  C   UNL     1      32.335 -23.408 -15.472  0.00  0.00    +0.000 C 
ENDBRANCH   1   2
BRANCH   1   4
ATOM      4  C   UNL     1      28.570 -22.568 -15.729  0.00  0.00    +0.072 C 
BRANCH   4   6
ATOM      5  O   UNL     1      27.491 -23.390 -17.743  0.00  0.00    -0.288 OA
ATOM      6  C   UNL     1      28.373 -23.504 -16.898  0.00  0.00    +0.207 C 
ENDBRANCH   4   6
ENDBRANCH   1   4
TORSDOF 3
ENDMDL
MODEL 9
REMARK VINA RESULT:      -3.7      7.924      8.271
REMARK  Name = 8063
REMARK  3 active torsions:
REMARK  status: ('A' for Active; 'I' for Inactive)
REMARK    1  A    between atoms: C_1  and  C_2
REMARK    2  A    between atoms: C_1  and  C_4
REMARK    3  A    between atoms: C_4  and  C_6
REMARK                            x       y       z     vdW  Elec       q    Type
REMARK                         _______ _______ _______ _____ _____    ______ ____
ROOT
ATOM      1  C   UNL     1      28.160 -22.854 -17.017  0.00  0.00    +0.008 C 
ENDROOT
BRANCH   1   2
ATOM      2  C   UNL     1      28.745 -23.716 -15.899  0.00  0.00    +0.000 C 
ATOM      3  C   UNL     1      29.777 -22.950 -15.086  0.00  0.00    +0.000 C 
ENDBRANCH   1   2
BRANCH   1   4
ATOM      4  C   UNL     1      26.984 -22.021 -16.519  0.00  0.00    +0.072 C 
BRANCH   4   6
ATOM      5  O   UNL     1      26.217 -20.265 -18.009  0.00  0.00    -0.288 OA
ATOM      6  C   UNL     1      26.168 -21.435 -17.646  0.00  0.00    +0.207 C 
ENDBRANCH   4   6
ENDBRANCH   1   4
TORSDOF 3
ENDMDL
