MODEL 1
REMARK VINA RESULT:      -9.4      0.000      0.000
REMARK  Name = 9991833
REMARK  2 active torsions:
REMARK  status: ('A' for Active; 'I' for Inactive)
REMARK    1  A    between atoms: N_2  and  C_13
REMARK    2  A    between atoms: C_13  and  C_15
REMARK                            x       y       z     vdW  Elec       q    Type
REMARK                         _______ _______ _______ _____ _____    ______ ____
ROOT
ATOM      1  N   UNL     1      34.375 -15.673 -23.596  0.00  0.00    -0.248 N 
ATOM      2  N   UNL     1      35.641 -18.047 -21.048  0.00  0.00    -0.312 N 
ATOM      3  N   UNL     1      34.609 -15.290 -21.411  0.00  0.00    -0.225 NA
ATOM      4  N   UNL     1      35.332 -18.268 -23.354  0.00  0.00    -0.225 NA
ATOM      5  C   UNL     1      34.755 -16.169 -22.375  0.00  0.00    +0.171 C 
ATOM      6  C   UNL     1      33.955 -14.389 -23.399  0.00  0.00    +0.054 C 
ATOM      7  C   UNL     1      35.256 -17.531 -22.262  0.00  0.00    +0.161 C 
ATOM      8  C   UNL     1      34.466 -16.467 -24.720  0.00  0.00    +0.091 C 
ATOM      9  C   UNL     1      34.108 -14.176 -22.044  0.00  0.00    +0.111 C 
ATOM     10  C   UNL     1      33.463 -13.510 -24.473  0.00  0.00    +0.049 C 
ATOM     11  C   UNL     1      34.934 -17.718 -24.564  0.00  0.00    +0.117 C 
ATOM     12  H   UNL     1      35.573 -17.474 -20.251  0.00  0.00    +0.149 HD
ENDROOT
BRANCH   2  13
ATOM     13  C   UNL     1      36.139 -19.382 -20.889  0.00  0.00    +0.116 C 
BRANCH  13  15
ATOM     14  N   UNL     1      33.148 -22.037 -19.347  0.00  0.00    -0.242 NA
ATOM     15  C   UNL     1      35.092 -20.313 -20.349  0.00  0.00    +0.000 C 
ATOM     16  C   UNL     1      35.472 -21.437 -19.635  0.00  0.00    +0.018 C 
ATOM     17  C   UNL     1      33.751 -20.039 -20.568  0.00  0.00    +0.018 C 
ATOM     18  C   UNL     1      34.467 -22.263 -19.158  0.00  0.00    +0.099 C 
ATOM     19  C   UNL     1      32.823 -20.928 -20.050  0.00  0.00    +0.099 C 
ENDBRANCH  13  15
ENDBRANCH   2  13
TORSDOF 2
ENDMDL
MODEL 2
REMARK VINA RESULT:      -9.3      0.841      2.258
REMARK  Name = 9991833
REMARK  2 active torsions:
REMARK  status: ('A' for Active; 'I' for Inactive)
REMARK    1  A    between atoms: N_2  and  C_13
REMARK    2  A    between atoms: C_13  and  C_15
REMARK                            x       y       z     vdW  Elec       q    Type
REMARK                         _______ _______ _______ _____ _____    ______ ____
ROOT
ATOM      1  N   UNL     1      34.178 -15.334 -22.891  0.00  0.00    -0.248 N 
ATOM      2  N   UNL     1      35.631 -18.616 -21.967  0.00  0.00    -0.312 N 
ATOM      3  N   UNL     1      34.591 -17.047 -24.259  0.00  0.00    -0.225 NA
ATOM      4  N   UNL     1      35.131 -16.726 -20.685  0.00  0.00    -0.225 NA
ATOM      5  C   UNL     1      34.654 -16.615 -23.021  0.00  0.00    +0.171 C 
ATOM      6  C   UNL     1      33.786 -14.920 -24.131  0.00  0.00    +0.054 C 
ATOM      7  C   UNL     1      35.150 -17.333 -21.857  0.00  0.00    +0.161 C 
ATOM      8  C   UNL     1      34.171 -14.726 -21.653  0.00  0.00    +0.091 C 
ATOM      9  C   UNL     1      34.050 -15.992 -24.957  0.00  0.00    +0.111 C 
ATOM     10  C   UNL     1      33.216 -13.591 -24.413  0.00  0.00    +0.049 C 
ATOM     11  C   UNL     1      34.639 -15.431 -20.608  0.00  0.00    +0.117 C 
ATOM     12  H   UNL     1      35.633 -19.042 -22.854  0.00  0.00    +0.149 HD
ENDROOT
BRANCH   2  13
ATOM     13  C   UNL     1      36.130 -19.361 -20.847  0.00  0.00    +0.116 C 
BRANCH  13  15
ATOM     14  N   UNL     1      33.228 -22.136 -19.346  0.00  0.00    -0.242 NA
ATOM     15  C   UNL     1      35.113 -20.333 -20.322  0.00  0.00    +0.000 C 
ATOM     16  C   UNL     1      33.767 -20.121 -20.569  0.00  0.00    +0.018 C 
ATOM     17  C   UNL     1      35.529 -21.435 -19.593  0.00  0.00    +0.018 C 
ATOM     18  C   UNL     1      32.869 -21.047 -20.062  0.00  0.00    +0.099 C 
ATOM     19  C   UNL     1      34.553 -22.302 -19.129  0.00  0.00    +0.099 C 
ENDBRANCH  13  15
ENDBRANCH   2  13
TORSDOF 2
ENDMDL
MODEL 3
REMARK VINA RESULT:      -9.2      1.375      1.690
REMARK  Name = 9991833
REMARK  2 active torsions:
REMARK  status: ('A' for Active; 'I' for Inactive)
REMARK    1  A    between atoms: N_2  and  C_13
REMARK    2  A    between atoms: C_13  and  C_15
REMARK                            x       y       z     vdW  Elec       q    Type
REMARK                         _______ _______ _______ _____ _____    ______ ____
ROOT
ATOM      1  N   UNL     1      34.631 -16.356 -22.589  0.00  0.00    -0.248 N 
ATOM      2  N   UNL     1      35.798 -19.195 -20.513  0.00  0.00    -0.312 N 
ATOM      3  N   UNL     1      34.986 -16.346 -20.387  0.00  0.00    -0.225 NA
ATOM      4  N   UNL     1      35.378 -19.022 -22.806  0.00  0.00    -0.225 NA
ATOM      5  C   UNL     1      35.019 -17.068 -21.483  0.00  0.00    +0.171 C 
ATOM      6  C   UNL     1      34.329 -15.092 -22.172  0.00  0.00    +0.054 C 
ATOM      7  C   UNL     1      35.408 -18.464 -21.610  0.00  0.00    +0.161 C 
ATOM      8  C   UNL     1      34.610 -16.965 -23.826  0.00  0.00    +0.091 C 
ATOM      9  C   UNL     1      34.554 -15.110 -20.811  0.00  0.00    +0.111 C 
ATOM     10  C   UNL     1      33.868 -14.017 -23.069  0.00  0.00    +0.049 C 
ATOM     11  C   UNL     1      34.979 -18.257 -23.893  0.00  0.00    +0.117 C 
ATOM     12  H   UNL     1      35.810 -18.754 -19.634  0.00  0.00    +0.149 HD
ENDROOT
BRANCH   2  13
ATOM     13  C   UNL     1      36.190 -20.573 -20.592  0.00  0.00    +0.116 C 
BRANCH  13  15
ATOM     14  N   UNL     1      34.800 -22.830 -17.223  0.00  0.00    -0.242 NA
ATOM     15  C   UNL     1      35.703 -21.363 -19.411  0.00  0.00    +0.000 C 
ATOM     16  C   UNL     1      36.545 -21.575 -18.332  0.00  0.00    +0.018 C 
ATOM     17  C   UNL     1      34.416 -21.876 -19.411  0.00  0.00    +0.018 C 
ATOM     18  C   UNL     1      36.048 -22.311 -17.268  0.00  0.00    +0.099 C 
ATOM     19  C   UNL     1      34.015 -22.598 -18.299  0.00  0.00    +0.099 C 
ENDBRANCH  13  15
ENDBRANCH   2  13
TORSDOF 2
ENDMDL
MODEL 4
REMARK VINA RESULT:      -9.1      3.580      8.746
REMARK  Name = 9991833
REMARK  2 active torsions:
REMARK  status: ('A' for Active; 'I' for Inactive)
REMARK    1  A    between atoms: N_2  and  C_13
REMARK    2  A    between atoms: C_13  and  C_15
REMARK                            x       y       z     vdW  Elec       q    Type
REMARK                         _______ _______ _______ _____ _____    ______ ____
ROOT
ATOM      1  N   UNL     1      32.085 -23.677 -15.206  0.00  0.00    -0.248 N 
ATOM      2  N   UNL     1      33.114 -22.564 -18.588  0.00  0.00    -0.312 N 
ATOM      3  N   UNL     1      30.764 -22.850 -16.801  0.00  0.00    -0.225 NA
ATOM      4  N   UNL     1      34.342 -23.449 -16.808  0.00  0.00    -0.225 NA
ATOM      5  C   UNL     1      31.994 -23.177 -16.481  0.00  0.00    +0.171 C 
ATOM      6  C   UNL     1      30.828 -23.667 -14.676  0.00  0.00    +0.054 C 
ATOM      7  C   UNL     1      33.184 -23.063 -17.309  0.00  0.00    +0.161 C 
ATOM      8  C   UNL     1      33.310 -24.072 -14.709  0.00  0.00    +0.091 C 
ATOM      9  C   UNL     1      30.031 -23.153 -15.677  0.00  0.00    +0.111 C 
ATOM     10  C   UNL     1      30.505 -24.129 -13.315  0.00  0.00    +0.049 C 
ATOM     11  C   UNL     1      34.380 -23.947 -15.513  0.00  0.00    +0.117 C 
ATOM     12  H   UNL     1      32.237 -22.284 -18.936  0.00  0.00    +0.149 HD
ENDROOT
BRANCH   2  13
ATOM     13  C   UNL     1      34.260 -22.434 -19.440  0.00  0.00    +0.116 C 
BRANCH  13  15
ATOM     14  N   UNL     1      34.480 -18.553 -21.248  0.00  0.00    -0.242 NA
ATOM     15  C   UNL     1      34.338 -21.074 -20.074  0.00  0.00    +0.000 C 
ATOM     16  C   UNL     1      35.571 -20.542 -20.410  0.00  0.00    +0.018 C 
ATOM     17  C   UNL     1      33.174 -20.363 -20.317  0.00  0.00    +0.018 C 
ATOM     18  C   UNL     1      35.588 -19.284 -20.991  0.00  0.00    +0.099 C 
ATOM     19  C   UNL     1      33.299 -19.113 -20.903  0.00  0.00    +0.099 C 
ENDBRANCH  13  15
ENDBRANCH   2  13
TORSDOF 2
ENDMDL
MODEL 5
REMARK VINA RESULT:      -8.9      3.327      6.025
REMARK  Name = 9991833
REMARK  2 active torsions:
REMARK  status: ('A' for Active; 'I' for Inactive)
REMARK    1  A    between atoms: N_2  and  C_13
REMARK    2  A    between atoms: C_13  and  C_15
REMARK                            x       y       z     vdW  Elec       q    Type
REMARK                         _______ _______ _______ _____ _____    ______ ____
ROOT
ATOM      1  N   UNL     1      34.915 -20.307 -20.500  0.00  0.00    -0.248 N 
ATOM      2  N   UNL     1      32.992 -22.582 -18.295  0.00  0.00    -0.312 N 
ATOM      3  N   UNL     1      32.695 -20.493 -20.379  0.00  0.00    -0.225 NA
ATOM      4  N   UNL     1      35.291 -22.252 -18.554  0.00  0.00    -0.225 NA
ATOM      5  C   UNL     1      33.842 -20.930 -19.913  0.00  0.00    +0.171 C 
ATOM      6  C   UNL     1      34.419 -19.413 -21.404  0.00  0.00    +0.054 C 
ATOM      7  C   UNL     1      34.053 -21.947 -18.894  0.00  0.00    +0.161 C 
ATOM      8  C   UNL     1      36.197 -20.648 -20.123  0.00  0.00    +0.091 C 
ATOM      9  C   UNL     1      33.049 -19.545 -21.312  0.00  0.00    +0.111 C 
ATOM     10  C   UNL     1      35.259 -18.542 -22.245  0.00  0.00    +0.049 C 
ATOM     11  C   UNL     1      36.340 -21.593 -19.178  0.00  0.00    +0.117 C 
ATOM     12  H   UNL     1      32.080 -22.334 -18.570  0.00  0.00    +0.149 HD
ENDROOT
BRANCH   2  13
ATOM     13  C   UNL     1      33.153 -23.591 -17.288  0.00  0.00    +0.116 C 
BRANCH  13  15
ATOM     14  N   UNL     1      30.441 -23.035 -14.015  0.00  0.00    -0.242 NA
ATOM     15  C   UNL     1      32.202 -23.396 -16.142  0.00  0.00    +0.000 C 
ATOM     16  C   UNL     1      30.884 -23.051 -16.392  0.00  0.00    +0.018 C 
ATOM     17  C   UNL     1      32.651 -23.564 -14.841  0.00  0.00    +0.018 C 
ATOM     18  C   UNL     1      30.048 -22.883 -15.300  0.00  0.00    +0.099 C 
ATOM     19  C   UNL     1      31.735 -23.372 -13.819  0.00  0.00    +0.099 C 
ENDBRANCH  13  15
ENDBRANCH   2  13
TORSDOF 2
ENDMDL
MODEL 6
REMARK VINA RESULT:      -8.7      4.077      9.411
REMARK  Name = 9991833
REMARK  2 active torsions:
REMARK  status: ('A' for Active; 'I' for Inactive)
REMARK    1  A    between atoms: N_2  and  C_13
REMARK    2  A    between atoms: C_13  and  C_15
REMARK                            x       y       z     vdW  Elec       q    Type
REMARK                         _______ _______ _______ _____ _____    ______ ____
ROOT
ATOM      1  N   UNL     1      34.965 -24.187 -14.233  0.00  0.00    -0.248 N 
ATOM      2  N   UNL     1      34.414 -22.845 -17.643  0.00  0.00    -0.312 N 
ATOM      3  N   UNL     1      36.524 -23.751 -15.767  0.00  0.00    -0.225 NA
ATOM      4  N   UNL     1      32.921 -23.356 -15.919  0.00  0.00    -0.225 NA
ATOM      5  C   UNL     1      35.239 -23.734 -15.499  0.00  0.00    +0.171 C 
ATOM      6  C   UNL     1      36.156 -24.517 -13.654  0.00  0.00    +0.054 C 
ATOM      7  C   UNL     1      34.159 -23.301 -16.372  0.00  0.00    +0.161 C 
ATOM      8  C   UNL     1      33.661 -24.233 -13.788  0.00  0.00    +0.091 C 
ATOM      9  C   UNL     1      37.102 -24.241 -14.618  0.00  0.00    +0.111 C 
ATOM     10  C   UNL     1      36.286 -25.048 -12.285  0.00  0.00    +0.049 C 
ATOM     11  C   UNL     1      32.697 -23.822 -14.632  0.00  0.00    +0.117 C 
ATOM     12  H   UNL     1      35.347 -22.816 -17.954  0.00  0.00    +0.149 HD
ENDROOT
BRANCH   2  13
ATOM     13  C   UNL     1      33.381 -22.410 -18.538  0.00  0.00    +0.116 C 
BRANCH  13  15
ATOM     14  N   UNL     1      34.782 -19.420 -21.273  0.00  0.00    -0.242 NA
ATOM     15  C   UNL     1      33.872 -21.363 -19.496  0.00  0.00    +0.000 C 
ATOM     16  C   UNL     1      35.228 -21.245 -19.751  0.00  0.00    +0.018 C 
ATOM     17  C   UNL     1      32.964 -20.521 -20.119  0.00  0.00    +0.018 C 
ATOM     18  C   UNL     1      35.630 -20.264 -20.642  0.00  0.00    +0.099 C 
ATOM     19  C   UNL     1      33.467 -19.571 -20.993  0.00  0.00    +0.099 C 
ENDBRANCH  13  15
ENDBRANCH   2  13
TORSDOF 2
ENDMDL
MODEL 7
REMARK VINA RESULT:      -8.7      1.453      6.612
REMARK  Name = 9991833
REMARK  2 active torsions:
REMARK  status: ('A' for Active; 'I' for Inactive)
REMARK    1  A    between atoms: N_2  and  C_13
REMARK    2  A    between atoms: C_13  and  C_15
REMARK                            x       y       z     vdW  Elec       q    Type
REMARK                         _______ _______ _______ _____ _____    ______ ____
ROOT
ATOM      1  N   UNL     1      34.947 -20.575 -20.085  0.00  0.00    -0.248 N 
ATOM      2  N   UNL     1      34.567 -17.605 -22.268  0.00  0.00    -0.312 N 
ATOM      3  N   UNL     1      33.036 -19.696 -20.825  0.00  0.00    -0.225 NA
ATOM      4  N   UNL     1      36.465 -18.660 -21.403  0.00  0.00    -0.225 NA
ATOM      5  C   UNL     1      34.345 -19.594 -20.830  0.00  0.00    +0.171 C 
ATOM      6  C   UNL     1      33.956 -21.357 -19.566  0.00  0.00    +0.054 C 
ATOM      7  C   UNL     1      35.152 -18.597 -21.517  0.00  0.00    +0.161 C 
ATOM      8  C   UNL     1      36.322 -20.616 -19.985  0.00  0.00    +0.091 C 
ATOM      9  C   UNL     1      32.787 -20.795 -20.036  0.00  0.00    +0.111 C 
ATOM     10  C   UNL     1      34.196 -22.526 -18.701  0.00  0.00    +0.049 C 
ATOM     11  C   UNL     1      37.024 -19.672 -20.637  0.00  0.00    +0.117 C 
ATOM     12  H   UNL     1      33.585 -17.583 -22.334  0.00  0.00    +0.149 HD
ENDROOT
BRANCH   2  13
ATOM     13  C   UNL     1      35.322 -16.602 -22.961  0.00  0.00    +0.116 C 
BRANCH  13  15
ATOM     14  N   UNL     1      32.846 -14.210 -25.515  0.00  0.00    -0.242 NA
ATOM     15  C   UNL     1      34.455 -15.764 -23.855  0.00  0.00    +0.000 C 
ATOM     16  C   UNL     1      34.021 -14.521 -23.425  0.00  0.00    +0.018 C 
ATOM     17  C   UNL     1      34.094 -16.240 -25.106  0.00  0.00    +0.018 C 
ATOM     18  C   UNL     1      33.223 -13.787 -24.287  0.00  0.00    +0.099 C 
ATOM     19  C   UNL     1      33.292 -15.429 -25.893  0.00  0.00    +0.099 C 
ENDBRANCH  13  15
ENDBRANCH   2  13
TORSDOF 2
ENDMDL
MODEL 8
REMARK VINA RESULT:      -8.6      3.414      7.466
REMARK  Name = 9991833
REMARK  2 active torsions:
REMARK  status: ('A' for Active; 'I' for Inactive)
REMARK    1  A    between atoms: N_2  and  C_13
REMARK    2  A    between atoms: C_13  and  C_15
REMARK                            x       y       z     vdW  Elec       q    Type
REMARK                         _______ _______ _______ _____ _____    ______ ____
ROOT
ATOM      1  N   UNL     1      34.341 -16.212 -23.104  0.00  0.00    -0.248 N 
ATOM      2  N   UNL     1      32.388 -13.375 -21.735  0.00  0.00    -0.312 N 
ATOM      3  N   UNL     1      34.036 -15.714 -20.952  0.00  0.00    -0.225 NA
ATOM      4  N   UNL     1      32.811 -14.048 -23.933  0.00  0.00    -0.225 NA
ATOM      5  C   UNL     1      33.769 -15.365 -22.189  0.00  0.00    +0.171 C 
ATOM      6  C   UNL     1      35.022 -17.166 -22.404  0.00  0.00    +0.054 C 
ATOM      7  C   UNL     1      32.969 -14.235 -22.637  0.00  0.00    +0.161 C 
ATOM      8  C   UNL     1      34.158 -15.991 -24.453  0.00  0.00    +0.091 C 
ATOM      9  C   UNL     1      34.819 -16.837 -21.080  0.00  0.00    +0.111 C 
ATOM     10  C   UNL     1      35.777 -18.265 -23.031  0.00  0.00    +0.049 C 
ATOM     11  C   UNL     1      33.411 -14.933 -24.817  0.00  0.00    +0.117 C 
ATOM     12  H   UNL     1      32.524 -13.540 -20.774  0.00  0.00    +0.149 HD
ENDROOT
BRANCH   2  13
ATOM     13  C   UNL     1      31.593 -12.249 -22.131  0.00  0.00    +0.116 C 
BRANCH  13  15
ATOM     14  N   UNL     1      31.963  -8.979 -19.384  0.00  0.00    -0.242 NA
ATOM     15  C   UNL     1      31.723 -11.104 -21.168  0.00  0.00    +0.000 C 
ATOM     16  C   UNL     1      31.585 -11.329 -19.809  0.00  0.00    +0.018 C 
ATOM     17  C   UNL     1      31.979  -9.829 -21.648  0.00  0.00    +0.018 C 
ATOM     18  C   UNL     1      31.713 -10.239 -18.963  0.00  0.00    +0.099 C 
ATOM     19  C   UNL     1      32.089  -8.806 -20.719  0.00  0.00    +0.099 C 
ENDBRANCH  13  15
ENDBRANCH   2  13
TORSDOF 2
ENDMDL
MODEL 9
REMARK VINA RESULT:      -8.4      3.980      8.399
REMARK  Name = 9991833
REMARK  2 active torsions:
REMARK  status: ('A' for Active; 'I' for Inactive)
REMARK    1  A    between atoms: N_2  and  C_13
REMARK    2  A    between atoms: C_13  and  C_15
REMARK                            x       y       z     vdW  Elec       q    Type
REMARK                         _______ _______ _______ _____ _____    ______ ____
ROOT
ATOM      1  N   UNL     1      33.672 -15.337 -23.054  0.00  0.00    -0.248 N 
ATOM      2  N   UNL     1      31.643 -12.339 -22.262  0.00  0.00    -0.312 N 
ATOM      3  N   UNL     1      32.719 -13.944 -24.512  0.00  0.00    -0.225 NA
ATOM      4  N   UNL     1      32.710 -13.896 -20.884  0.00  0.00    -0.225 NA
ATOM      5  C   UNL     1      32.908 -14.213 -23.241  0.00  0.00    +0.171 C 
ATOM      6  C   UNL     1      33.992 -15.820 -24.290  0.00  0.00    +0.054 C 
ATOM      7  C   UNL     1      32.410 -13.467 -22.095  0.00  0.00    +0.161 C 
ATOM      8  C   UNL     1      33.969 -15.761 -21.776  0.00  0.00    +0.091 C 
ATOM      9  C   UNL     1      33.393 -14.945 -25.172  0.00  0.00    +0.111 C 
ATOM     10  C   UNL     1      34.808 -17.026 -24.517  0.00  0.00    +0.049 C 
ATOM     11  C   UNL     1      33.486 -15.038 -20.750  0.00  0.00    +0.117 C 
ATOM     12  H   UNL     1      31.435 -12.043 -23.177  0.00  0.00    +0.149 HD
ENDROOT
BRANCH   2  13
ATOM     13  C   UNL     1      31.131 -11.573 -21.163  0.00  0.00    +0.116 C 
BRANCH  13  15
ATOM     14  N   UNL     1      32.404  -7.484 -21.325  0.00  0.00    -0.242 NA
ATOM     15  C   UNL     1      31.577 -10.141 -21.220  0.00  0.00    +0.000 C 
ATOM     16  C   UNL     1      31.615  -9.480 -22.437  0.00  0.00    +0.018 C 
ATOM     17  C   UNL     1      31.947  -9.489 -20.054  0.00  0.00    +0.018 C 
ATOM     18  C   UNL     1      32.034  -8.159 -22.436  0.00  0.00    +0.099 C 
ATOM     19  C   UNL     1      32.352  -8.168 -20.160  0.00  0.00    +0.099 C 
ENDBRANCH  13  15
ENDBRANCH   2  13
TORSDOF 2
ENDMDL
