MODEL 1
REMARK VINA RESULT:     -10.4      0.000      0.000
REMARK  Name = 16129579
REMARK  9 active torsions:
REMARK  status: ('A' for Active; 'I' for Inactive)
REMARK    1  A    between atoms: S_1  and  C_4
REMARK    2  A    between atoms: S_1  and  C_17
REMARK    3  A    between atoms: C_9  and  O_10
REMARK    4  A    between atoms: O_10  and  C_11
REMARK    5  A    between atoms: C_17  and  C_18
REMARK    6  A    between atoms: C_18  and  C_22
REMARK    7  A    between atoms: C_18  and  C_25
REMARK    8  A    between atoms: C_18  and  N_29
REMARK    9  A    between atoms: N_24  and  O_27
REMARK                            x       y       z     vdW  Elec       q    Type
REMARK                         _______ _______ _______ _____ _____    ______ ____
ROOT
ATOM      1  S   UNL     1      35.548 -18.254 -21.470  0.00  0.00    +0.007 S 
ATOM      2  O   UNL     1      35.499 -17.211 -20.461  0.00  0.00    -0.169 OA
ATOM      3  O   UNL     1      36.788 -18.538 -22.170  0.00  0.00    -0.169 OA
ENDROOT
BRANCH   1   4
ATOM      4  C   UNL     1      35.006 -19.748 -20.694  0.00  0.00    +0.106 C 
ATOM      5  C   UNL     1      35.949 -20.659 -20.250  0.00  0.00    +0.021 C 
ATOM      6  C   UNL     1      33.649 -19.979 -20.546  0.00  0.00    +0.021 C 
ATOM      7  C   UNL     1      35.522 -21.838 -19.638  0.00  0.00    +0.039 C 
ATOM      8  C   UNL     1      33.223 -21.158 -19.934  0.00  0.00    +0.039 C 
ATOM      9  C   UNL     1      34.160 -22.087 -19.480  0.00  0.00    +0.145 C 
BRANCH   9  10
ATOM     10  O   UNL     1      33.743 -23.236 -18.882  0.00  0.00    -0.453 OA
BRANCH  10  11
ATOM     11  C   UNL     1      33.465 -23.193 -17.527  0.00  0.00    +0.145 C 
ATOM     12  C   UNL     1      34.514 -23.180 -16.625  0.00  0.00    +0.037 C 
ATOM     13  C   UNL     1      32.147 -23.163 -17.109  0.00  0.00    +0.037 C 
ATOM     14  C   UNL     1      34.235 -23.136 -15.258  0.00  0.00    +0.003 C 
ATOM     15  C   UNL     1      31.869 -23.120 -15.743  0.00  0.00    +0.003 C 
ATOM     16  C   UNL     1      32.912 -23.106 -14.818  0.00  0.00    +0.000 C 
ENDBRANCH  10  11
ENDBRANCH   9  10
ENDBRANCH   1   4
BRANCH   1  17
ATOM     17  C   UNL     1      34.307 -17.929 -22.683  0.00  0.00    +0.153 C 
BRANCH  17  18
ATOM     18  C   UNL     1      34.428 -16.560 -23.375  0.00  0.00    +0.135 C 
BRANCH  18  22
ATOM     19  F   UNL     1      32.976 -15.976 -21.574  0.00  0.00    -0.172 F 
ATOM     20  F   UNL     1      32.750 -14.852 -23.425  0.00  0.00    -0.172 F 
ATOM     21  F   UNL     1      34.478 -14.508 -22.151  0.00  0.00    -0.172 F 
ATOM     22  C   UNL     1      33.652 -15.467 -22.629  0.00  0.00    +0.391 C 
ENDBRANCH  18  22
BRANCH  18  25
ATOM     23  O   UNL     1      33.889 -17.667 -25.473  0.00  0.00    -0.275 OA
ATOM     24  N   UNL     1      33.800 -15.371 -25.422  0.00  0.00    -0.198 N 
ATOM     25  C   UNL     1      34.012 -16.606 -24.858  0.00  0.00    +0.235 C 
ATOM     26  H   UNL     1      33.906 -14.537 -24.910  0.00  0.00    +0.182 HD
BRANCH  24  27
ATOM     27  O   UNL     1      33.427 -15.373 -26.773  0.00  0.00    -0.295 OA
ATOM     28  H   UNL     1      33.922 -14.686 -27.247  0.00  0.00    +0.241 HD
ENDBRANCH  24  27
ENDBRANCH  18  25
BRANCH  18  29
ATOM     29  N   UNL     1      35.844 -16.155 -23.370  0.00  0.00    +0.395 N 
ATOM     30  H   UNL     1      36.214 -16.203 -24.319  0.00  0.00    -0.088 HD
ATOM     31  H   UNL     1      36.375 -16.783 -22.766  0.00  0.00    -0.088 HD
ATOM     32  H   UNL     1      35.923 -15.200 -23.021  0.00  0.00    -0.088 HD
ENDBRANCH  18  29
ENDBRANCH  17  18
ENDBRANCH   1  17
TORSDOF 9
ENDMDL
MODEL 2
REMARK VINA RESULT:     -10.3      1.420      2.063
REMARK  Name = 16129579
REMARK  9 active torsions:
REMARK  status: ('A' for Active; 'I' for Inactive)
REMARK    1  A    between atoms: S_1  and  C_4
REMARK    2  A    between atoms: S_1  and  C_17
REMARK    3  A    between atoms: C_9  and  O_10
REMARK    4  A    between atoms: O_10  and  C_11
REMARK    5  A    between atoms: C_17  and  C_18
REMARK    6  A    between atoms: C_18  and  C_22
REMARK    7  A    between atoms: C_18  and  C_25
REMARK    8  A    between atoms: C_18  and  N_29
REMARK    9  A    between atoms: N_24  and  O_27
REMARK                            x       y       z     vdW  Elec       q    Type
REMARK                         _______ _______ _______ _____ _____    ______ ____
ROOT
ATOM      1  S   UNL     1      35.030 -18.610 -21.450  0.00  0.00    +0.007 S 
ATOM      2  O   UNL     1      36.078 -17.947 -20.695  0.00  0.00    -0.169 OA
ATOM      3  O   UNL     1      35.244 -18.967 -22.841  0.00  0.00    -0.169 OA
ENDROOT
BRANCH   1   4
ATOM      4  C   UNL     1      34.612 -20.084 -20.567  0.00  0.00    +0.106 C 
ATOM      5  C   UNL     1      33.281 -20.360 -20.305  0.00  0.00    +0.021 C 
ATOM      6  C   UNL     1      35.623 -20.934 -20.155  0.00  0.00    +0.021 C 
ATOM      7  C   UNL     1      32.951 -21.523 -19.609  0.00  0.00    +0.039 C 
ATOM      8  C   UNL     1      35.293 -22.097 -19.459  0.00  0.00    +0.039 C 
ATOM      9  C   UNL     1      33.957 -22.391 -19.186  0.00  0.00    +0.145 C 
BRANCH   9  10
ATOM     10  O   UNL     1      33.635 -23.526 -18.508  0.00  0.00    -0.453 OA
BRANCH  10  11
ATOM     11  C   UNL     1      33.289 -23.402 -17.173  0.00  0.00    +0.145 C 
ATOM     12  C   UNL     1      31.960 -23.219 -16.836  0.00  0.00    +0.037 C 
ATOM     13  C   UNL     1      34.281 -23.465 -16.211  0.00  0.00    +0.037 C 
ATOM     14  C   UNL     1      31.610 -23.093 -15.491  0.00  0.00    +0.003 C 
ATOM     15  C   UNL     1      33.931 -23.340 -14.866  0.00  0.00    +0.003 C 
ATOM     16  C   UNL     1      32.597 -23.154 -14.506  0.00  0.00    +0.000 C 
ENDBRANCH  10  11
ENDBRANCH   9  10
ENDBRANCH   1   4
BRANCH   1  17
ATOM     17  C   UNL     1      33.563 -17.631 -21.364  0.00  0.00    +0.153 C 
BRANCH  17  18
ATOM     18  C   UNL     1      33.796 -16.114 -21.466  0.00  0.00    +0.135 C 
BRANCH  18  22
ATOM     19  F   UNL     1      31.544 -16.127 -20.679  0.00  0.00    -0.172 F 
ATOM     20  F   UNL     1      32.080 -14.571 -22.104  0.00  0.00    -0.172 F 
ATOM     21  F   UNL     1      32.801 -14.460 -20.056  0.00  0.00    -0.172 F 
ATOM     22  C   UNL     1      32.547 -15.312 -21.077  0.00  0.00    +0.391 C 
ENDBRANCH  18  22
BRANCH  18  25
ATOM     23  O   UNL     1      34.970 -14.660 -23.022  0.00  0.00    -0.275 OA
ATOM     24  N   UNL     1      33.952 -16.536 -23.873  0.00  0.00    -0.198 N 
ATOM     25  C   UNL     1      34.307 -15.684 -22.855  0.00  0.00    +0.235 C 
ATOM     26  H   UNL     1      33.421 -17.349 -23.714  0.00  0.00    +0.182 HD
BRANCH  24  27
ATOM     27  O   UNL     1      34.394 -16.174 -25.154  0.00  0.00    -0.295 OA
ATOM     28  H   UNL     1      33.649 -16.210 -25.774  0.00  0.00    +0.241 HD
ENDBRANCH  24  27
ENDBRANCH  18  25
BRANCH  18  29
ATOM     29  N   UNL     1      34.856 -15.737 -20.516  0.00  0.00    +0.395 N 
ATOM     30  H   UNL     1      34.509 -15.835 -19.562  0.00  0.00    -0.088 HD
ATOM     31  H   UNL     1      35.130 -14.767 -20.680  0.00  0.00    -0.088 HD
ATOM     32  H   UNL     1      35.664 -16.345 -20.649  0.00  0.00    -0.088 HD
ENDBRANCH  18  29
ENDBRANCH  17  18
ENDBRANCH   1  17
TORSDOF 9
ENDMDL
MODEL 3
REMARK VINA RESULT:     -10.2      6.848     10.514
REMARK  Name = 16129579
REMARK  9 active torsions:
REMARK  status: ('A' for Active; 'I' for Inactive)
REMARK    1  A    between atoms: S_1  and  C_4
REMARK    2  A    between atoms: S_1  and  C_17
REMARK    3  A    between atoms: C_9  and  O_10
REMARK    4  A    between atoms: O_10  and  C_11
REMARK    5  A    between atoms: C_17  and  C_18
REMARK    6  A    between atoms: C_18  and  C_22
REMARK    7  A    between atoms: C_18  and  C_25
REMARK    8  A    between atoms: C_18  and  N_29
REMARK    9  A    between atoms: N_24  and  O_27
REMARK                            x       y       z     vdW  Elec       q    Type
REMARK                         _______ _______ _______ _____ _____    ______ ____
ROOT
ATOM      1  S   UNL     1      34.812 -23.683 -15.009  0.00  0.00    +0.007 S 
ATOM      2  O   UNL     1      33.789 -22.852 -14.399  0.00  0.00    -0.169 OA
ATOM      3  O   UNL     1      34.572 -25.099 -15.224  0.00  0.00    -0.169 OA
ENDROOT
BRANCH   1   4
ATOM      4  C   UNL     1      35.205 -22.953 -16.572  0.00  0.00    +0.106 C 
ATOM      5  C   UNL     1      34.276 -23.011 -17.597  0.00  0.00    +0.021 C 
ATOM      6  C   UNL     1      36.433 -22.339 -16.740  0.00  0.00    +0.021 C 
ATOM      7  C   UNL     1      34.586 -22.435 -18.829  0.00  0.00    +0.039 C 
ATOM      8  C   UNL     1      36.743 -21.764 -17.973  0.00  0.00    +0.039 C 
ATOM      9  C   UNL     1      35.819 -21.812 -19.017  0.00  0.00    +0.145 C 
BRANCH   9  10
ATOM     10  O   UNL     1      36.121 -21.250 -20.219  0.00  0.00    -0.453 OA
BRANCH  10  11
ATOM     11  C   UNL     1      35.439 -20.102 -20.582  0.00  0.00    +0.145 C 
ATOM     12  C   UNL     1      36.158 -18.968 -20.913  0.00  0.00    +0.037 C 
ATOM     13  C   UNL     1      34.056 -20.117 -20.605  0.00  0.00    +0.037 C 
ATOM     14  C   UNL     1      35.472 -17.809 -21.279  0.00  0.00    +0.003 C 
ATOM     15  C   UNL     1      33.370 -18.959 -20.970  0.00  0.00    +0.003 C 
ATOM     16  C   UNL     1      34.077 -17.806 -21.307  0.00  0.00    +0.000 C 
ENDBRANCH  10  11
ENDBRANCH   9  10
ENDBRANCH   1   4
BRANCH   1  17
ATOM     17  C   UNL     1      36.302 -23.524 -14.077  0.00  0.00    +0.153 C 
BRANCH  17  18
ATOM     18  C   UNL     1      36.364 -24.397 -12.811  0.00  0.00    +0.135 C 
BRANCH  18  22
ATOM     19  F   UNL     1      38.341 -24.036 -11.524  0.00  0.00    -0.172 F 
ATOM     20  F   UNL     1      36.443 -23.933 -10.464  0.00  0.00    -0.172 F 
ATOM     21  F   UNL     1      37.020 -22.328 -11.811  0.00  0.00    -0.172 F 
ATOM     22  C   UNL     1      37.044 -23.670 -11.643  0.00  0.00    +0.391 C 
ENDBRANCH  18  22
BRANCH  18  25
ATOM     23  O   UNL     1      37.050 -26.653 -12.214  0.00  0.00    -0.275 OA
ATOM     24  N   UNL     1      37.604 -25.887 -14.309  0.00  0.00    -0.198 N 
ATOM     25  C   UNL     1      37.033 -25.762 -13.065  0.00  0.00    +0.235 C 
ATOM     26  H   UNL     1      37.577 -25.161 -14.973  0.00  0.00    +0.182 HD
BRANCH  24  27
ATOM     27  O   UNL     1      38.228 -27.114 -14.574  0.00  0.00    -0.295 OA
ATOM     28  H   UNL     1      38.833 -27.332 -13.847  0.00  0.00    +0.241 HD
ENDBRANCH  24  27
ENDBRANCH  18  25
BRANCH  18  29
ATOM     29  N   UNL     1      34.989 -24.700 -12.382  0.00  0.00    +0.395 N 
ATOM     30  H   UNL     1      34.921 -24.603 -11.368  0.00  0.00    -0.088 HD
ATOM     31  H   UNL     1      34.752 -25.656 -12.648  0.00  0.00    -0.088 HD
ATOM     32  H   UNL     1      34.342 -24.052 -12.830  0.00  0.00    -0.088 HD
ENDBRANCH  18  29
ENDBRANCH  17  18
ENDBRANCH   1  17
TORSDOF 9
ENDMDL
MODEL 4
REMARK VINA RESULT:     -10.1      6.663     10.236
REMARK  Name = 16129579
REMARK  9 active torsions:
REMARK  status: ('A' for Active; 'I' for Inactive)
REMARK    1  A    between atoms: S_1  and  C_4
REMARK    2  A    between atoms: S_1  and  C_17
REMARK    3  A    between atoms: C_9  and  O_10
REMARK    4  A    between atoms: O_10  and  C_11
REMARK    5  A    between atoms: C_17  and  C_18
REMARK    6  A    between atoms: C_18  and  C_22
REMARK    7  A    between atoms: C_18  and  C_25
REMARK    8  A    between atoms: C_18  and  N_29
REMARK    9  A    between atoms: N_24  and  O_27
REMARK                            x       y       z     vdW  Elec       q    Type
REMARK                         _______ _______ _______ _____ _____    ______ ____
ROOT
ATOM      1  S   UNL     1      34.905 -23.675 -15.237  0.00  0.00    +0.007 S 
ATOM      2  O   UNL     1      33.684 -23.075 -14.731  0.00  0.00    -0.169 OA
ATOM      3  O   UNL     1      34.985 -25.111 -15.442  0.00  0.00    -0.169 OA
ENDROOT
BRANCH   1   4
ATOM      4  C   UNL     1      35.270 -22.884 -16.776  0.00  0.00    +0.106 C 
ATOM      5  C   UNL     1      36.491 -22.251 -16.936  0.00  0.00    +0.021 C 
ATOM      6  C   UNL     1      34.329 -22.912 -17.790  0.00  0.00    +0.021 C 
ATOM      7  C   UNL     1      36.780 -21.627 -18.151  0.00  0.00    +0.039 C 
ATOM      8  C   UNL     1      34.618 -22.288 -19.003  0.00  0.00    +0.039 C 
ATOM      9  C   UNL     1      35.843 -21.645 -19.184  0.00  0.00    +0.145 C 
BRANCH   9  10
ATOM     10  O   UNL     1      36.124 -21.037 -20.368  0.00  0.00    -0.453 OA
BRANCH  10  11
ATOM     11  C   UNL     1      35.413 -19.894 -20.690  0.00  0.00    +0.145 C 
ATOM     12  C   UNL     1      36.102 -18.741 -21.018  0.00  0.00    +0.037 C 
ATOM     13  C   UNL     1      34.030 -19.934 -20.674  0.00  0.00    +0.037 C 
ATOM     14  C   UNL     1      35.386 -17.589 -21.342  0.00  0.00    +0.003 C 
ATOM     15  C   UNL     1      33.314 -18.782 -20.998  0.00  0.00    +0.003 C 
ATOM     16  C   UNL     1      33.991 -17.610 -21.332  0.00  0.00    +0.000 C 
ENDBRANCH  10  11
ENDBRANCH   9  10
ENDBRANCH   1   4
BRANCH   1  17
ATOM     17  C   UNL     1      36.245 -23.205 -14.188  0.00  0.00    +0.153 C 
BRANCH  17  18
ATOM     18  C   UNL     1      36.665 -24.275 -13.165  0.00  0.00    +0.135 C 
BRANCH  18  22
ATOM     19  F   UNL     1      37.491 -22.321 -12.072  0.00  0.00    -0.172 F 
ATOM     20  F   UNL     1      38.602 -24.167 -11.761  0.00  0.00    -0.172 F 
ATOM     21  F   UNL     1      36.668 -23.891 -10.806  0.00  0.00    -0.172 F 
ATOM     22  C   UNL     1      37.364 -23.662 -11.944  0.00  0.00    +0.391 C 
ENDBRANCH  18  22
BRANCH  18  25
ATOM     23  O   UNL     1      37.619 -26.509 -13.296  0.00  0.00    -0.275 OA
ATOM     24  N   UNL     1      38.206 -24.999 -14.926  0.00  0.00    -0.198 N 
ATOM     25  C   UNL     1      37.536 -25.383 -13.789  0.00  0.00    +0.235 C 
ATOM     26  H   UNL     1      38.125 -24.092 -15.301  0.00  0.00    +0.182 HD
BRANCH  24  27
ATOM     27  O   UNL     1      39.014 -25.979 -15.519  0.00  0.00    -0.295 OA
ATOM     28  H   UNL     1      39.428 -25.617 -16.317  0.00  0.00    +0.241 HD
ENDBRANCH  24  27
ENDBRANCH  18  25
BRANCH  18  29
ATOM     29  N   UNL     1      35.455 -24.951 -12.667  0.00  0.00    +0.395 N 
ATOM     30  H   UNL     1      35.464 -24.956 -11.647  0.00  0.00    -0.088 HD
ATOM     31  H   UNL     1      35.436 -25.911 -13.012  0.00  0.00    -0.088 HD
ATOM     32  H   UNL     1      34.628 -24.455 -12.998  0.00  0.00    -0.088 HD
ENDBRANCH  18  29
ENDBRANCH  17  18
ENDBRANCH   1  17
TORSDOF 9
ENDMDL
MODEL 5
REMARK VINA RESULT:      -9.9      6.909     10.623
REMARK  Name = 16129579
REMARK  9 active torsions:
REMARK  status: ('A' for Active; 'I' for Inactive)
REMARK    1  A    between atoms: S_1  and  C_4
REMARK    2  A    between atoms: S_1  and  C_17
REMARK    3  A    between atoms: C_9  and  O_10
REMARK    4  A    between atoms: O_10  and  C_11
REMARK    5  A    between atoms: C_17  and  C_18
REMARK    6  A    between atoms: C_18  and  C_22
REMARK    7  A    between atoms: C_18  and  C_25
REMARK    8  A    between atoms: C_18  and  N_29
REMARK    9  A    between atoms: N_24  and  O_27
REMARK                            x       y       z     vdW  Elec       q    Type
REMARK                         _______ _______ _______ _____ _____    ______ ____
ROOT
ATOM      1  S   UNL     1      35.091 -23.323 -14.860  0.00  0.00    +0.007 S 
ATOM      2  O   UNL     1      36.071 -22.601 -14.069  0.00  0.00    -0.169 OA
ATOM      3  O   UNL     1      33.682 -23.268 -14.508  0.00  0.00    -0.169 OA
ENDROOT
BRANCH   1   4
ATOM      4  C   UNL     1      35.257 -22.760 -16.528  0.00  0.00    +0.106 C 
ATOM      5  C   UNL     1      34.205 -22.941 -17.410  0.00  0.00    +0.021 C 
ATOM      6  C   UNL     1      36.436 -22.151 -16.921  0.00  0.00    +0.021 C 
ATOM      7  C   UNL     1      34.336 -22.496 -18.726  0.00  0.00    +0.039 C 
ATOM      8  C   UNL     1      36.567 -21.707 -18.237  0.00  0.00    +0.039 C 
ATOM      9  C   UNL     1      35.516 -21.880 -19.140  0.00  0.00    +0.145 C 
BRANCH   9  10
ATOM     10  O   UNL     1      35.644 -21.447 -20.423  0.00  0.00    -0.453 OA
BRANCH  10  11
ATOM     11  C   UNL     1      35.198 -20.170 -20.719  0.00  0.00    +0.145 C 
ATOM     12  C   UNL     1      33.838 -19.925 -20.763  0.00  0.00    +0.037 C 
ATOM     13  C   UNL     1      36.125 -19.172 -20.961  0.00  0.00    +0.037 C 
ATOM     14  C   UNL     1      33.387 -18.639 -21.061  0.00  0.00    +0.003 C 
ATOM     15  C   UNL     1      35.674 -17.885 -21.259  0.00  0.00    +0.003 C 
ATOM     16  C   UNL     1      34.307 -17.619 -21.309  0.00  0.00    +0.000 C 
ENDBRANCH  10  11
ENDBRANCH   9  10
ENDBRANCH   1   4
BRANCH   1  17
ATOM     17  C   UNL     1      35.562 -25.022 -14.934  0.00  0.00    +0.153 C 
BRANCH  17  18
ATOM     18  C   UNL     1      36.863 -25.361 -14.185  0.00  0.00    +0.135 C 
BRANCH  18  22
ATOM     19  F   UNL     1      36.905 -27.181 -15.728  0.00  0.00    -0.172 F 
ATOM     20  F   UNL     1      37.005 -27.682 -13.612  0.00  0.00    -0.172 F 
ATOM     21  F   UNL     1      38.728 -26.797 -14.600  0.00  0.00    -0.172 F 
ATOM     22  C   UNL     1      37.377 -26.765 -14.531  0.00  0.00    +0.391 C 
ENDBRANCH  18  22
BRANCH  18  25
ATOM     23  O   UNL     1      37.711 -25.160 -11.914  0.00  0.00    -0.275 OA
ATOM     24  N   UNL     1      35.433 -25.087 -12.215  0.00  0.00    -0.198 N 
ATOM     25  C   UNL     1      36.730 -25.192 -12.659  0.00  0.00    +0.235 C 
ATOM     26  H   UNL     1      34.666 -25.115 -12.830  0.00  0.00    +0.182 HD
BRANCH  24  27
ATOM     27  O   UNL     1      35.273 -24.938 -10.830  0.00  0.00    -0.295 OA
ATOM     28  H   UNL     1      34.566 -25.526 -10.522  0.00  0.00    +0.241 HD
ENDBRANCH  24  27
ENDBRANCH  18  25
BRANCH  18  29
ATOM     29  N   UNL     1      37.907 -24.411 -14.603  0.00  0.00    +0.395 N 
ATOM     30  H   UNL     1      38.199 -23.853 -13.801  0.00  0.00    -0.088 HD
ATOM     31  H   UNL     1      37.536 -23.796 -15.328  0.00  0.00    -0.088 HD
ATOM     32  H   UNL     1      38.707 -24.925 -14.970  0.00  0.00    -0.088 HD
ENDBRANCH  18  29
ENDBRANCH  17  18
ENDBRANCH   1  17
TORSDOF 9
ENDMDL
MODEL 6
REMARK VINA RESULT:      -9.7      7.042     10.349
REMARK  Name = 16129579
REMARK  9 active torsions:
REMARK  status: ('A' for Active; 'I' for Inactive)
REMARK    1  A    between atoms: S_1  and  C_4
REMARK    2  A    between atoms: S_1  and  C_17
REMARK    3  A    between atoms: C_9  and  O_10
REMARK    4  A    between atoms: O_10  and  C_11
REMARK    5  A    between atoms: C_17  and  C_18
REMARK    6  A    between atoms: C_18  and  C_22
REMARK    7  A    between atoms: C_18  and  C_25
REMARK    8  A    between atoms: C_18  and  N_29
REMARK    9  A    between atoms: N_24  and  O_27
REMARK                            x       y       z     vdW  Elec       q    Type
REMARK                         _______ _______ _______ _____ _____    ______ ____
ROOT
ATOM      1  S   UNL     1      34.733 -24.501 -14.516  0.00  0.00    +0.007 S 
ATOM      2  O   UNL     1      33.692 -24.428 -13.507  0.00  0.00    -0.169 OA
ATOM      3  O   UNL     1      35.258 -25.790 -14.933  0.00  0.00    -0.169 OA
ENDROOT
BRANCH   1   4
ATOM      4  C   UNL     1      34.119 -23.672 -15.952  0.00  0.00    +0.106 C 
ATOM      5  C   UNL     1      32.751 -23.562 -16.135  0.00  0.00    +0.021 C 
ATOM      6  C   UNL     1      35.017 -23.148 -16.865  0.00  0.00    +0.021 C 
ATOM      7  C   UNL     1      32.266 -22.907 -17.267  0.00  0.00    +0.039 C 
ATOM      8  C   UNL     1      34.532 -22.494 -17.998  0.00  0.00    +0.039 C 
ATOM      9  C   UNL     1      33.156 -22.374 -18.199  0.00  0.00    +0.145 C 
BRANCH   9  10
ATOM     10  O   UNL     1      32.684 -21.735 -19.304  0.00  0.00    -0.453 OA
BRANCH  10  11
ATOM     11  C   UNL     1      33.533 -20.852 -19.949  0.00  0.00    +0.145 C 
ATOM     12  C   UNL     1      34.895 -21.090 -19.928  0.00  0.00    +0.037 C 
ATOM     13  C   UNL     1      32.997 -19.754 -20.598  0.00  0.00    +0.037 C 
ATOM     14  C   UNL     1      35.752 -20.202 -20.578  0.00  0.00    +0.003 C 
ATOM     15  C   UNL     1      33.854 -18.865 -21.248  0.00  0.00    +0.003 C 
ATOM     16  C   UNL     1      35.230 -19.088 -21.238  0.00  0.00    +0.000 C 
ENDBRANCH  10  11
ENDBRANCH   9  10
ENDBRANCH   1   4
BRANCH   1  17
ATOM     17  C   UNL     1      36.096 -23.506 -13.998  0.00  0.00    +0.153 C 
BRANCH  17  18
ATOM     18  C   UNL     1      37.129 -24.236 -13.122  0.00  0.00    +0.135 C 
BRANCH  18  22
ATOM     19  F   UNL     1      38.903 -23.767 -11.598  0.00  0.00    -0.172 F 
ATOM     20  F   UNL     1      36.887 -23.272 -10.944  0.00  0.00    -0.172 F 
ATOM     21  F   UNL     1      37.863 -22.060 -12.463  0.00  0.00    -0.172 F 
ATOM     22  C   UNL     1      37.696 -23.329 -12.023  0.00  0.00    +0.391 C 
ENDBRANCH  18  22
BRANCH  18  25
ATOM     23  O   UNL     1      39.050 -24.187 -14.614  0.00  0.00    -0.275 OA
ATOM     24  N   UNL     1      38.322 -26.238 -13.876  0.00  0.00    -0.198 N 
ATOM     25  C   UNL     1      38.267 -24.867 -13.948  0.00  0.00    +0.235 C 
ATOM     26  H   UNL     1      37.685 -26.760 -13.337  0.00  0.00    +0.182 HD
BRANCH  24  27
ATOM     27  O   UNL     1      39.342 -26.848 -14.620  0.00  0.00    -0.295 OA
ATOM     28  H   UNL     1      39.716 -27.585 -14.112  0.00  0.00    +0.241 HD
ENDBRANCH  24  27
ENDBRANCH  18  25
BRANCH  18  29
ATOM     29  N   UNL     1      36.459 -25.358 -12.444  0.00  0.00    +0.395 N 
ATOM     30  H   UNL     1      36.559 -26.204 -13.006  0.00  0.00    -0.088 HD
ATOM     31  H   UNL     1      35.469 -25.143 -12.327  0.00  0.00    -0.088 HD
ATOM     32  H   UNL     1      36.885 -25.506 -11.529  0.00  0.00    -0.088 HD
ENDBRANCH  18  29
ENDBRANCH  17  18
ENDBRANCH   1  17
TORSDOF 9
ENDMDL
MODEL 7
REMARK VINA RESULT:      -9.7      4.473      9.347
REMARK  Name = 16129579
REMARK  9 active torsions:
REMARK  status: ('A' for Active; 'I' for Inactive)
REMARK    1  A    between atoms: S_1  and  C_4
REMARK    2  A    between atoms: S_1  and  C_17
REMARK    3  A    between atoms: C_9  and  O_10
REMARK    4  A    between atoms: O_10  and  C_11
REMARK    5  A    between atoms: C_17  and  C_18
REMARK    6  A    between atoms: C_18  and  C_22
REMARK    7  A    between atoms: C_18  and  C_25
REMARK    8  A    between atoms: C_18  and  N_29
REMARK    9  A    between atoms: N_24  and  O_27
REMARK                            x       y       z     vdW  Elec       q    Type
REMARK                         _______ _______ _______ _____ _____    ______ ____
ROOT
ATOM      1  S   UNL     1      34.661 -15.815 -21.337  0.00  0.00    +0.007 S 
ATOM      2  O   UNL     1      35.593 -15.756 -22.449  0.00  0.00    -0.169 OA
ATOM      3  O   UNL     1      35.152 -15.800 -19.970  0.00  0.00    -0.169 OA
ENDROOT
BRANCH   1   4
ATOM      4  C   UNL     1      33.542 -14.460 -21.529  0.00  0.00    +0.106 C 
ATOM      5  C   UNL     1      32.775 -14.059 -20.448  0.00  0.00    +0.021 C 
ATOM      6  C   UNL     1      33.452 -13.827 -22.756  0.00  0.00    +0.021 C 
ATOM      7  C   UNL     1      31.892 -12.989 -20.599  0.00  0.00    +0.039 C 
ATOM      8  C   UNL     1      32.568 -12.758 -22.907  0.00  0.00    +0.039 C 
ATOM      9  C   UNL     1      31.788 -12.339 -21.828  0.00  0.00    +0.145 C 
BRANCH   9  10
ATOM     10  O   UNL     1      30.927 -11.296 -21.976  0.00  0.00    -0.453 OA
BRANCH  10  11
ATOM     11  C   UNL     1      31.441 -10.016 -21.859  0.00  0.00    +0.145 C 
ATOM     12  C   UNL     1      31.521  -9.217 -22.984  0.00  0.00    +0.037 C 
ATOM     13  C   UNL     1      31.861  -9.569 -20.619  0.00  0.00    +0.037 C 
ATOM     14  C   UNL     1      32.039  -7.927 -22.868  0.00  0.00    +0.003 C 
ATOM     15  C   UNL     1      32.379  -8.279 -20.502  0.00  0.00    +0.003 C 
ATOM     16  C   UNL     1      32.468  -7.458 -21.625  0.00  0.00    +0.000 C 
ENDBRANCH  10  11
ENDBRANCH   9  10
ENDBRANCH   1   4
BRANCH   1  17
ATOM     17  C   UNL     1      33.640 -17.242 -21.527  0.00  0.00    +0.153 C 
BRANCH  17  18
ATOM     18  C   UNL     1      34.405 -18.577 -21.576  0.00  0.00    +0.135 C 
BRANCH  18  22
ATOM     19  F   UNL     1      34.083 -18.321 -23.927  0.00  0.00    -0.172 F 
ATOM     20  F   UNL     1      34.801 -20.257 -23.236  0.00  0.00    -0.172 F 
ATOM     21  F   UNL     1      36.134 -18.538 -23.226  0.00  0.00    -0.172 F 
ATOM     22  C   UNL     1      34.858 -18.929 -22.999  0.00  0.00    +0.391 C 
ENDBRANCH  18  22
BRANCH  18  25
ATOM     23  O   UNL     1      32.406 -19.906 -21.180  0.00  0.00    -0.275 OA
ATOM     24  N   UNL     1      34.349 -20.562 -20.142  0.00  0.00    -0.198 N 
ATOM     25  C   UNL     1      33.607 -19.741 -20.957  0.00  0.00    +0.235 C 
ATOM     26  H   UNL     1      35.308 -20.410 -19.980  0.00  0.00    +0.182 HD
BRANCH  24  27
ATOM     27  O   UNL     1      33.655 -21.629 -19.555  0.00  0.00    -0.295 OA
ATOM     28  H   UNL     1      33.022 -21.285 -18.907  0.00  0.00    +0.241 HD
ENDBRANCH  24  27
ENDBRANCH  18  25
BRANCH  18  29
ATOM     29  N   UNL     1      35.624 -18.451 -20.761  0.00  0.00    +0.395 N 
ATOM     30  H   UNL     1      36.430 -18.762 -21.304  0.00  0.00    -0.088 HD
ATOM     31  H   UNL     1      35.535 -19.028 -19.924  0.00  0.00    -0.088 HD
ATOM     32  H   UNL     1      35.752 -17.476 -20.490  0.00  0.00    -0.088 HD
ENDBRANCH  18  29
ENDBRANCH  17  18
ENDBRANCH   1  17
TORSDOF 9
ENDMDL
MODEL 8
REMARK VINA RESULT:      -9.5      8.683     10.479
REMARK  Name = 16129579
REMARK  9 active torsions:
REMARK  status: ('A' for Active; 'I' for Inactive)
REMARK    1  A    between atoms: S_1  and  C_4
REMARK    2  A    between atoms: S_1  and  C_17
REMARK    3  A    between atoms: C_9  and  O_10
REMARK    4  A    between atoms: O_10  and  C_11
REMARK    5  A    between atoms: C_17  and  C_18
REMARK    6  A    between atoms: C_18  and  C_22
REMARK    7  A    between atoms: C_18  and  C_25
REMARK    8  A    between atoms: C_18  and  N_29
REMARK    9  A    between atoms: N_24  and  O_27
REMARK                            x       y       z     vdW  Elec       q    Type
REMARK                         _______ _______ _______ _____ _____    ______ ____
ROOT
ATOM      1  S   UNL     1      35.567 -24.009 -15.485  0.00  0.00    +0.007 S 
ATOM      2  O   UNL     1      35.933 -25.411 -15.568  0.00  0.00    -0.169 OA
ATOM      3  O   UNL     1      35.839 -23.114 -16.596  0.00  0.00    -0.169 OA
ENDROOT
BRANCH   1   4
ATOM      4  C   UNL     1      33.833 -23.947 -15.147  0.00  0.00    +0.106 C 
ATOM      5  C   UNL     1      33.334 -24.627 -14.049  0.00  0.00    +0.021 C 
ATOM      6  C   UNL     1      33.006 -23.222 -15.987  0.00  0.00    +0.021 C 
ATOM      7  C   UNL     1      31.966 -24.578 -13.782  0.00  0.00    +0.039 C 
ATOM      8  C   UNL     1      31.638 -23.174 -15.720  0.00  0.00    +0.039 C 
ATOM      9  C   UNL     1      31.117 -23.853 -14.618  0.00  0.00    +0.145 C 
BRANCH   9  10
ATOM     10  O   UNL     1      29.783 -23.805 -14.357  0.00  0.00    -0.453 OA
BRANCH  10  11
ATOM     11  C   UNL     1      28.935 -23.470 -15.400  0.00  0.00    +0.145 C 
ATOM     12  C   UNL     1      28.276 -22.255 -15.368  0.00  0.00    +0.037 C 
ATOM     13  C   UNL     1      28.770 -24.360 -16.446  0.00  0.00    +0.037 C 
ATOM     14  C   UNL     1      27.422 -21.917 -16.418  0.00  0.00    +0.003 C 
ATOM     15  C   UNL     1      27.916 -24.021 -17.496  0.00  0.00    +0.003 C 
ATOM     16  C   UNL     1      27.242 -22.801 -17.482  0.00  0.00    +0.000 C 
ENDBRANCH  10  11
ENDBRANCH   9  10
ENDBRANCH   1   4
BRANCH   1  17
ATOM     17  C   UNL     1      36.307 -23.314 -14.040  0.00  0.00    +0.153 C 
BRANCH  17  18
ATOM     18  C   UNL     1      37.205 -24.282 -13.250  0.00  0.00    +0.135 C 
BRANCH  18  22
ATOM     19  F   UNL     1      39.015 -24.051 -11.712  0.00  0.00    -0.172 F 
ATOM     20  F   UNL     1      37.003 -23.958 -10.886  0.00  0.00    -0.172 F 
ATOM     21  F   UNL     1      37.774 -22.293 -12.053  0.00  0.00    -0.172 F 
ATOM     22  C   UNL     1      37.750 -23.643 -11.966  0.00  0.00    +0.391 C 
ENDBRANCH  18  22
BRANCH  18  25
ATOM     23  O   UNL     1      39.061 -24.142 -14.817  0.00  0.00    -0.275 OA
ATOM     24  N   UNL     1      38.511 -26.216 -13.994  0.00  0.00    -0.198 N 
ATOM     25  C   UNL     1      38.355 -24.855 -14.102  0.00  0.00    +0.235 C 
ATOM     26  H   UNL     1      37.934 -26.765 -13.416  0.00  0.00    +0.182 HD
BRANCH  24  27
ATOM     27  O   UNL     1      39.544 -26.774 -14.760  0.00  0.00    -0.295 OA
ATOM     28  H   UNL     1      39.256 -26.850 -15.684  0.00  0.00    +0.241 HD
ENDBRANCH  24  27
ENDBRANCH  18  25
BRANCH  18  29
ATOM     29  N   UNL     1      36.398 -25.442 -12.838  0.00  0.00    +0.395 N 
ATOM     30  H   UNL     1      36.531 -25.613 -11.841  0.00  0.00    -0.088 HD
ATOM     31  H   UNL     1      36.690 -26.265 -13.366  0.00  0.00    -0.088 HD
ATOM     32  H   UNL     1      35.413 -25.253 -13.022  0.00  0.00    -0.088 HD
ENDBRANCH  18  29
ENDBRANCH  17  18
ENDBRANCH   1  17
TORSDOF 9
ENDMDL
MODEL 9
REMARK VINA RESULT:      -9.4      5.245      9.170
REMARK  Name = 16129579
REMARK  9 active torsions:
REMARK  status: ('A' for Active; 'I' for Inactive)
REMARK    1  A    between atoms: S_1  and  C_4
REMARK    2  A    between atoms: S_1  and  C_17
REMARK    3  A    between atoms: C_9  and  O_10
REMARK    4  A    between atoms: O_10  and  C_11
REMARK    5  A    between atoms: C_17  and  C_18
REMARK    6  A    between atoms: C_18  and  C_22
REMARK    7  A    between atoms: C_18  and  C_25
REMARK    8  A    between atoms: C_18  and  N_29
REMARK    9  A    between atoms: N_24  and  O_27
REMARK                            x       y       z     vdW  Elec       q    Type
REMARK                         _______ _______ _______ _____ _____    ______ ____
ROOT
ATOM      1  S   UNL     1      33.790 -22.709 -18.510  0.00  0.00    +0.007 S 
ATOM      2  O   UNL     1      32.493 -22.278 -18.018  0.00  0.00    -0.169 OA
ATOM      3  O   UNL     1      33.920 -23.964 -19.229  0.00  0.00    -0.169 OA
ENDROOT
BRANCH   1   4
ATOM      4  C   UNL     1      34.401 -21.418 -19.552  0.00  0.00    +0.106 C 
ATOM      5  C   UNL     1      33.505 -20.672 -20.299  0.00  0.00    +0.021 C 
ATOM      6  C   UNL     1      35.762 -21.177 -19.601  0.00  0.00    +0.021 C 
ATOM      7  C   UNL     1      33.986 -19.653 -21.121  0.00  0.00    +0.039 C 
ATOM      8  C   UNL     1      36.244 -20.158 -20.424  0.00  0.00    +0.039 C 
ATOM      9  C   UNL     1      35.356 -19.396 -21.184  0.00  0.00    +0.145 C 
BRANCH   9  10
ATOM     10  O   UNL     1      35.826 -18.402 -21.985  0.00  0.00    -0.453 OA
BRANCH  10  11
ATOM     11  C   UNL     1      35.187 -17.175 -21.930  0.00  0.00    +0.145 C 
ATOM     12  C   UNL     1      34.807 -16.560 -23.109  0.00  0.00    +0.037 C 
ATOM     13  C   UNL     1      34.946 -16.595 -20.697  0.00  0.00    +0.037 C 
ATOM     14  C   UNL     1      34.164 -15.323 -23.054  0.00  0.00    +0.003 C 
ATOM     15  C   UNL     1      34.303 -15.359 -20.643  0.00  0.00    +0.003 C 
ATOM     16  C   UNL     1      33.912 -14.723 -21.820  0.00  0.00    +0.000 C 
ENDBRANCH  10  11
ENDBRANCH   9  10
ENDBRANCH   1   4
BRANCH   1  17
ATOM     17  C   UNL     1      34.926 -22.741 -17.160  0.00  0.00    +0.153 C 
BRANCH  17  18
ATOM     18  C   UNL     1      34.573 -23.743 -16.046  0.00  0.00    +0.135 C 
BRANCH  18  22
ATOM     19  F   UNL     1      34.243 -23.846 -13.685  0.00  0.00    -0.172 F 
ATOM     20  F   UNL     1      32.817 -22.663 -14.829  0.00  0.00    -0.172 F 
ATOM     21  F   UNL     1      34.838 -21.923 -14.519  0.00  0.00    -0.172 F 
ATOM     22  C   UNL     1      34.112 -23.039 -14.763  0.00  0.00    +0.391 C 
ENDBRANCH  18  22
BRANCH  18  25
ATOM     23  O   UNL     1      35.547 -25.942 -15.680  0.00  0.00    -0.275 OA
ATOM     24  N   UNL     1      36.942 -24.120 -15.552  0.00  0.00    -0.198 N 
ATOM     25  C   UNL     1      35.723 -24.724 -15.744  0.00  0.00    +0.235 C 
ATOM     26  H   UNL     1      37.058 -23.144 -15.608  0.00  0.00    +0.182 HD
BRANCH  24  27
ATOM     27  O   UNL     1      38.012 -24.981 -15.268  0.00  0.00    -0.295 OA
ATOM     28  H   UNL     1      38.174 -24.990 -14.312  0.00  0.00    +0.241 HD
ENDBRANCH  24  27
ENDBRANCH  18  25
BRANCH  18  29
ATOM     29  N   UNL     1      33.448 -24.575 -16.503  0.00  0.00    +0.395 N 
ATOM     30  H   UNL     1      32.617 -24.356 -15.953  0.00  0.00    -0.088 HD
ATOM     31  H   UNL     1      33.683 -25.561 -16.384  0.00  0.00    -0.088 HD
ATOM     32  H   UNL     1      33.263 -24.387 -17.488  0.00  0.00    -0.088 HD
ENDBRANCH  18  29
ENDBRANCH  17  18
ENDBRANCH   1  17
TORSDOF 9
ENDMDL
