MODEL 1
REMARK VINA RESULT:      -6.3      0.000      0.000
REMARK  Name = 4004
REMARK  11 active torsions:
REMARK  status: ('A' for Active; 'I' for Inactive)
REMARK    1  A    between atoms: C_1  and  C_3
REMARK    2  A    between atoms: C_1  and  S_7
REMARK    3  A    between atoms: C_1  and  C_14
REMARK    4  A    between atoms: C_3  and  O_4
REMARK    5  A    between atoms: O_4  and  C_5
REMARK    6  A    between atoms: S_7  and  P_9
REMARK    7  A    between atoms: P_9  and  O_10
REMARK    8  A    between atoms: P_9  and  O_12
REMARK    9  A    between atoms: C_14  and  C_16
REMARK   10  A    between atoms: C_16  and  O_17
REMARK   11  A    between atoms: O_17  and  C_18
REMARK                            x       y       z     vdW  Elec       q    Type
REMARK                         _______ _______ _______ _____ _____    ______ ____
ROOT
ATOM      1  C   UNL     1      34.705 -23.600 -15.810  0.00  0.00    +0.165 C 
ENDROOT
BRANCH   1   3
ATOM      2  O   UNL     1      32.766 -23.267 -17.256  0.00  0.00    -0.249 OA
ATOM      3  C   UNL     1      33.974 -23.198 -17.078  0.00  0.00    +0.328 C 
BRANCH   3   4
ATOM      4  O   UNL     1      34.890 -22.777 -18.003  0.00  0.00    -0.448 OA
BRANCH   4   5
ATOM      5  C   UNL     1      34.350 -22.098 -19.141  0.00  0.00    +0.209 C 
ATOM      6  C   UNL     1      35.438 -21.260 -19.778  0.00  0.00    +0.051 C 
ENDBRANCH   4   5
ENDBRANCH   3   4
ENDBRANCH   1   3
BRANCH   1   7
ATOM      7  S   UNL     1      36.388 -22.890 -15.826  0.00  0.00    -0.052 S 
BRANCH   7   9
ATOM      8  S   UNL     1      36.954 -26.092 -14.524  0.00  0.00    +0.003 S 
ATOM      9  P   UNL     1      37.554 -24.230 -14.665  0.00  0.00    +0.232 P 
BRANCH   9  10
ATOM     10  O   UNL     1      37.765 -23.542 -13.197  0.00  0.00    -0.307 OA
ATOM     11  C   UNL     1      37.981 -24.349 -12.050  0.00  0.00    +0.182 C 
ENDBRANCH   9  10
BRANCH   9  12
ATOM     12  O   UNL     1      39.097 -24.114 -15.192  0.00  0.00    -0.307 OA
ATOM     13  C   UNL     1      39.984 -25.214 -15.063  0.00  0.00    +0.182 C 
ENDBRANCH   9  12
ENDBRANCH   7   9
ENDBRANCH   1   7
BRANCH   1  14
ATOM     14  C   UNL     1      33.915 -23.135 -14.584  0.00  0.00    +0.132 C 
BRANCH  14  16
ATOM     15  O   UNL     1      34.324 -24.400 -12.545  0.00  0.00    -0.250 OA
ATOM     16  C   UNL     1      33.677 -24.233 -13.569  0.00  0.00    +0.318 C 
BRANCH  16  17
ATOM     17  O   UNL     1      32.643 -25.017 -13.999  0.00  0.00    -0.448 OA
BRANCH  17  18
ATOM     18  C   UNL     1      31.333 -24.485 -13.774  0.00  0.00    +0.209 C 
ATOM     19  C   UNL     1      30.349 -25.206 -14.672  0.00  0.00    +0.051 C 
ENDBRANCH  17  18
ENDBRANCH  16  17
ENDBRANCH  14  16
ENDBRANCH   1  14
TORSDOF 11
ENDMDL
MODEL 2
REMARK VINA RESULT:      -6.1      1.881      2.676
REMARK  Name = 4004
REMARK  11 active torsions:
REMARK  status: ('A' for Active; 'I' for Inactive)
REMARK    1  A    between atoms: C_1  and  C_3
REMARK    2  A    between atoms: C_1  and  S_7
REMARK    3  A    between atoms: C_1  and  C_14
REMARK    4  A    between atoms: C_3  and  O_4
REMARK    5  A    between atoms: O_4  and  C_5
REMARK    6  A    between atoms: S_7  and  P_9
REMARK    7  A    between atoms: P_9  and  O_10
REMARK    8  A    between atoms: P_9  and  O_12
REMARK    9  A    between atoms: C_14  and  C_16
REMARK   10  A    between atoms: C_16  and  O_17
REMARK   11  A    between atoms: O_17  and  C_18
REMARK                            x       y       z     vdW  Elec       q    Type
REMARK                         _______ _______ _______ _____ _____    ______ ____
ROOT
ATOM      1  C   UNL     1      33.472 -23.603 -16.023  0.00  0.00    +0.165 C 
ENDROOT
BRANCH   1   3
ATOM      2  O   UNL     1      31.883 -22.689 -17.637  0.00  0.00    -0.249 OA
ATOM      3  C   UNL     1      33.004 -23.106 -17.379  0.00  0.00    +0.328 C 
BRANCH   3   4
ATOM      4  O   UNL     1      34.030 -23.233 -18.276  0.00  0.00    -0.448 OA
BRANCH   4   5
ATOM      5  C   UNL     1      34.088 -22.226 -19.291  0.00  0.00    +0.209 C 
ATOM      6  C   UNL     1      35.513 -21.726 -19.409  0.00  0.00    +0.051 C 
ENDBRANCH   4   5
ENDBRANCH   3   4
ENDBRANCH   1   3
BRANCH   1   7
ATOM      7  S   UNL     1      35.143 -22.951 -15.681  0.00  0.00    -0.052 S 
BRANCH   7   9
ATOM      8  S   UNL     1      38.022 -24.271 -14.185  0.00  0.00    +0.003 S 
ATOM      9  P   UNL     1      36.118 -24.495 -14.599  0.00  0.00    +0.232 P 
BRANCH   9  10
ATOM     10  O   UNL     1      35.821 -25.898 -15.383  0.00  0.00    -0.307 OA
ATOM     11  C   UNL     1      36.801 -26.924 -15.412  0.00  0.00    +0.182 C 
ENDBRANCH   9  10
BRANCH   9  12
ATOM     12  O   UNL     1      35.223 -24.791 -13.263  0.00  0.00    -0.307 OA
ATOM     13  C   UNL     1      35.278 -23.908 -12.153  0.00  0.00    +0.182 C 
ENDBRANCH   9  12
ENDBRANCH   7   9
ENDBRANCH   1   7
BRANCH   1  14
ATOM     14  C   UNL     1      32.475 -23.180 -14.942  0.00  0.00    +0.132 C 
BRANCH  14  16
ATOM     15  O   UNL     1      31.963 -25.364 -13.995  0.00  0.00    -0.250 OA
ATOM     16  C   UNL     1      31.577 -24.307 -14.477  0.00  0.00    +0.318 C 
BRANCH  16  17
ATOM     17  O   UNL     1      30.276 -23.961 -14.708  0.00  0.00    -0.448 OA
BRANCH  17  18
ATOM     18  C   UNL     1      29.559 -24.824 -15.597  0.00  0.00    +0.209 C 
ATOM     19  C   UNL     1      28.612 -23.989 -16.435  0.00  0.00    +0.051 C 
ENDBRANCH  17  18
ENDBRANCH  16  17
ENDBRANCH  14  16
ENDBRANCH   1  14
TORSDOF 11
ENDMDL
MODEL 3
REMARK VINA RESULT:      -6.1      2.383      4.915
REMARK  Name = 4004
REMARK  11 active torsions:
REMARK  status: ('A' for Active; 'I' for Inactive)
REMARK    1  A    between atoms: C_1  and  C_3
REMARK    2  A    between atoms: C_1  and  S_7
REMARK    3  A    between atoms: C_1  and  C_14
REMARK    4  A    between atoms: C_3  and  O_4
REMARK    5  A    between atoms: O_4  and  C_5
REMARK    6  A    between atoms: S_7  and  P_9
REMARK    7  A    between atoms: P_9  and  O_10
REMARK    8  A    between atoms: P_9  and  O_12
REMARK    9  A    between atoms: C_14  and  C_16
REMARK   10  A    between atoms: C_16  and  O_17
REMARK   11  A    between atoms: O_17  and  C_18
REMARK                            x       y       z     vdW  Elec       q    Type
REMARK                         _______ _______ _______ _____ _____    ______ ____
ROOT
ATOM      1  C   UNL     1      33.115 -23.222 -15.636  0.00  0.00    +0.165 C 
ENDROOT
BRANCH   1   3
ATOM      2  O   UNL     1      31.069 -22.375 -14.605  0.00  0.00    -0.249 OA
ATOM      3  C   UNL     1      31.622 -23.152 -15.372  0.00  0.00    +0.328 C 
BRANCH   3   4
ATOM      4  O   UNL     1      30.996 -24.123 -16.105  0.00  0.00    -0.448 OA
BRANCH   4   5
ATOM      5  C   UNL     1      29.810 -24.670 -15.519  0.00  0.00    +0.209 C 
ATOM      6  C   UNL     1      28.616 -24.270 -16.361  0.00  0.00    +0.051 C 
ENDBRANCH   4   5
ENDBRANCH   3   4
ENDBRANCH   1   3
BRANCH   1   7
ATOM      7  S   UNL     1      33.917 -24.227 -14.339  0.00  0.00    -0.052 S 
BRANCH   7   9
ATOM      8  S   UNL     1      36.961 -23.451 -12.790  0.00  0.00    +0.003 S 
ATOM      9  P   UNL     1      35.977 -23.731 -14.463  0.00  0.00    +0.232 P 
BRANCH   9  10
ATOM     10  O   UNL     1      36.108 -22.451 -15.473  0.00  0.00    -0.307 OA
ATOM     11  C   UNL     1      37.337 -22.174 -16.124  0.00  0.00    +0.182 C 
ENDBRANCH   9  10
BRANCH   9  12
ATOM     12  O   UNL     1      36.688 -24.847 -15.423  0.00  0.00    -0.307 OA
ATOM     13  C   UNL     1      36.553 -26.230 -15.135  0.00  0.00    +0.182 C 
ENDBRANCH   9  12
ENDBRANCH   7   9
ENDBRANCH   1   7
BRANCH   1  14
ATOM     14  C   UNL     1      33.370 -23.802 -17.029  0.00  0.00    +0.132 C 
BRANCH  14  16
ATOM     15  O   UNL     1      32.510 -22.133 -18.579  0.00  0.00    -0.250 OA
ATOM     16  C   UNL     1      33.459 -22.748 -18.113  0.00  0.00    +0.318 C 
BRANCH  16  17
ATOM     17  O   UNL     1      34.763 -22.621 -18.501  0.00  0.00    -0.448 OA
BRANCH  17  18
ATOM     18  C   UNL     1      34.995 -21.728 -19.595  0.00  0.00    +0.209 C 
ATOM     19  C   UNL     1      36.405 -21.184 -19.495  0.00  0.00    +0.051 C 
ENDBRANCH  17  18
ENDBRANCH  16  17
ENDBRANCH  14  16
ENDBRANCH   1  14
TORSDOF 11
ENDMDL
MODEL 4
REMARK VINA RESULT:      -6.0      1.453      4.848
REMARK  Name = 4004
REMARK  11 active torsions:
REMARK  status: ('A' for Active; 'I' for Inactive)
REMARK    1  A    between atoms: C_1  and  C_3
REMARK    2  A    between atoms: C_1  and  S_7
REMARK    3  A    between atoms: C_1  and  C_14
REMARK    4  A    between atoms: C_3  and  O_4
REMARK    5  A    between atoms: O_4  and  C_5
REMARK    6  A    between atoms: S_7  and  P_9
REMARK    7  A    between atoms: P_9  and  O_10
REMARK    8  A    between atoms: P_9  and  O_12
REMARK    9  A    between atoms: C_14  and  C_16
REMARK   10  A    between atoms: C_16  and  O_17
REMARK   11  A    between atoms: O_17  and  C_18
REMARK                            x       y       z     vdW  Elec       q    Type
REMARK                         _______ _______ _______ _____ _____    ______ ____
ROOT
ATOM      1  C   UNL     1      33.776 -23.316 -15.279  0.00  0.00    +0.165 C 
ENDROOT
BRANCH   1   3
ATOM      2  O   UNL     1      31.626 -22.348 -14.643  0.00  0.00    -0.249 OA
ATOM      3  C   UNL     1      32.384 -23.307 -14.672  0.00  0.00    +0.328 C 
BRANCH   3   4
ATOM      4  O   UNL     1      32.128 -24.538 -14.132  0.00  0.00    -0.448 OA
BRANCH   4   5
ATOM      5  C   UNL     1      30.770 -24.770 -13.744  0.00  0.00    +0.209 C 
ATOM      6  C   UNL     1      30.040 -25.449 -14.883  0.00  0.00    +0.051 C 
ENDBRANCH   4   5
ENDBRANCH   3   4
ENDBRANCH   1   3
BRANCH   1   7
ATOM      7  S   UNL     1      34.924 -24.183 -14.153  0.00  0.00    -0.052 S 
BRANCH   7   9
ATOM      8  S   UNL     1      36.980 -22.136 -16.116  0.00  0.00    +0.003 S 
ATOM      9  P   UNL     1      36.856 -23.527 -14.739  0.00  0.00    +0.232 P 
BRANCH   9  10
ATOM     10  O   UNL     1      37.722 -24.858 -15.132  0.00  0.00    -0.307 OA
ATOM     11  C   UNL     1      37.329 -26.135 -14.656  0.00  0.00    +0.182 C 
ENDBRANCH   9  10
BRANCH   9  12
ATOM     12  O   UNL     1      37.666 -23.126 -13.377  0.00  0.00    -0.307 OA
ATOM     13  C   UNL     1      37.007 -23.139 -12.120  0.00  0.00    +0.182 C 
ENDBRANCH   9  12
ENDBRANCH   7   9
ENDBRANCH   1   7
BRANCH   1  14
ATOM     14  C   UNL     1      33.738 -23.980 -16.657  0.00  0.00    +0.132 C 
BRANCH  14  16
ATOM     15  O   UNL     1      32.346 -22.501 -18.000  0.00  0.00    -0.250 OA
ATOM     16  C   UNL     1      33.436 -23.013 -17.783  0.00  0.00    +0.318 C 
BRANCH  16  17
ATOM     17  O   UNL     1      34.567 -22.832 -18.526  0.00  0.00    -0.448 OA
BRANCH  17  18
ATOM     18  C   UNL     1      34.546 -21.710 -19.416  0.00  0.00    +0.209 C 
ATOM     19  C   UNL     1      35.970 -21.275 -19.692  0.00  0.00    +0.051 C 
ENDBRANCH  17  18
ENDBRANCH  16  17
ENDBRANCH  14  16
ENDBRANCH   1  14
TORSDOF 11
ENDMDL
MODEL 5
REMARK VINA RESULT:      -5.8      8.428     11.494
REMARK  Name = 4004
REMARK  11 active torsions:
REMARK  status: ('A' for Active; 'I' for Inactive)
REMARK    1  A    between atoms: C_1  and  C_3
REMARK    2  A    between atoms: C_1  and  S_7
REMARK    3  A    between atoms: C_1  and  C_14
REMARK    4  A    between atoms: C_3  and  O_4
REMARK    5  A    between atoms: O_4  and  C_5
REMARK    6  A    between atoms: S_7  and  P_9
REMARK    7  A    between atoms: P_9  and  O_10
REMARK    8  A    between atoms: P_9  and  O_12
REMARK    9  A    between atoms: C_14  and  C_16
REMARK   10  A    between atoms: C_16  and  O_17
REMARK   11  A    between atoms: O_17  and  C_18
REMARK                            x       y       z     vdW  Elec       q    Type
REMARK                         _______ _______ _______ _____ _____    ______ ____
ROOT
ATOM      1  C   UNL     1      34.204 -15.971 -23.455  0.00  0.00    +0.165 C 
ENDROOT
BRANCH   1   3
ATOM      2  O   UNL     1      34.362 -16.455 -25.844  0.00  0.00    -0.249 OA
ATOM      3  C   UNL     1      33.922 -15.767 -24.932  0.00  0.00    +0.328 C 
BRANCH   3   4
ATOM      4  O   UNL     1      33.121 -14.668 -25.083  0.00  0.00    -0.448 OA
BRANCH   4   5
ATOM      5  C   UNL     1      32.675 -14.408 -26.418  0.00  0.00    +0.209 C 
ATOM      6  C   UNL     1      33.342 -13.146 -26.923  0.00  0.00    +0.051 C 
ENDBRANCH   4   5
ENDBRANCH   3   4
ENDBRANCH   1   3
BRANCH   1   7
ATOM      7  S   UNL     1      35.759 -16.908 -23.257  0.00  0.00    -0.052 S 
BRANCH   7   9
ATOM      8  S   UNL     1      36.562 -19.275 -20.803  0.00  0.00    +0.003 S 
ATOM      9  P   UNL     1      35.233 -18.589 -22.072  0.00  0.00    +0.232 P 
BRANCH   9  10
ATOM     10  O   UNL     1      34.699 -19.752 -23.090  0.00  0.00    -0.307 OA
ATOM     11  C   UNL     1      34.733 -19.547 -24.494  0.00  0.00    +0.182 C 
ENDBRANCH   9  10
BRANCH   9  12
ATOM     12  O   UNL     1      33.806 -18.248 -21.352  0.00  0.00    -0.307 OA
ATOM     13  C   UNL     1      33.030 -19.285 -20.772  0.00  0.00    +0.182 C 
ENDBRANCH   9  12
ENDBRANCH   7   9
ENDBRANCH   1   7
BRANCH   1  14
ATOM     14  C   UNL     1      34.275 -14.616 -22.747  0.00  0.00    +0.132 C 
BRANCH  14  16
ATOM     15  O   UNL     1      34.812 -15.024 -20.408  0.00  0.00    -0.250 OA
ATOM     16  C   UNL     1      33.997 -14.698 -21.261  0.00  0.00    +0.318 C 
BRANCH  16  17
ATOM     17  O   UNL     1      32.688 -14.378 -21.036  0.00  0.00    -0.448 OA
BRANCH  17  18
ATOM     18  C   UNL     1      32.192 -13.260 -21.780  0.00  0.00    +0.209 C 
ATOM     19  C   UNL     1      31.754 -12.180 -20.812  0.00  0.00    +0.051 C 
ENDBRANCH  17  18
ENDBRANCH  16  17
ENDBRANCH  14  16
ENDBRANCH   1  14
TORSDOF 11
ENDMDL
MODEL 6
REMARK VINA RESULT:      -5.8      8.583     11.455
REMARK  Name = 4004
REMARK  11 active torsions:
REMARK  status: ('A' for Active; 'I' for Inactive)
REMARK    1  A    between atoms: C_1  and  C_3
REMARK    2  A    between atoms: C_1  and  S_7
REMARK    3  A    between atoms: C_1  and  C_14
REMARK    4  A    between atoms: C_3  and  O_4
REMARK    5  A    between atoms: O_4  and  C_5
REMARK    6  A    between atoms: S_7  and  P_9
REMARK    7  A    between atoms: P_9  and  O_10
REMARK    8  A    between atoms: P_9  and  O_12
REMARK    9  A    between atoms: C_14  and  C_16
REMARK   10  A    between atoms: C_16  and  O_17
REMARK   11  A    between atoms: O_17  and  C_18
REMARK                            x       y       z     vdW  Elec       q    Type
REMARK                         _______ _______ _______ _____ _____    ______ ____
ROOT
ATOM      1  C   UNL     1      33.536 -15.674 -23.290  0.00  0.00    +0.165 C 
ENDROOT
BRANCH   1   3
ATOM      2  O   UNL     1      34.372 -16.400 -25.467  0.00  0.00    -0.249 OA
ATOM      3  C   UNL     1      33.834 -15.548 -24.773  0.00  0.00    +0.328 C 
BRANCH   3   4
ATOM      4  O   UNL     1      33.433 -14.312 -25.202  0.00  0.00    -0.448 OA
BRANCH   4   5
ATOM      5  C   UNL     1      32.763 -14.285 -26.467  0.00  0.00    +0.209 C 
ATOM      6  C   UNL     1      33.427 -13.254 -27.354  0.00  0.00    +0.051 C 
ENDBRANCH   4   5
ENDBRANCH   3   4
ENDBRANCH   1   3
BRANCH   1   7
ATOM      7  S   UNL     1      35.077 -16.067 -22.391  0.00  0.00    -0.052 S 
BRANCH   7   9
ATOM      8  S   UNL     1      35.099 -19.429 -23.371  0.00  0.00    +0.003 S 
ATOM      9  P   UNL     1      34.917 -18.129 -21.914  0.00  0.00    +0.232 P 
BRANCH   9  10
ATOM     10  O   UNL     1      33.523 -18.328 -21.084  0.00  0.00    -0.307 OA
ATOM     11  C   UNL     1      33.065 -19.630 -20.753  0.00  0.00    +0.182 C 
ENDBRANCH   9  10
BRANCH   9  12
ATOM     12  O   UNL     1      35.954 -18.424 -20.685  0.00  0.00    -0.307 OA
ATOM     13  C   UNL     1      36.780 -19.578 -20.706  0.00  0.00    +0.182 C 
ENDBRANCH   9  12
ENDBRANCH   7   9
ENDBRANCH   1   7
BRANCH   1  14
ATOM     14  C   UNL     1      32.903 -14.380 -22.775  0.00  0.00    +0.132 C 
BRANCH  14  16
ATOM     15  O   UNL     1      31.917 -15.526 -20.865  0.00  0.00    -0.250 OA
ATOM     16  C   UNL     1      32.350 -14.498 -21.370  0.00  0.00    +0.318 C 
BRANCH  16  17
ATOM     17  O   UNL     1      32.388 -13.269 -20.774  0.00  0.00    -0.448 OA
BRANCH  17  18
ATOM     18  C   UNL     1      31.743 -12.215 -21.496  0.00  0.00    +0.209 C 
ATOM     19  C   UNL     1      31.124 -11.249 -20.507  0.00  0.00    +0.051 C 
ENDBRANCH  17  18
ENDBRANCH  16  17
ENDBRANCH  14  16
ENDBRANCH   1  14
TORSDOF 11
ENDMDL
MODEL 7
REMARK VINA RESULT:      -5.7      2.228      4.777
REMARK  Name = 4004
REMARK  11 active torsions:
REMARK  status: ('A' for Active; 'I' for Inactive)
REMARK    1  A    between atoms: C_1  and  C_3
REMARK    2  A    between atoms: C_1  and  S_7
REMARK    3  A    between atoms: C_1  and  C_14
REMARK    4  A    between atoms: C_3  and  O_4
REMARK    5  A    between atoms: O_4  and  C_5
REMARK    6  A    between atoms: S_7  and  P_9
REMARK    7  A    between atoms: P_9  and  O_10
REMARK    8  A    between atoms: P_9  and  O_12
REMARK    9  A    between atoms: C_14  and  C_16
REMARK   10  A    between atoms: C_16  and  O_17
REMARK   11  A    between atoms: O_17  and  C_18
REMARK                            x       y       z     vdW  Elec       q    Type
REMARK                         _______ _______ _______ _____ _____    ______ ____
ROOT
ATOM      1  C   UNL     1      32.597 -23.368 -15.440  0.00  0.00    +0.165 C 
ENDROOT
BRANCH   1   3
ATOM      2  O   UNL     1      30.670 -24.866 -15.359  0.00  0.00    -0.249 OA
ATOM      3  C   UNL     1      31.126 -23.738 -15.485  0.00  0.00    +0.328 C 
BRANCH   3   4
ATOM      4  O   UNL     1      30.392 -22.607 -15.722  0.00  0.00    -0.448 OA
BRANCH   4   5
ATOM      5  C   UNL     1      29.239 -22.783 -16.552  0.00  0.00    +0.209 C 
ATOM      6  C   UNL     1      27.999 -22.447 -15.752  0.00  0.00    +0.051 C 
ENDBRANCH   4   5
ENDBRANCH   3   4
ENDBRANCH   1   3
BRANCH   1   7
ATOM      7  S   UNL     1      33.342 -24.019 -13.904  0.00  0.00    -0.052 S 
BRANCH   7   9
ATOM      8  S   UNL     1      36.373 -25.424 -14.955  0.00  0.00    +0.003 S 
ATOM      9  P   UNL     1      35.436 -23.870 -14.211  0.00  0.00    +0.232 P 
BRANCH   9  10
ATOM     10  O   UNL     1      36.099 -23.372 -12.801  0.00  0.00    -0.307 OA
ATOM     11  C   UNL     1      35.714 -23.975 -11.576  0.00  0.00    +0.182 C 
ENDBRANCH   9  10
BRANCH   9  12
ATOM     12  O   UNL     1      35.705 -22.510 -15.078  0.00  0.00    -0.307 OA
ATOM     13  C   UNL     1      36.916 -22.346 -15.797  0.00  0.00    +0.182 C 
ENDBRANCH   9  12
ENDBRANCH   7   9
ENDBRANCH   1   7
BRANCH   1  14
ATOM     14  C   UNL     1      33.308 -23.914 -16.680  0.00  0.00    +0.132 C 
BRANCH  14  16
ATOM     15  O   UNL     1      32.443 -22.324 -18.308  0.00  0.00    -0.250 OA
ATOM     16  C   UNL     1      33.394 -22.914 -17.814  0.00  0.00    +0.318 C 
BRANCH  16  17
ATOM     17  O   UNL     1      34.697 -22.802 -18.209  0.00  0.00    -0.448 OA
BRANCH  17  18
ATOM     18  C   UNL     1      34.910 -22.093 -19.434  0.00  0.00    +0.209 C 
ATOM     19  C   UNL     1      36.227 -21.349 -19.349  0.00  0.00    +0.051 C 
ENDBRANCH  17  18
ENDBRANCH  16  17
ENDBRANCH  14  16
ENDBRANCH   1  14
TORSDOF 11
ENDMDL
MODEL 8
REMARK VINA RESULT:      -5.7      2.741      5.580
REMARK  Name = 4004
REMARK  11 active torsions:
REMARK  status: ('A' for Active; 'I' for Inactive)
REMARK    1  A    between atoms: C_1  and  C_3
REMARK    2  A    between atoms: C_1  and  S_7
REMARK    3  A    between atoms: C_1  and  C_14
REMARK    4  A    between atoms: C_3  and  O_4
REMARK    5  A    between atoms: O_4  and  C_5
REMARK    6  A    between atoms: S_7  and  P_9
REMARK    7  A    between atoms: P_9  and  O_10
REMARK    8  A    between atoms: P_9  and  O_12
REMARK    9  A    between atoms: C_14  and  C_16
REMARK   10  A    between atoms: C_16  and  O_17
REMARK   11  A    between atoms: O_17  and  C_18
REMARK                            x       y       z     vdW  Elec       q    Type
REMARK                         _______ _______ _______ _____ _____    ______ ____
ROOT
ATOM      1  C   UNL     1      34.504 -23.259 -15.819  0.00  0.00    +0.165 C 
ENDROOT
BRANCH   1   3
ATOM      2  O   UNL     1      36.683 -22.158 -15.854  0.00  0.00    -0.249 OA
ATOM      3  C   UNL     1      35.704 -22.581 -16.453  0.00  0.00    +0.328 C 
BRANCH   3   4
ATOM      4  O   UNL     1      35.499 -22.490 -17.803  0.00  0.00    -0.448 OA
BRANCH   4   5
ATOM      5  C   UNL     1      36.450 -21.694 -18.519  0.00  0.00    +0.209 C 
ATOM      6  C   UNL     1      35.779 -21.105 -19.742  0.00  0.00    +0.051 C 
ENDBRANCH   4   5
ENDBRANCH   3   4
ENDBRANCH   1   3
BRANCH   1   7
ATOM      7  S   UNL     1      33.176 -23.434 -17.061  0.00  0.00    -0.052 S 
BRANCH   7   9
ATOM      8  S   UNL     1      31.460 -22.657 -14.109  0.00  0.00    +0.003 S 
ATOM      9  P   UNL     1      31.373 -23.338 -15.946  0.00  0.00    +0.232 P 
BRANCH   9  10
ATOM     10  O   UNL     1      30.677 -24.816 -16.020  0.00  0.00    -0.307 OA
ATOM     11  C   UNL     1      30.213 -25.450 -14.839  0.00  0.00    +0.182 C 
ENDBRANCH   9  10
BRANCH   9  12
ATOM     12  O   UNL     1      30.282 -22.530 -16.857  0.00  0.00    -0.307 OA
ATOM     13  C   UNL     1      28.895 -22.632 -16.573  0.00  0.00    +0.182 C 
ENDBRANCH   9  12
ENDBRANCH   7   9
ENDBRANCH   1   7
BRANCH   1  14
ATOM     14  C   UNL     1      34.916 -24.618 -15.247  0.00  0.00    +0.132 C 
BRANCH  14  16
ATOM     15  O   UNL     1      34.670 -23.975 -12.911  0.00  0.00    -0.250 OA
ATOM     16  C   UNL     1      35.296 -24.564 -13.782  0.00  0.00    +0.318 C 
BRANCH  16  17
ATOM     17  O   UNL     1      36.462 -25.254 -13.601  0.00  0.00    -0.448 OA
BRANCH  17  18
ATOM     18  C   UNL     1      37.040 -25.807 -14.788  0.00  0.00    +0.209 C 
ATOM     19  C   UNL     1      38.547 -25.820 -14.641  0.00  0.00    +0.051 C 
ENDBRANCH  17  18
ENDBRANCH  16  17
ENDBRANCH  14  16
ENDBRANCH   1  14
TORSDOF 11
ENDMDL
MODEL 9
REMARK VINA RESULT:      -5.7      2.746      6.233
REMARK  Name = 4004
REMARK  11 active torsions:
REMARK  status: ('A' for Active; 'I' for Inactive)
REMARK    1  A    between atoms: C_1  and  C_3
REMARK    2  A    between atoms: C_1  and  S_7
REMARK    3  A    between atoms: C_1  and  C_14
REMARK    4  A    between atoms: C_3  and  O_4
REMARK    5  A    between atoms: O_4  and  C_5
REMARK    6  A    between atoms: S_7  and  P_9
REMARK    7  A    between atoms: P_9  and  O_10
REMARK    8  A    between atoms: P_9  and  O_12
REMARK    9  A    between atoms: C_14  and  C_16
REMARK   10  A    between atoms: C_16  and  O_17
REMARK   11  A    between atoms: O_17  and  C_18
REMARK                            x       y       z     vdW  Elec       q    Type
REMARK                         _______ _______ _______ _____ _____    ______ ____
ROOT
ATOM      1  C   UNL     1      34.937 -24.227 -15.028  0.00  0.00    +0.165 C 
ENDROOT
BRANCH   1   3
ATOM      2  O   UNL     1      36.009 -26.340 -15.620  0.00  0.00    -0.249 OA
ATOM      3  C   UNL     1      35.838 -25.431 -14.819  0.00  0.00    +0.328 C 
BRANCH   3   4
ATOM      4  O   UNL     1      36.402 -25.352 -13.575  0.00  0.00    -0.448 OA
BRANCH   4   5
ATOM      5  C   UNL     1      37.500 -26.239 -13.339  0.00  0.00    +0.209 C 
ATOM      6  C   UNL     1      38.796 -25.471 -13.496  0.00  0.00    +0.051 C 
ENDBRANCH   4   5
ENDBRANCH   3   4
ENDBRANCH   1   3
BRANCH   1   7
ATOM      7  S   UNL     1      33.607 -24.238 -13.777  0.00  0.00    -0.052 S 
BRANCH   7   9
ATOM      8  S   UNL     1      30.633 -22.511 -14.441  0.00  0.00    +0.003 S 
ATOM      9  P   UNL     1      31.813 -24.012 -14.889  0.00  0.00    +0.232 P 
BRANCH   9  10
ATOM     10  O   UNL     1      31.028 -25.446 -14.838  0.00  0.00    -0.307 OA
ATOM     11  C   UNL     1      29.612 -25.485 -14.760  0.00  0.00    +0.182 C 
ENDBRANCH   9  10
BRANCH   9  12
ATOM     12  O   UNL     1      32.218 -24.033 -16.473  0.00  0.00    -0.307 OA
ATOM     13  C   UNL     1      32.307 -22.822 -17.206  0.00  0.00    +0.182 C 
ENDBRANCH   9  12
ENDBRANCH   7   9
ENDBRANCH   1   7
BRANCH   1  14
ATOM     14  C   UNL     1      35.763 -22.940 -14.954  0.00  0.00    +0.132 C 
BRANCH  14  16
ATOM     15  O   UNL     1      37.898 -22.764 -16.111  0.00  0.00    -0.250 OA
ATOM     16  C   UNL     1      36.675 -22.741 -16.146  0.00  0.00    +0.318 C 
BRANCH  16  17
ATOM     17  O   UNL     1      35.911 -22.506 -17.254  0.00  0.00    -0.448 OA
BRANCH  17  18
ATOM     18  C   UNL     1      36.515 -21.678 -18.254  0.00  0.00    +0.209 C 
ATOM     19  C   UNL     1      35.531 -21.479 -19.388  0.00  0.00    +0.051 C 
ENDBRANCH  17  18
ENDBRANCH  16  17
ENDBRANCH  14  16
ENDBRANCH   1  14
TORSDOF 11
ENDMDL
