MODEL 1
REMARK VINA RESULT:     -11.8      0.000      0.000
REMARK  Name = 10267580
REMARK  2 active torsions:
REMARK  status: ('A' for Active; 'I' for Inactive)
REMARK    1  A    between atoms: N_1  and  C_21
REMARK    2  A    between atoms: C_7  and  C_14
REMARK                            x       y       z     vdW  Elec       q    Type
REMARK                         _______ _______ _______ _____ _____    ______ ____
ROOT
ATOM      1  N   UNL     1      32.692 -22.302 -18.563  0.00  0.00    -0.290 N 
ATOM      2  N   UNL     1      34.218 -23.129 -16.975  0.00  0.00    -0.327 NA
ATOM      3  N   UNL     1      33.449 -23.973 -14.853  0.00  0.00    -0.342 NA
ATOM      4  C   UNL     1      31.860 -23.139 -16.444  0.00  0.00    +0.143 C 
ATOM      5  C   UNL     1      32.934 -22.874 -17.289  0.00  0.00    +0.184 C 
ATOM      6  C   UNL     1      32.177 -23.706 -15.199  0.00  0.00    +0.133 C 
ATOM      7  C   UNL     1      34.400 -23.671 -15.759  0.00  0.00    +0.165 C 
ATOM      8  C   UNL     1      30.527 -22.863 -16.795  0.00  0.00    -0.011 C 
ATOM      9  C   UNL     1      31.128 -23.985 -14.326  0.00  0.00    +0.029 C 
ATOM     10  C   UNL     1      29.499 -23.151 -15.903  0.00  0.00    -0.004 C 
ATOM     11  C   UNL     1      29.800 -23.713 -14.668  0.00  0.00    +0.002 C 
ATOM     12  H   UNL     1      31.788 -22.437 -18.931  0.00  0.00    +0.154 HD
ENDROOT
BRANCH   7  14
ATOM     13  N   UNL     1      35.914 -25.035 -14.573  0.00  0.00    -0.398 NA
ATOM     14  C   UNL     1      35.759 -23.960 -15.382  0.00  0.00    +0.197 C 
ATOM     15  C   UNL     1      36.811 -23.174 -15.831  0.00  0.00    +0.098 C 
ATOM     16  C   UNL     1      37.180 -25.331 -14.200  0.00  0.00    +0.110 C 
ATOM     17  C   UNL     1      38.098 -23.511 -15.426  0.00  0.00    -0.016 C 
ATOM     18  C   UNL     1      38.294 -24.609 -14.596  0.00  0.00    +0.023 C 
ATOM     19  C   UNL     1      37.353 -26.516 -13.309  0.00  0.00    +0.066 C 
ENDBRANCH   7  14
BRANCH   1  21
ATOM     20  N   UNL     1      35.340 -20.093 -20.968  0.00  0.00    -0.242 NA
ATOM     21  C   UNL     1      33.563 -21.576 -19.353  0.00  0.00    +0.053 C 
ATOM     22  C   UNL     1      33.109 -20.497 -20.130  0.00  0.00    +0.035 C 
ATOM     23  C   UNL     1      34.930 -21.893 -19.407  0.00  0.00    +0.035 C 
ATOM     24  C   UNL     1      34.021 -19.802 -20.906  0.00  0.00    +0.100 C 
ATOM     25  C   UNL     1      35.761 -21.134 -20.216  0.00  0.00    +0.100 C 
ENDBRANCH   1  21
TORSDOF 2
ENDMDL
MODEL 2
REMARK VINA RESULT:     -11.5      1.283      5.740
REMARK  Name = 10267580
REMARK  2 active torsions:
REMARK  status: ('A' for Active; 'I' for Inactive)
REMARK    1  A    between atoms: N_1  and  C_21
REMARK    2  A    between atoms: C_7  and  C_14
REMARK                            x       y       z     vdW  Elec       q    Type
REMARK                         _______ _______ _______ _____ _____    ______ ____
ROOT
ATOM      1  N   UNL     1      34.387 -24.583 -14.346  0.00  0.00    -0.290 N 
ATOM      2  N   UNL     1      34.147 -23.354 -16.338  0.00  0.00    -0.327 NA
ATOM      3  N   UNL     1      31.961 -22.868 -17.226  0.00  0.00    -0.342 NA
ATOM      4  C   UNL     1      32.162 -24.123 -15.193  0.00  0.00    +0.143 C 
ATOM      5  C   UNL     1      33.542 -24.002 -15.324  0.00  0.00    +0.184 C 
ATOM      6  C   UNL     1      31.389 -23.521 -16.200  0.00  0.00    +0.133 C 
ATOM      7  C   UNL     1      33.308 -22.819 -17.240  0.00  0.00    +0.165 C 
ATOM      8  C   UNL     1      31.554 -24.805 -14.124  0.00  0.00    -0.011 C 
ATOM      9  C   UNL     1      30.004 -23.622 -16.103  0.00  0.00    +0.029 C 
ATOM     10  C   UNL     1      30.166 -24.891 -14.054  0.00  0.00    -0.004 C 
ATOM     11  C   UNL     1      29.391 -24.298 -15.044  0.00  0.00    +0.002 C 
ATOM     12  H   UNL     1      33.980 -24.737 -13.462  0.00  0.00    +0.154 HD
ENDROOT
BRANCH   7  14
ATOM     13  N   UNL     1      33.057 -21.390 -19.098  0.00  0.00    -0.398 NA
ATOM     14  C   UNL     1      33.913 -22.118 -18.342  0.00  0.00    +0.197 C 
ATOM     15  C   UNL     1      35.277 -22.202 -18.584  0.00  0.00    +0.098 C 
ATOM     16  C   UNL     1      33.595 -20.720 -20.143  0.00  0.00    +0.110 C 
ATOM     17  C   UNL     1      35.793 -21.498 -19.667  0.00  0.00    -0.016 C 
ATOM     18  C   UNL     1      34.943 -20.741 -20.466  0.00  0.00    +0.023 C 
ATOM     19  C   UNL     1      32.654 -19.918 -20.977  0.00  0.00    +0.066 C 
ENDBRANCH   7  14
BRANCH   1  21
ATOM     20  N   UNL     1      38.408 -25.746 -14.744  0.00  0.00    -0.242 NA
ATOM     21  C   UNL     1      35.709 -24.965 -14.477  0.00  0.00    +0.053 C 
ATOM     22  C   UNL     1      36.053 -26.203 -15.045  0.00  0.00    +0.035 C 
ATOM     23  C   UNL     1      36.752 -24.130 -14.046  0.00  0.00    +0.035 C 
ATOM     24  C   UNL     1      37.392 -26.540 -15.153  0.00  0.00    +0.100 C 
ATOM     25  C   UNL     1      38.060 -24.559 -14.199  0.00  0.00    +0.100 C 
ENDBRANCH   1  21
TORSDOF 2
ENDMDL
MODEL 3
REMARK VINA RESULT:     -11.4      1.552      6.868
REMARK  Name = 10267580
REMARK  2 active torsions:
REMARK  status: ('A' for Active; 'I' for Inactive)
REMARK    1  A    between atoms: N_1  and  C_21
REMARK    2  A    between atoms: C_7  and  C_14
REMARK                            x       y       z     vdW  Elec       q    Type
REMARK                         _______ _______ _______ _____ _____    ______ ____
ROOT
ATOM      1  N   UNL     1      35.796 -23.529 -16.236  0.00  0.00    -0.290 N 
ATOM      2  N   UNL     1      33.445 -23.484 -16.309  0.00  0.00    -0.327 NA
ATOM      3  N   UNL     1      32.292 -22.283 -18.050  0.00  0.00    -0.342 NA
ATOM      4  C   UNL     1      34.690 -22.304 -18.012  0.00  0.00    +0.143 C 
ATOM      5  C   UNL     1      34.606 -23.094 -16.869  0.00  0.00    +0.184 C 
ATOM      6  C   UNL     1      33.469 -21.911 -18.585  0.00  0.00    +0.133 C 
ATOM      7  C   UNL     1      32.344 -23.048 -16.942  0.00  0.00    +0.165 C 
ATOM      8  C   UNL     1      35.915 -21.909 -18.578  0.00  0.00    -0.011 C 
ATOM      9  C   UNL     1      33.513 -21.120 -19.729  0.00  0.00    +0.029 C 
ATOM     10  C   UNL     1      35.928 -21.118 -19.723  0.00  0.00    -0.004 C 
ATOM     11  C   UNL     1      34.726 -20.723 -20.298  0.00  0.00    +0.002 C 
ATOM     12  H   UNL     1      36.601 -23.556 -16.803  0.00  0.00    +0.154 HD
ENDROOT
BRANCH   7  14
ATOM     13  N   UNL     1      30.002 -22.785 -16.865  0.00  0.00    -0.398 NA
ATOM     14  C   UNL     1      31.080 -23.442 -16.376  0.00  0.00    +0.197 C 
ATOM     15  C   UNL     1      31.006 -24.428 -15.401  0.00  0.00    +0.098 C 
ATOM     16  C   UNL     1      28.800 -23.132 -16.352  0.00  0.00    +0.110 C 
ATOM     17  C   UNL     1      29.752 -24.757 -14.898  0.00  0.00    -0.016 C 
ATOM     18  C   UNL     1      28.623 -24.102 -15.378  0.00  0.00    +0.023 C 
ATOM     19  C   UNL     1      27.611 -22.409 -16.889  0.00  0.00    +0.066 C 
ENDBRANCH   7  14
BRANCH   1  21
ATOM     20  N   UNL     1      36.330 -24.717 -12.238  0.00  0.00    -0.242 NA
ATOM     21  C   UNL     1      35.972 -23.919 -14.921  0.00  0.00    +0.053 C 
ATOM     22  C   UNL     1      36.496 -25.183 -14.604  0.00  0.00    +0.035 C 
ATOM     23  C   UNL     1      35.633 -23.066 -13.859  0.00  0.00    +0.035 C 
ATOM     24  C   UNL     1      36.652 -25.528 -13.272  0.00  0.00    +0.100 C 
ATOM     25  C   UNL     1      35.827 -23.505 -12.559  0.00  0.00    +0.100 C 
ENDBRANCH   1  21
TORSDOF 2
ENDMDL
MODEL 4
REMARK VINA RESULT:     -11.0      1.234      1.759
REMARK  Name = 10267580
REMARK  2 active torsions:
REMARK  status: ('A' for Active; 'I' for Inactive)
REMARK    1  A    between atoms: N_1  and  C_21
REMARK    2  A    between atoms: C_7  and  C_14
REMARK                            x       y       z     vdW  Elec       q    Type
REMARK                         _______ _______ _______ _____ _____    ______ ____
ROOT
ATOM      1  N   UNL     1      33.346 -22.658 -17.913  0.00  0.00    -0.290 N 
ATOM      2  N   UNL     1      34.605 -23.748 -16.250  0.00  0.00    -0.327 NA
ATOM      3  N   UNL     1      33.541 -24.605 -14.266  0.00  0.00    -0.342 NA
ATOM      4  C   UNL     1      32.221 -23.501 -15.937  0.00  0.00    +0.143 C 
ATOM      5  C   UNL     1      33.396 -23.323 -16.662  0.00  0.00    +0.184 C 
ATOM      6  C   UNL     1      32.347 -24.168 -14.707  0.00  0.00    +0.133 C 
ATOM      7  C   UNL     1      34.604 -24.371 -15.061  0.00  0.00    +0.165 C 
ATOM      8  C   UNL     1      30.969 -23.047 -16.389  0.00  0.00    -0.011 C 
ATOM      9  C   UNL     1      31.194 -24.365 -13.953  0.00  0.00    +0.029 C 
ATOM     10  C   UNL     1      29.832 -23.258 -15.613  0.00  0.00    -0.004 C 
ATOM     11  C   UNL     1      29.946 -23.917 -14.395  0.00  0.00    +0.002 C 
ATOM     12  H   UNL     1      32.473 -22.664 -18.369  0.00  0.00    +0.154 HD
ENDROOT
BRANCH   7  14
ATOM     13  N   UNL     1      36.388 -24.152 -13.535  0.00  0.00    -0.398 NA
ATOM     14  C   UNL     1      35.877 -24.842 -14.581  0.00  0.00    +0.197 C 
ATOM     15  C   UNL     1      36.509 -25.928 -15.172  0.00  0.00    +0.098 C 
ATOM     16  C   UNL     1      37.584 -24.569 -13.063  0.00  0.00    +0.110 C 
ATOM     17  C   UNL     1      37.738 -26.328 -14.658  0.00  0.00    -0.016 C 
ATOM     18  C   UNL     1      38.292 -25.641 -13.584  0.00  0.00    +0.023 C 
ATOM     19  C   UNL     1      38.149 -23.810 -11.909  0.00  0.00    +0.066 C 
ENDBRANCH   7  14
BRANCH   1  21
ATOM     20  N   UNL     1      36.456 -20.661 -19.918  0.00  0.00    -0.242 NA
ATOM     21  C   UNL     1      34.368 -22.002 -18.572  0.00  0.00    +0.053 C 
ATOM     22  C   UNL     1      35.695 -22.084 -18.117  0.00  0.00    +0.035 C 
ATOM     23  C   UNL     1      34.115 -21.231 -19.718  0.00  0.00    +0.035 C 
ATOM     24  C   UNL     1      36.683 -21.407 -18.813  0.00  0.00    +0.100 C 
ATOM     25  C   UNL     1      35.175 -20.592 -20.343  0.00  0.00    +0.100 C 
ENDBRANCH   1  21
TORSDOF 2
ENDMDL
MODEL 5
REMARK VINA RESULT:     -10.9      1.253      5.480
REMARK  Name = 10267580
REMARK  2 active torsions:
REMARK  status: ('A' for Active; 'I' for Inactive)
REMARK    1  A    between atoms: N_1  and  C_21
REMARK    2  A    between atoms: C_7  and  C_14
REMARK                            x       y       z     vdW  Elec       q    Type
REMARK                         _______ _______ _______ _____ _____    ______ ____
ROOT
ATOM      1  N   UNL     1      34.246 -24.399 -14.417  0.00  0.00    -0.290 N 
ATOM      2  N   UNL     1      33.924 -23.213 -16.423  0.00  0.00    -0.327 NA
ATOM      3  N   UNL     1      31.707 -22.840 -17.289  0.00  0.00    -0.342 NA
ATOM      4  C   UNL     1      31.991 -24.054 -15.241  0.00  0.00    +0.143 C 
ATOM      5  C   UNL     1      33.363 -23.872 -15.392  0.00  0.00    +0.184 C 
ATOM      6  C   UNL     1      31.179 -23.503 -16.246  0.00  0.00    +0.133 C 
ATOM      7  C   UNL     1      33.050 -22.730 -17.321  0.00  0.00    +0.165 C 
ATOM      8  C   UNL     1      31.429 -24.747 -14.154  0.00  0.00    -0.011 C 
ATOM      9  C   UNL     1      29.801 -23.666 -16.129  0.00  0.00    +0.029 C 
ATOM     10  C   UNL     1      30.048 -24.895 -14.064  0.00  0.00    -0.004 C 
ATOM     11  C   UNL     1      29.234 -24.354 -15.052  0.00  0.00    +0.002 C 
ATOM     12  H   UNL     1      33.858 -24.558 -13.525  0.00  0.00    +0.154 HD
ENDROOT
BRANCH   7  14
ATOM     13  N   UNL     1      34.951 -22.124 -18.578  0.00  0.00    -0.398 NA
ATOM     14  C   UNL     1      33.608 -22.018 -18.441  0.00  0.00    +0.197 C 
ATOM     15  C   UNL     1      32.800 -21.285 -19.300  0.00  0.00    +0.098 C 
ATOM     16  C   UNL     1      35.505 -21.465 -19.620  0.00  0.00    +0.110 C 
ATOM     17  C   UNL     1      33.407 -20.622 -20.361  0.00  0.00    -0.016 C 
ATOM     18  C   UNL     1      34.784 -20.708 -20.531  0.00  0.00    +0.023 C 
ATOM     19  C   UNL     1      36.985 -21.580 -19.772  0.00  0.00    +0.066 C 
ENDBRANCH   7  14
BRANCH   1  21
ATOM     20  N   UNL     1      38.310 -25.383 -14.852  0.00  0.00    -0.242 NA
ATOM     21  C   UNL     1      35.582 -24.722 -14.560  0.00  0.00    +0.053 C 
ATOM     22  C   UNL     1      35.975 -25.975 -15.059  0.00  0.00    +0.035 C 
ATOM     23  C   UNL     1      36.591 -23.810 -14.212  0.00  0.00    +0.035 C 
ATOM     24  C   UNL     1      37.327 -26.251 -15.183  0.00  0.00    +0.100 C 
ATOM     25  C   UNL     1      37.915 -24.183 -14.374  0.00  0.00    +0.100 C 
ENDBRANCH   1  21
TORSDOF 2
ENDMDL
MODEL 6
REMARK VINA RESULT:     -10.7      1.948      6.121
REMARK  Name = 10267580
REMARK  2 active torsions:
REMARK  status: ('A' for Active; 'I' for Inactive)
REMARK    1  A    between atoms: N_1  and  C_21
REMARK    2  A    between atoms: C_7  and  C_14
REMARK                            x       y       z     vdW  Elec       q    Type
REMARK                         _______ _______ _______ _____ _____    ______ ____
ROOT
ATOM      1  N   UNL     1      32.933 -24.556 -13.787  0.00  0.00    -0.290 N 
ATOM      2  N   UNL     1      34.253 -23.499 -15.423  0.00  0.00    -0.327 NA
ATOM      3  N   UNL     1      36.561 -22.966 -14.985  0.00  0.00    -0.342 NA
ATOM      4  C   UNL     1      35.250 -24.043 -13.290  0.00  0.00    +0.143 C 
ATOM      5  C   UNL     1      34.182 -24.015 -14.182  0.00  0.00    +0.184 C 
ATOM      6  C   UNL     1      36.456 -23.490 -13.751  0.00  0.00    +0.133 C 
ATOM      7  C   UNL     1      35.455 -22.999 -15.754  0.00  0.00    +0.165 C 
ATOM      8  C   UNL     1      35.151 -24.588 -11.997  0.00  0.00    -0.011 C 
ATOM      9  C   UNL     1      37.547 -23.500 -12.886  0.00  0.00    +0.029 C 
ATOM     10  C   UNL     1      36.258 -24.583 -11.154  0.00  0.00    -0.004 C 
ATOM     11  C   UNL     1      37.457 -24.039 -11.599  0.00  0.00    +0.002 C 
ATOM     12  H   UNL     1      32.961 -25.222 -13.063  0.00  0.00    +0.154 HD
ENDROOT
BRANCH   7  14
ATOM     13  N   UNL     1      34.441 -22.458 -17.812  0.00  0.00    -0.398 NA
ATOM     14  C   UNL     1      35.575 -22.437 -17.074  0.00  0.00    +0.197 C 
ATOM     15  C   UNL     1      36.781 -21.919 -17.526  0.00  0.00    +0.098 C 
ATOM     16  C   UNL     1      34.522 -21.938 -19.058  0.00  0.00    +0.110 C 
ATOM     17  C   UNL     1      36.825 -21.393 -18.812  0.00  0.00    -0.016 C 
ATOM     18  C   UNL     1      35.678 -21.398 -19.599  0.00  0.00    +0.023 C 
ATOM     19  C   UNL     1      33.273 -21.960 -19.873  0.00  0.00    +0.066 C 
ENDBRANCH   7  14
BRANCH   1  21
ATOM     20  N   UNL     1      29.117 -23.668 -15.314  0.00  0.00    -0.242 NA
ATOM     21  C   UNL     1      31.678 -24.263 -14.289  0.00  0.00    +0.053 C 
ATOM     22  C   UNL     1      30.744 -25.281 -14.542  0.00  0.00    +0.035 C 
ATOM     23  C   UNL     1      31.296 -22.941 -14.562  0.00  0.00    +0.035 C 
ATOM     24  C   UNL     1      29.500 -24.937 -15.046  0.00  0.00    +0.100 C 
ATOM     25  C   UNL     1      30.027 -22.701 -15.065  0.00  0.00    +0.100 C 
ENDBRANCH   1  21
TORSDOF 2
ENDMDL
MODEL 7
REMARK VINA RESULT:     -10.6      1.587      6.309
REMARK  Name = 10267580
REMARK  2 active torsions:
REMARK  status: ('A' for Active; 'I' for Inactive)
REMARK    1  A    between atoms: N_1  and  C_21
REMARK    2  A    between atoms: C_7  and  C_14
REMARK                            x       y       z     vdW  Elec       q    Type
REMARK                         _______ _______ _______ _____ _____    ______ ____
ROOT
ATOM      1  N   UNL     1      32.828 -24.549 -14.682  0.00  0.00    -0.290 N 
ATOM      2  N   UNL     1      33.767 -23.311 -16.448  0.00  0.00    -0.327 NA
ATOM      3  N   UNL     1      36.131 -22.851 -16.507  0.00  0.00    -0.342 NA
ATOM      4  C   UNL     1      35.214 -24.118 -14.689  0.00  0.00    +0.143 C 
ATOM      5  C   UNL     1      33.969 -23.974 -15.294  0.00  0.00    +0.184 C 
ATOM      6  C   UNL     1      36.299 -23.521 -15.352  0.00  0.00    +0.133 C 
ATOM      7  C   UNL     1      34.876 -22.783 -16.992  0.00  0.00    +0.165 C 
ATOM      8  C   UNL     1      35.399 -24.815 -13.481  0.00  0.00    -0.011 C 
ATOM      9  C   UNL     1      37.560 -23.643 -14.776  0.00  0.00    +0.029 C 
ATOM     10  C   UNL     1      36.672 -24.920 -12.928  0.00  0.00    -0.004 C 
ATOM     11  C   UNL     1      37.753 -24.334 -13.577  0.00  0.00    +0.002 C 
ATOM     12  H   UNL     1      33.001 -25.300 -14.068  0.00  0.00    +0.154 HD
ENDROOT
BRANCH   7  14
ATOM     13  N   UNL     1      35.817 -21.445 -18.690  0.00  0.00    -0.398 NA
ATOM     14  C   UNL     1      34.705 -22.065 -18.228  0.00  0.00    +0.197 C 
ATOM     15  C   UNL     1      33.477 -22.030 -18.874  0.00  0.00    +0.098 C 
ATOM     16  C   UNL     1      35.688 -20.761 -19.849  0.00  0.00    +0.110 C 
ATOM     17  C   UNL     1      33.385 -21.315 -20.064  0.00  0.00    -0.016 C 
ATOM     18  C   UNL     1      34.506 -20.667 -20.567  0.00  0.00    +0.023 C 
ATOM     19  C   UNL     1      36.912 -20.077 -20.360  0.00  0.00    +0.066 C 
ENDBRANCH   7  14
BRANCH   1  21
ATOM     20  N   UNL     1      28.796 -23.452 -15.152  0.00  0.00    -0.242 NA
ATOM     21  C   UNL     1      31.502 -24.189 -14.837  0.00  0.00    +0.053 C 
ATOM     22  C   UNL     1      31.115 -22.839 -14.849  0.00  0.00    +0.035 C 
ATOM     23  C   UNL     1      30.499 -25.160 -14.987  0.00  0.00    +0.035 C 
ATOM     24  C   UNL     1      29.774 -22.530 -15.006  0.00  0.00    +0.100 C 
ATOM     25  C   UNL     1      29.185 -24.747 -15.138  0.00  0.00    +0.100 C 
ENDBRANCH   1  21
TORSDOF 2
ENDMDL
MODEL 8
REMARK VINA RESULT:     -10.4      1.567      5.095
REMARK  Name = 10267580
REMARK  2 active torsions:
REMARK  status: ('A' for Active; 'I' for Inactive)
REMARK    1  A    between atoms: N_1  and  C_21
REMARK    2  A    between atoms: C_7  and  C_14
REMARK                            x       y       z     vdW  Elec       q    Type
REMARK                         _______ _______ _______ _____ _____    ______ ____
ROOT
ATOM      1  N   UNL     1      31.579 -22.689 -16.934  0.00  0.00    -0.290 N 
ATOM      2  N   UNL     1      33.569 -23.365 -15.876  0.00  0.00    -0.327 NA
ATOM      3  N   UNL     1      35.709 -22.941 -16.897  0.00  0.00    -0.342 NA
ATOM      4  C   UNL     1      33.704 -22.236 -18.009  0.00  0.00    +0.143 C 
ATOM      5  C   UNL     1      32.993 -22.767 -16.937  0.00  0.00    +0.184 C 
ATOM      6  C   UNL     1      35.103 -22.350 -17.942  0.00  0.00    +0.133 C 
ATOM      7  C   UNL     1      34.910 -23.416 -15.921  0.00  0.00    +0.165 C 
ATOM      8  C   UNL     1      33.081 -21.617 -19.107  0.00  0.00    -0.011 C 
ATOM      9  C   UNL     1      35.848 -21.830 -18.997  0.00  0.00    +0.029 C 
ATOM     10  C   UNL     1      33.851 -21.107 -20.147  0.00  0.00    -0.004 C 
ATOM     11  C   UNL     1      35.236 -21.214 -20.092  0.00  0.00    +0.002 C 
ATOM     12  H   UNL     1      31.185 -21.978 -17.491  0.00  0.00    +0.154 HD
ENDROOT
BRANCH   7  14
ATOM     13  N   UNL     1      36.759 -24.620 -15.091  0.00  0.00    -0.398 NA
ATOM     14  C   UNL     1      35.566 -24.047 -14.806  0.00  0.00    +0.197 C 
ATOM     15  C   UNL     1      34.991 -24.049 -13.543  0.00  0.00    +0.098 C 
ATOM     16  C   UNL     1      37.400 -25.222 -14.064  0.00  0.00    +0.110 C 
ATOM     17  C   UNL     1      35.681 -24.679 -12.512  0.00  0.00    -0.016 C 
ATOM     18  C   UNL     1      36.909 -25.278 -12.769  0.00  0.00    +0.023 C 
ATOM     19  C   UNL     1      38.715 -25.855 -14.376  0.00  0.00    +0.066 C 
ENDBRANCH   7  14
BRANCH   1  21
ATOM     20  N   UNL     1      28.847 -25.116 -14.853  0.00  0.00    -0.242 NA
ATOM     21  C   UNL     1      30.680 -23.486 -16.250  0.00  0.00    +0.053 C 
ATOM     22  C   UNL     1      31.120 -24.420 -15.297  0.00  0.00    +0.035 C 
ATOM     23  C   UNL     1      29.300 -23.391 -16.485  0.00  0.00    +0.035 C 
ATOM     24  C   UNL     1      30.180 -25.196 -14.638  0.00  0.00    +0.100 C 
ATOM     25  C   UNL     1      28.441 -24.213 -15.774  0.00  0.00    +0.100 C 
ENDBRANCH   1  21
TORSDOF 2
ENDMDL
MODEL 9
REMARK VINA RESULT:     -10.1      1.332      5.435
REMARK  Name = 10267580
REMARK  2 active torsions:
REMARK  status: ('A' for Active; 'I' for Inactive)
REMARK    1  A    between atoms: N_1  and  C_21
REMARK    2  A    between atoms: C_7  and  C_14
REMARK                            x       y       z     vdW  Elec       q    Type
REMARK                         _______ _______ _______ _____ _____    ______ ____
ROOT
ATOM      1  N   UNL     1      36.532 -22.474 -16.797  0.00  0.00    -0.290 N 
ATOM      2  N   UNL     1      34.610 -23.307 -15.726  0.00  0.00    -0.327 NA
ATOM      3  N   UNL     1      34.797 -24.910 -13.937  0.00  0.00    -0.342 NA
ATOM      4  C   UNL     1      36.781 -24.086 -15.003  0.00  0.00    +0.143 C 
ATOM      5  C   UNL     1      35.954 -23.314 -15.813  0.00  0.00    +0.184 C 
ATOM      6  C   UNL     1      36.137 -24.893 -14.050  0.00  0.00    +0.133 C 
ATOM      7  C   UNL     1      34.107 -24.117 -14.780  0.00  0.00    +0.165 C 
ATOM      8  C   UNL     1      38.183 -24.076 -15.114  0.00  0.00    -0.011 C 
ATOM      9  C   UNL     1      36.933 -25.680 -13.222  0.00  0.00    +0.029 C 
ATOM     10  C   UNL     1      38.953 -24.874 -14.272  0.00  0.00    -0.004 C 
ATOM     11  C   UNL     1      38.326 -25.676 -13.325  0.00  0.00    +0.002 C 
ATOM     12  H   UNL     1      37.468 -22.208 -16.641  0.00  0.00    +0.154 HD
ENDROOT
BRANCH   7  14
ATOM     13  N   UNL     1      32.000 -23.456 -15.606  0.00  0.00    -0.398 NA
ATOM     14  C   UNL     1      32.673 -24.141 -14.652  0.00  0.00    +0.197 C 
ATOM     15  C   UNL     1      32.056 -24.825 -13.613  0.00  0.00    +0.098 C 
ATOM     16  C   UNL     1      30.651 -23.459 -15.513  0.00  0.00    +0.110 C 
ATOM     17  C   UNL     1      30.667 -24.805 -13.551  0.00  0.00    -0.016 C 
ATOM     18  C   UNL     1      29.944 -24.111 -14.515  0.00  0.00    +0.023 C 
ATOM     19  C   UNL     1      29.908 -22.705 -16.564  0.00  0.00    +0.066 C 
ENDBRANCH   7  14
BRANCH   1  21
ATOM     20  N   UNL     1      34.762 -20.978 -20.306  0.00  0.00    -0.242 NA
ATOM     21  C   UNL     1      35.950 -21.983 -17.951  0.00  0.00    +0.053 C 
ATOM     22  C   UNL     1      36.683 -21.195 -18.854  0.00  0.00    +0.035 C 
ATOM     23  C   UNL     1      34.607 -22.253 -18.258  0.00  0.00    +0.035 C 
ATOM     24  C   UNL     1      36.054 -20.726 -19.995  0.00  0.00    +0.100 C 
ATOM     25  C   UNL     1      34.071 -21.737 -19.427  0.00  0.00    +0.100 C 
ENDBRANCH   1  21
TORSDOF 2
ENDMDL
