MODEL 1
REMARK VINA RESULT:      -8.3      0.000      0.000
REMARK  Name = 644013
REMARK  6 active torsions:
REMARK  status: ('A' for Active; 'I' for Inactive)
REMARK    1  A    between atoms: C_4  and  C_12
REMARK    2  A    between atoms: C_8  and  O_15
REMARK    3  A    between atoms: C_12  and  O_13
REMARK    4  A    between atoms: O_15  and  P_16
REMARK    5  A    between atoms: P_16  and  C_18
REMARK    6  A    between atoms: P_16  and  O_24
REMARK                            x       y       z     vdW  Elec       q    Type
REMARK                         _______ _______ _______ _____ _____    ______ ____
ROOT
ATOM      1  N   UNL     1      36.517 -24.061 -13.290  0.00  0.00    +0.389 N 
ATOM      2  C   UNL     1      35.917 -25.189 -14.033  0.00  0.00    -0.045 C 
ATOM      3  C   UNL     1      37.185 -23.288 -14.351  0.00  0.00    -0.056 C 
ATOM      4  C   UNL     1      34.674 -24.646 -14.779  0.00  0.00    +0.108 C 
ATOM      5  C   UNL     1      37.018 -25.615 -15.013  0.00  0.00    -0.022 C 
ATOM      6  C   UNL     1      37.854 -24.350 -15.231  0.00  0.00    -0.023 C 
ATOM      7  C   UNL     1      36.072 -22.530 -15.103  0.00  0.00    +0.010 C 
ATOM      8  C   UNL     1      35.029 -23.478 -15.719  0.00  0.00    +0.131 C 
ATOM      9  C   UNL     1      37.434 -24.495 -12.239  0.00  0.00    -0.100 C 
ATOM     10  H   UNL     1      35.826 -23.514 -12.776  0.00  0.00    -0.080 HD
ENDROOT
BRANCH   4  12
ATOM     11  O   UNL     1      33.855 -23.689 -12.720  0.00  0.00    -0.250 OA
ATOM     12  C   UNL     1      33.620 -24.258 -13.777  0.00  0.00    +0.317 C 
BRANCH  12  13
ATOM     13  O   UNL     1      32.393 -24.639 -14.235  0.00  0.00    -0.444 OA
ATOM     14  C   UNL     1      31.304 -23.793 -13.853  0.00  0.00    +0.256 C 
ENDBRANCH  12  13
ENDBRANCH   4  12
BRANCH   8  15
ATOM     15  O   UNL     1      33.864 -22.760 -16.108  0.00  0.00    -0.293 OA
BRANCH  15  16
ATOM     16  P   UNL     1      33.236 -23.044 -17.577  0.00  0.00    +0.363 P 
ATOM     17  O   UNL     1      31.732 -23.008 -17.592  0.00  0.00    -0.253 OA
BRANCH  16  18
ATOM     18  C   UNL     1      34.102 -21.997 -18.696  0.00  0.00    +0.080 C 
ATOM     19  C   UNL     1      33.396 -21.162 -19.566  0.00  0.00    +0.007 C 
ATOM     20  C   UNL     1      35.499 -21.996 -18.719  0.00  0.00    +0.007 C 
ATOM     21  C   UNL     1      34.082 -20.332 -20.453  0.00  0.00    +0.000 C 
ATOM     22  C   UNL     1      36.185 -21.166 -19.605  0.00  0.00    +0.000 C 
ATOM     23  C   UNL     1      35.477 -20.334 -20.472  0.00  0.00    +0.000 C 
ENDBRANCH  16  18
BRANCH  16  24
ATOM     24  O   UNL     1      33.804 -24.538 -17.871  0.00  0.00    -0.321 OA
ATOM     25  H   UNL     1      33.410 -25.164 -17.243  0.00  0.00    +0.220 HD
ENDBRANCH  16  24
ENDBRANCH  15  16
ENDBRANCH   8  15
TORSDOF 6
ENDMDL
MODEL 2
REMARK VINA RESULT:      -8.1      2.134      4.831
REMARK  Name = 644013
REMARK  6 active torsions:
REMARK  status: ('A' for Active; 'I' for Inactive)
REMARK    1  A    between atoms: C_4  and  C_12
REMARK    2  A    between atoms: C_8  and  O_15
REMARK    3  A    between atoms: C_12  and  O_13
REMARK    4  A    between atoms: O_15  and  P_16
REMARK    5  A    between atoms: P_16  and  C_18
REMARK    6  A    between atoms: P_16  and  O_24
REMARK                            x       y       z     vdW  Elec       q    Type
REMARK                         _______ _______ _______ _____ _____    ______ ____
ROOT
ATOM      1  N   UNL     1      37.740 -24.692 -15.155  0.00  0.00    +0.389 N 
ATOM      2  C   UNL     1      37.366 -23.499 -14.367  0.00  0.00    -0.045 C 
ATOM      3  C   UNL     1      37.138 -25.795 -14.386  0.00  0.00    -0.056 C 
ATOM      4  C   UNL     1      35.868 -23.215 -14.637  0.00  0.00    +0.108 C 
ATOM      5  C   UNL     1      37.602 -23.926 -12.913  0.00  0.00    -0.022 C 
ATOM      6  C   UNL     1      37.442 -25.449 -12.924  0.00  0.00    -0.023 C 
ATOM      7  C   UNL     1      35.626 -25.759 -14.688  0.00  0.00    +0.010 C 
ATOM      8  C   UNL     1      34.978 -24.424 -14.287  0.00  0.00    +0.131 C 
ATOM      9  C   UNL     1      39.185 -24.835 -15.320  0.00  0.00    -0.100 C 
ATOM     10  H   UNL     1      37.406 -24.651 -16.118  0.00  0.00    -0.080 HD
ENDROOT
BRANCH   4  12
ATOM     11  O   UNL     1      34.756 -23.130 -16.778  0.00  0.00    -0.250 OA
ATOM     12  C   UNL     1      35.691 -22.785 -16.070  0.00  0.00    +0.317 C 
BRANCH  12  13
ATOM     13  O   UNL     1      36.724 -21.971 -16.432  0.00  0.00    -0.444 OA
ATOM     14  C   UNL     1      36.778 -21.627 -17.820  0.00  0.00    +0.256 C 
ENDBRANCH  12  13
ENDBRANCH   4  12
BRANCH   8  15
ATOM     15  O   UNL     1      33.687 -24.295 -14.869  0.00  0.00    -0.293 OA
BRANCH  15  16
ATOM     16  P   UNL     1      32.409 -24.122 -13.884  0.00  0.00    +0.363 P 
ATOM     17  O   UNL     1      32.629 -23.094 -12.807  0.00  0.00    -0.253 OA
BRANCH  16  18
ATOM     18  C   UNL     1      31.002 -23.940 -14.927  0.00  0.00    +0.080 C 
ATOM     19  C   UNL     1      29.962 -24.872 -14.872  0.00  0.00    +0.007 C 
ATOM     20  C   UNL     1      30.920 -22.864 -15.814  0.00  0.00    +0.007 C 
ATOM     21  C   UNL     1      28.847 -24.728 -15.698  0.00  0.00    +0.000 C 
ATOM     22  C   UNL     1      29.805 -22.720 -16.640  0.00  0.00    +0.000 C 
ATOM     23  C   UNL     1      28.768 -23.652 -16.582  0.00  0.00    +0.000 C 
ENDBRANCH  16  18
BRANCH  16  24
ATOM     24  O   UNL     1      32.288 -25.621 -13.269  0.00  0.00    -0.321 OA
ATOM     25  H   UNL     1      33.028 -26.162 -13.587  0.00  0.00    +0.220 HD
ENDBRANCH  16  24
ENDBRANCH  15  16
ENDBRANCH   8  15
TORSDOF 6
ENDMDL
MODEL 3
REMARK VINA RESULT:      -8.0      1.696      2.288
REMARK  Name = 644013
REMARK  6 active torsions:
REMARK  status: ('A' for Active; 'I' for Inactive)
REMARK    1  A    between atoms: C_4  and  C_12
REMARK    2  A    between atoms: C_8  and  O_15
REMARK    3  A    between atoms: C_12  and  O_13
REMARK    4  A    between atoms: O_15  and  P_16
REMARK    5  A    between atoms: P_16  and  C_18
REMARK    6  A    between atoms: P_16  and  O_24
REMARK                            x       y       z     vdW  Elec       q    Type
REMARK                         _______ _______ _______ _____ _____    ______ ____
ROOT
ATOM      1  N   UNL     1      35.010 -23.522 -13.730  0.00  0.00    +0.389 N 
ATOM      2  C   UNL     1      34.601 -24.642 -14.604  0.00  0.00    -0.045 C 
ATOM      3  C   UNL     1      36.249 -23.044 -14.369  0.00  0.00    -0.056 C 
ATOM      4  C   UNL     1      34.006 -24.030 -15.896  0.00  0.00    +0.108 C 
ATOM      5  C   UNL     1      35.910 -25.389 -14.888  0.00  0.00    -0.022 C 
ATOM      6  C   UNL     1      37.003 -24.326 -14.741  0.00  0.00    -0.023 C 
ATOM      7  C   UNL     1      35.814 -22.245 -15.615  0.00  0.00    +0.010 C 
ATOM      8  C   UNL     1      35.005 -23.097 -16.607  0.00  0.00    +0.131 C 
ATOM      9  C   UNL     1      35.207 -23.926 -12.340  0.00  0.00    -0.100 C 
ATOM     10  H   UNL     1      34.297 -22.797 -13.656  0.00  0.00    -0.080 HD
ENDROOT
BRANCH   4  12
ATOM     11  O   UNL     1      32.515 -22.718 -14.524  0.00  0.00    -0.250 OA
ATOM     12  C   UNL     1      32.717 -23.324 -15.566  0.00  0.00    +0.317 C 
BRANCH  12  13
ATOM     13  O   UNL     1      31.839 -23.473 -16.599  0.00  0.00    -0.444 OA
ATOM     14  C   UNL     1      30.508 -23.011 -16.346  0.00  0.00    +0.256 C 
ENDBRANCH  12  13
ENDBRANCH   4  12
BRANCH   8  15
ATOM     15  O   UNL     1      34.348 -22.272 -17.560  0.00  0.00    -0.293 OA
BRANCH  15  16
ATOM     16  P   UNL     1      34.732 -22.444 -19.127  0.00  0.00    +0.363 P 
ATOM     17  O   UNL     1      34.248 -23.742 -19.714  0.00  0.00    -0.253 OA
BRANCH  16  18
ATOM     18  C   UNL     1      34.254 -20.946 -19.920  0.00  0.00    +0.080 C 
ATOM     19  C   UNL     1      35.220 -20.115 -20.493  0.00  0.00    +0.007 C 
ATOM     20  C   UNL     1      32.906 -20.584 -19.982  0.00  0.00    +0.007 C 
ATOM     21  C   UNL     1      34.842 -18.929 -21.122  0.00  0.00    +0.000 C 
ATOM     22  C   UNL     1      32.527 -19.397 -20.611  0.00  0.00    +0.000 C 
ATOM     23  C   UNL     1      33.495 -18.570 -21.181  0.00  0.00    +0.000 C 
ENDBRANCH  16  18
BRANCH  16  24
ATOM     24  O   UNL     1      36.354 -22.384 -19.055  0.00  0.00    -0.321 OA
ATOM     25  H   UNL     1      36.724 -23.221 -19.375  0.00  0.00    +0.220 HD
ENDBRANCH  16  24
ENDBRANCH  15  16
ENDBRANCH   8  15
TORSDOF 6
ENDMDL
MODEL 4
REMARK VINA RESULT:      -7.7     12.012     15.647
REMARK  Name = 644013
REMARK  6 active torsions:
REMARK  status: ('A' for Active; 'I' for Inactive)
REMARK    1  A    between atoms: C_4  and  C_12
REMARK    2  A    between atoms: C_8  and  O_15
REMARK    3  A    between atoms: C_12  and  O_13
REMARK    4  A    between atoms: O_15  and  P_16
REMARK    5  A    between atoms: P_16  and  C_18
REMARK    6  A    between atoms: P_16  and  O_24
REMARK                            x       y       z     vdW  Elec       q    Type
REMARK                         _______ _______ _______ _____ _____    ______ ____
ROOT
ATOM      1  N   UNL     1      32.970  -7.068 -23.659  0.00  0.00    +0.389 N 
ATOM      2  C   UNL     1      32.022  -8.039 -24.245  0.00  0.00    -0.045 C 
ATOM      3  C   UNL     1      32.331  -6.719 -22.378  0.00  0.00    -0.056 C 
ATOM      4  C   UNL     1      32.206  -9.379 -23.491  0.00  0.00    +0.108 C 
ATOM      5  C   UNL     1      30.644  -7.425 -23.970  0.00  0.00    -0.022 C 
ATOM      6  C   UNL     1      30.847  -6.556 -22.725  0.00  0.00    -0.023 C 
ATOM      7  C   UNL     1      32.577  -7.911 -21.432  0.00  0.00    +0.010 C 
ATOM      8  C   UNL     1      31.986  -9.223 -21.973  0.00  0.00    +0.131 C 
ATOM      9  C   UNL     1      33.197  -5.907 -24.516  0.00  0.00    -0.100 C 
ATOM     10  H   UNL     1      33.908  -7.450 -23.543  0.00  0.00    -0.080 HD
ENDROOT
BRANCH   4  12
ATOM     11  O   UNL     1      34.616  -9.358 -23.605  0.00  0.00    -0.250 OA
ATOM     12  C   UNL     1      33.564  -9.948 -23.805  0.00  0.00    +0.317 C 
BRANCH  12  13
ATOM     13  O   UNL     1      33.424 -11.196 -24.337  0.00  0.00    -0.444 OA
ATOM     14  C   UNL     1      34.176 -11.444 -25.529  0.00  0.00    +0.256 C 
ENDBRANCH  12  13
ENDBRANCH   4  12
BRANCH   8  15
ATOM     15  O   UNL     1      32.505 -10.340 -21.263  0.00  0.00    -0.293 OA
BRANCH  15  16
ATOM     16  P   UNL     1      31.475 -11.500 -20.787  0.00  0.00    +0.363 P 
ATOM     17  O   UNL     1      30.060 -11.252 -21.234  0.00  0.00    -0.253 OA
BRANCH  16  18
ATOM     18  C   UNL     1      32.224 -13.034 -21.219  0.00  0.00    +0.080 C 
ATOM     19  C   UNL     1      32.378 -13.387 -22.563  0.00  0.00    +0.007 C 
ATOM     20  C   UNL     1      32.668 -13.905 -20.220  0.00  0.00    +0.007 C 
ATOM     21  C   UNL     1      32.972 -14.602 -22.905  0.00  0.00    +0.000 C 
ATOM     22  C   UNL     1      33.262 -15.120 -20.563  0.00  0.00    +0.000 C 
ATOM     23  C   UNL     1      33.414 -15.468 -21.905  0.00  0.00    +0.000 C 
ENDBRANCH  16  18
BRANCH  16  24
ATOM     24  O   UNL     1      31.622 -11.399 -19.172  0.00  0.00    -0.321 OA
ATOM     25  H   UNL     1      32.132 -10.607 -18.943  0.00  0.00    +0.220 HD
ENDBRANCH  16  24
ENDBRANCH  15  16
ENDBRANCH   8  15
TORSDOF 6
ENDMDL
MODEL 5
REMARK VINA RESULT:      -7.7      1.745      3.310
REMARK  Name = 644013
REMARK  6 active torsions:
REMARK  status: ('A' for Active; 'I' for Inactive)
REMARK    1  A    between atoms: C_4  and  C_12
REMARK    2  A    between atoms: C_8  and  O_15
REMARK    3  A    between atoms: C_12  and  O_13
REMARK    4  A    between atoms: O_15  and  P_16
REMARK    5  A    between atoms: P_16  and  C_18
REMARK    6  A    between atoms: P_16  and  O_24
REMARK                            x       y       z     vdW  Elec       q    Type
REMARK                         _______ _______ _______ _____ _____    ______ ____
ROOT
ATOM      1  N   UNL     1      36.231 -24.858 -13.959  0.00  0.00    +0.389 N 
ATOM      2  C   UNL     1      36.016 -23.420 -13.694  0.00  0.00    -0.045 C 
ATOM      3  C   UNL     1      34.900 -25.313 -14.399  0.00  0.00    -0.056 C 
ATOM      4  C   UNL     1      35.936 -22.702 -15.063  0.00  0.00    +0.108 C 
ATOM      5  C   UNL     1      34.671 -23.376 -12.958  0.00  0.00    -0.022 C 
ATOM      6  C   UNL     1      33.927 -24.628 -13.433  0.00  0.00    -0.023 C 
ATOM      7  C   UNL     1      34.728 -24.813 -15.847  0.00  0.00    +0.010 C 
ATOM      8  C   UNL     1      34.823 -23.283 -15.956  0.00  0.00    +0.131 C 
ATOM      9  C   UNL     1      36.724 -25.585 -12.792  0.00  0.00    -0.100 C 
ATOM     10  H   UNL     1      36.958 -25.028 -14.654  0.00  0.00    -0.080 HD
ENDROOT
BRANCH   4  12
ATOM     11  O   UNL     1      37.503 -22.339 -16.863  0.00  0.00    -0.250 OA
ATOM     12  C   UNL     1      37.282 -22.759 -15.736  0.00  0.00    +0.317 C 
BRANCH  12  13
ATOM     13  O   UNL     1      38.186 -23.345 -14.899  0.00  0.00    -0.444 OA
ATOM     14  C   UNL     1      39.186 -24.146 -15.537  0.00  0.00    +0.256 C 
ENDBRANCH  12  13
ENDBRANCH   4  12
BRANCH   8  15
ATOM     15  O   UNL     1      34.992 -22.884 -17.311  0.00  0.00    -0.293 OA
BRANCH  15  16
ATOM     16  P   UNL     1      33.677 -22.778 -18.256  0.00  0.00    +0.363 P 
ATOM     17  O   UNL     1      32.391 -22.736 -17.475  0.00  0.00    -0.253 OA
BRANCH  16  18
ATOM     18  C   UNL     1      33.994 -21.478 -19.400  0.00  0.00    +0.080 C 
ATOM     19  C   UNL     1      35.309 -21.139 -19.732  0.00  0.00    +0.007 C 
ATOM     20  C   UNL     1      32.933 -20.781 -19.983  0.00  0.00    +0.007 C 
ATOM     21  C   UNL     1      35.560 -20.110 -20.640  0.00  0.00    +0.000 C 
ATOM     22  C   UNL     1      33.184 -19.752 -20.891  0.00  0.00    +0.000 C 
ATOM     23  C   UNL     1      34.498 -19.417 -21.219  0.00  0.00    +0.000 C 
ENDBRANCH  16  18
BRANCH  16  24
ATOM     24  O   UNL     1      33.810 -24.146 -19.123  0.00  0.00    -0.321 OA
ATOM     25  H   UNL     1      34.250 -24.825 -18.589  0.00  0.00    +0.220 HD
ENDBRANCH  16  24
ENDBRANCH  15  16
ENDBRANCH   8  15
TORSDOF 6
ENDMDL
MODEL 6
REMARK VINA RESULT:      -7.7      2.505      6.353
REMARK  Name = 644013
REMARK  6 active torsions:
REMARK  status: ('A' for Active; 'I' for Inactive)
REMARK    1  A    between atoms: C_4  and  C_12
REMARK    2  A    between atoms: C_8  and  O_15
REMARK    3  A    between atoms: C_12  and  O_13
REMARK    4  A    between atoms: O_15  and  P_16
REMARK    5  A    between atoms: P_16  and  C_18
REMARK    6  A    between atoms: P_16  and  O_24
REMARK                            x       y       z     vdW  Elec       q    Type
REMARK                         _______ _______ _______ _____ _____    ______ ____
ROOT
ATOM      1  N   UNL     1      30.016 -23.103 -15.577  0.00  0.00    +0.389 N 
ATOM      2  C   UNL     1      30.627 -24.364 -16.046  0.00  0.00    -0.045 C 
ATOM      3  C   UNL     1      30.430 -23.045 -14.164  0.00  0.00    -0.056 C 
ATOM      4  C   UNL     1      32.143 -24.105 -16.231  0.00  0.00    +0.108 C 
ATOM      5  C   UNL     1      30.362 -25.353 -14.904  0.00  0.00    -0.022 C 
ATOM      6  C   UNL     1      30.240 -24.477 -13.653  0.00  0.00    -0.023 C 
ATOM      7  C   UNL     1      31.912 -22.621 -14.163  0.00  0.00    +0.010 C 
ATOM      8  C   UNL     1      32.806 -23.607 -14.932  0.00  0.00    +0.131 C 
ATOM      9  C   UNL     1      28.565 -23.076 -15.746  0.00  0.00    -0.100 C 
ATOM     10  H   UNL     1      30.321 -22.292 -16.113  0.00  0.00    -0.080 HD
ENDROOT
BRANCH   4  12
ATOM     11  O   UNL     1      31.646 -22.166 -17.579  0.00  0.00    -0.250 OA
ATOM     12  C   UNL     1      32.350 -23.144 -17.371  0.00  0.00    +0.317 C 
BRANCH  12  13
ATOM     13  O   UNL     1      33.425 -23.540 -18.112  0.00  0.00    -0.444 OA
ATOM     14  C   UNL     1      34.110 -22.495 -18.809  0.00  0.00    +0.256 C 
ENDBRANCH  12  13
ENDBRANCH   4  12
BRANCH   8  15
ATOM     15  O   UNL     1      34.080 -23.033 -15.196  0.00  0.00    -0.293 OA
BRANCH  15  16
ATOM     16  P   UNL     1      35.397 -23.967 -15.035  0.00  0.00    +0.363 P 
ATOM     17  O   UNL     1      36.412 -23.748 -16.124  0.00  0.00    -0.253 OA
BRANCH  16  18
ATOM     18  C   UNL     1      35.924 -23.796 -13.364  0.00  0.00    +0.080 C 
ATOM     19  C   UNL     1      37.075 -23.062 -13.062  0.00  0.00    +0.007 C 
ATOM     20  C   UNL     1      35.194 -24.392 -12.333  0.00  0.00    +0.007 C 
ATOM     21  C   UNL     1      37.491 -22.925 -11.737  0.00  0.00    +0.000 C 
ATOM     22  C   UNL     1      35.610 -24.255 -11.009  0.00  0.00    +0.000 C 
ATOM     23  C   UNL     1      36.760 -23.522 -10.711  0.00  0.00    +0.000 C 
ENDBRANCH  16  18
BRANCH  16  24
ATOM     24  O   UNL     1      34.736 -25.449 -15.119  0.00  0.00    -0.321 OA
ATOM     25  H   UNL     1      34.979 -25.865 -15.961  0.00  0.00    +0.220 HD
ENDBRANCH  16  24
ENDBRANCH  15  16
ENDBRANCH   8  15
TORSDOF 6
ENDMDL
MODEL 7
REMARK VINA RESULT:      -7.3      2.527      6.215
REMARK  Name = 644013
REMARK  6 active torsions:
REMARK  status: ('A' for Active; 'I' for Inactive)
REMARK    1  A    between atoms: C_4  and  C_12
REMARK    2  A    between atoms: C_8  and  O_15
REMARK    3  A    between atoms: C_12  and  O_13
REMARK    4  A    between atoms: O_15  and  P_16
REMARK    5  A    between atoms: P_16  and  C_18
REMARK    6  A    between atoms: P_16  and  O_24
REMARK                            x       y       z     vdW  Elec       q    Type
REMARK                         _______ _______ _______ _____ _____    ______ ____
ROOT
ATOM      1  N   UNL     1      30.945 -22.993 -15.324  0.00  0.00    +0.389 N 
ATOM      2  C   UNL     1      31.507 -24.321 -15.652  0.00  0.00    -0.045 C 
ATOM      3  C   UNL     1      30.926 -23.001 -13.850  0.00  0.00    -0.056 C 
ATOM      4  C   UNL     1      33.029 -24.263 -15.372  0.00  0.00    +0.108 C 
ATOM      5  C   UNL     1      30.794 -25.274 -14.684  0.00  0.00    -0.022 C 
ATOM      6  C   UNL     1      30.417 -24.400 -13.485  0.00  0.00    -0.023 C 
ATOM      7  C   UNL     1      32.382 -22.777 -13.396  0.00  0.00    +0.010 C 
ATOM      8  C   UNL     1      33.334 -23.867 -13.914  0.00  0.00    +0.131 C 
ATOM      9  C   UNL     1      29.626 -22.773 -15.909  0.00  0.00    -0.100 C 
ATOM     10  H   UNL     1      31.495 -22.225 -15.709  0.00  0.00    -0.080 HD
ENDROOT
BRANCH   4  12
ATOM     11  O   UNL     1      34.807 -22.867 -16.219  0.00  0.00    -0.250 OA
ATOM     12  C   UNL     1      33.683 -23.329 -16.355  0.00  0.00    +0.317 C 
BRANCH  12  13
ATOM     13  O   UNL     1      32.830 -23.091 -17.394  0.00  0.00    -0.444 OA
ATOM     14  C   UNL     1      33.411 -22.443 -18.530  0.00  0.00    +0.256 C 
ENDBRANCH  12  13
ENDBRANCH   4  12
BRANCH   8  15
ATOM     15  O   UNL     1      34.690 -23.464 -13.766  0.00  0.00    -0.293 OA
BRANCH  15  16
ATOM     16  P   UNL     1      35.565 -24.122 -12.568  0.00  0.00    +0.363 P 
ATOM     17  O   UNL     1      34.733 -24.910 -11.593  0.00  0.00    -0.253 OA
BRANCH  16  18
ATOM     18  C   UNL     1      36.927 -24.930 -13.337  0.00  0.00    +0.080 C 
ATOM     19  C   UNL     1      38.232 -24.671 -12.907  0.00  0.00    +0.007 C 
ATOM     20  C   UNL     1      36.710 -25.834 -14.380  0.00  0.00    +0.007 C 
ATOM     21  C   UNL     1      39.311 -25.311 -13.516  0.00  0.00    +0.000 C 
ATOM     22  C   UNL     1      37.790 -26.474 -14.989  0.00  0.00    +0.000 C 
ATOM     23  C   UNL     1      39.090 -26.213 -14.557  0.00  0.00    +0.000 C 
ENDBRANCH  16  18
BRANCH  16  24
ATOM     24  O   UNL     1      36.196 -22.791 -11.881  0.00  0.00    -0.321 OA
ATOM     25  H   UNL     1      37.099 -22.979 -11.582  0.00  0.00    +0.220 HD
ENDBRANCH  16  24
ENDBRANCH  15  16
ENDBRANCH   8  15
TORSDOF 6
ENDMDL
MODEL 8
REMARK VINA RESULT:      -7.1     10.381     13.296
REMARK  Name = 644013
REMARK  6 active torsions:
REMARK  status: ('A' for Active; 'I' for Inactive)
REMARK    1  A    between atoms: C_4  and  C_12
REMARK    2  A    between atoms: C_8  and  O_15
REMARK    3  A    between atoms: C_12  and  O_13
REMARK    4  A    between atoms: O_15  and  P_16
REMARK    5  A    between atoms: P_16  and  C_18
REMARK    6  A    between atoms: P_16  and  O_24
REMARK                            x       y       z     vdW  Elec       q    Type
REMARK                         _______ _______ _______ _____ _____    ______ ____
ROOT
ATOM      1  N   UNL     1      33.697 -16.055 -22.566  0.00  0.00    +0.389 N 
ATOM      2  C   UNL     1      34.701 -14.970 -22.601  0.00  0.00    -0.045 C 
ATOM      3  C   UNL     1      32.961 -15.781 -21.319  0.00  0.00    -0.056 C 
ATOM      4  C   UNL     1      33.967 -13.670 -23.013  0.00  0.00    +0.108 C 
ATOM      5  C   UNL     1      35.212 -14.892 -21.156  0.00  0.00    -0.022 C 
ATOM      6  C   UNL     1      34.054 -15.421 -20.305  0.00  0.00    -0.023 C 
ATOM      7  C   UNL     1      32.032 -14.587 -21.617  0.00  0.00    +0.010 C 
ATOM      8  C   UNL     1      32.806 -13.334 -22.056  0.00  0.00    +0.131 C 
ATOM      9  C   UNL     1      34.296 -17.386 -22.593  0.00  0.00    -0.100 C 
ATOM     10  H   UNL     1      33.094 -16.062 -23.389  0.00  0.00    -0.080 HD
ENDROOT
BRANCH   4  12
ATOM     11  O   UNL     1      32.926 -14.772 -24.891  0.00  0.00    -0.250 OA
ATOM     12  C   UNL     1      33.500 -13.792 -24.439  0.00  0.00    +0.317 C 
BRANCH  12  13
ATOM     13  O   UNL     1      33.818 -12.654 -25.121  0.00  0.00    -0.444 OA
ATOM     14  C   UNL     1      33.494 -12.661 -26.515  0.00  0.00    +0.256 C 
ENDBRANCH  12  13
ENDBRANCH   4  12
BRANCH   8  15
ATOM     15  O   UNL     1      31.928 -12.376 -22.633  0.00  0.00    -0.293 OA
BRANCH  15  16
ATOM     16  P   UNL     1      31.445 -11.123 -21.721  0.00  0.00    +0.363 P 
ATOM     17  O   UNL     1      31.366 -11.455 -20.256  0.00  0.00    -0.253 OA
BRANCH  16  18
ATOM     18  C   UNL     1      32.432  -9.748 -22.207  0.00  0.00    +0.080 C 
ATOM     19  C   UNL     1      32.440  -8.582 -21.437  0.00  0.00    +0.007 C 
ATOM     20  C   UNL     1      33.213  -9.818 -23.364  0.00  0.00    +0.007 C 
ATOM     21  C   UNL     1      33.223  -7.493 -21.822  0.00  0.00    +0.000 C 
ATOM     22  C   UNL     1      33.995  -8.729 -23.749  0.00  0.00    +0.000 C 
ATOM     23  C   UNL     1      34.000  -7.567 -22.977  0.00  0.00    +0.000 C 
ENDBRANCH  16  18
BRANCH  16  24
ATOM     24  O   UNL     1      29.976 -10.831 -22.353  0.00  0.00    -0.321 OA
ATOM     25  H   UNL     1      29.837 -11.402 -23.124  0.00  0.00    +0.220 HD
ENDBRANCH  16  24
ENDBRANCH  15  16
ENDBRANCH   8  15
TORSDOF 6
ENDMDL
MODEL 9
REMARK VINA RESULT:      -6.9      8.235     11.064
REMARK  Name = 644013
REMARK  6 active torsions:
REMARK  status: ('A' for Active; 'I' for Inactive)
REMARK    1  A    between atoms: C_4  and  C_12
REMARK    2  A    between atoms: C_8  and  O_15
REMARK    3  A    between atoms: C_12  and  O_13
REMARK    4  A    between atoms: O_15  and  P_16
REMARK    5  A    between atoms: P_16  and  C_18
REMARK    6  A    between atoms: P_16  and  O_24
REMARK                            x       y       z     vdW  Elec       q    Type
REMARK                         _______ _______ _______ _____ _____    ______ ____
ROOT
ATOM      1  N   UNL     1      35.605 -18.100 -21.537  0.00  0.00    +0.389 N 
ATOM      2  C   UNL     1      34.138 -17.931 -21.476  0.00  0.00    -0.045 C 
ATOM      3  C   UNL     1      35.875 -18.104 -22.986  0.00  0.00    -0.056 C 
ATOM      4  C   UNL     1      33.828 -16.449 -21.802  0.00  0.00    +0.108 C 
ATOM      5  C   UNL     1      33.611 -18.868 -22.571  0.00  0.00    -0.022 C 
ATOM      6  C   UNL     1      34.761 -18.975 -23.577  0.00  0.00    -0.023 C 
ATOM      7  C   UNL     1      35.772 -16.637 -23.450  0.00  0.00    +0.010 C 
ATOM      8  C   UNL     1      34.386 -16.029 -23.175  0.00  0.00    +0.131 C 
ATOM      9  C   UNL     1      36.067 -19.314 -20.869  0.00  0.00    -0.100 C 
ATOM     10  H   UNL     1      36.109 -17.364 -21.042  0.00  0.00    -0.080 HD
ENDROOT
BRANCH   4  12
ATOM     11  O   UNL     1      35.238 -15.904 -19.921  0.00  0.00    -0.250 OA
ATOM     12  C   UNL     1      34.350 -15.574 -20.693  0.00  0.00    +0.317 C 
BRANCH  12  13
ATOM     13  O   UNL     1      33.680 -14.385 -20.697  0.00  0.00    -0.444 OA
ATOM     14  C   UNL     1      32.300 -14.456 -20.327  0.00  0.00    +0.256 C 
ENDBRANCH  12  13
ENDBRANCH   4  12
BRANCH   8  15
ATOM     15  O   UNL     1      34.423 -14.614 -23.302  0.00  0.00    -0.293 OA
BRANCH  15  16
ATOM     16  P   UNL     1      33.264 -13.886 -24.175  0.00  0.00    +0.363 P 
ATOM     17  O   UNL     1      31.883 -14.097 -23.615  0.00  0.00    -0.253 OA
BRANCH  16  18
ATOM     18  C   UNL     1      33.808 -12.232 -24.437  0.00  0.00    +0.080 C 
ATOM     19  C   UNL     1      34.550 -11.909 -25.576  0.00  0.00    +0.007 C 
ATOM     20  C   UNL     1      33.498 -11.235 -23.508  0.00  0.00    +0.007 C 
ATOM     21  C   UNL     1      34.981 -10.598 -25.784  0.00  0.00    +0.000 C 
ATOM     22  C   UNL     1      33.929  -9.924 -23.716  0.00  0.00    +0.000 C 
ATOM     23  C   UNL     1      34.670  -9.606 -24.855  0.00  0.00    +0.000 C 
ENDBRANCH  16  18
BRANCH  16  24
ATOM     24  O   UNL     1      33.450 -14.624 -25.611  0.00  0.00    -0.321 OA
ATOM     25  H   UNL     1      34.394 -14.678 -25.827  0.00  0.00    +0.220 HD
ENDBRANCH  16  24
ENDBRANCH  15  16
ENDBRANCH   8  15
TORSDOF 6
ENDMDL
