MODEL 1
REMARK VINA RESULT:      -8.0      0.000      0.000
REMARK  Name = 91514
REMARK  4 active torsions:
REMARK  status: ('A' for Active; 'I' for Inactive)
REMARK    1  A    between atoms: N_2  and  CA_11
REMARK    2  A    between atoms: C_3  and  C_5
REMARK    3  A    between atoms: CA_11  and  C_14
REMARK    4  A    between atoms: C_14  and  O_15
REMARK                            x       y       z     vdW  Elec       q    Type
REMARK                         _______ _______ _______ _____ _____    ______ ____
ROOT
ATOM      1  O   UNL     1      36.702 -18.333 -22.152  0.00  0.00    -0.270 OA
ATOM      2  N   UNL     1      34.589 -17.660 -22.835  0.00  0.00    -0.293 N 
ATOM      3  C   ACE A   0      35.479 -18.430 -22.095  0.00  0.00    +0.246 C 
ATOM      4  H   UNL     1      33.623 -17.812 -22.718  0.00  0.00    +0.150 HD
ENDROOT
BRANCH   3   5
ATOM      5  C   UNL     1      34.871 -19.449 -21.200  0.00  0.00    +0.053 C 
ATOM      6  C   UNL     1      33.499 -19.476 -21.057  0.00  0.00    +0.005 C 
ATOM      7  C   UNL     1      35.698 -20.337 -20.544  0.00  0.00    +0.005 C 
ATOM      8  C   UNL     1      32.929 -20.433 -20.219  0.00  0.00    +0.000 C 
ATOM      9  C   UNL     1      35.126 -21.294 -19.706  0.00  0.00    +0.000 C 
ATOM     10  C   UNL     1      33.742 -21.342 -19.543  0.00  0.00    +0.000 C 
ENDBRANCH   3   5
BRANCH   2  11
ATOM     11  CA  UNL     1      35.024 -16.649 -23.763  0.00  0.00    +0.172 C 
ATOM     12  CB  UNL     1      34.587 -15.272 -23.287  0.00  0.00    +0.033 C 
BRANCH  11  14
ATOM     13  OXT UNL     1      34.188 -16.015 -25.940  0.00  0.00    -0.248 OA
ATOM     14  C   UNL     1      34.508 -16.912 -25.168  0.00  0.00    +0.332 C 
BRANCH  14  15
ATOM     15  O   UNL     1      34.418 -18.221 -25.502  0.00  0.00    -0.479 OA
ATOM     16  H   UNL     1      34.904 -18.554 -26.231  0.00  0.00    +0.295 HD
ENDBRANCH  14  15
ENDBRANCH  11  14
ENDBRANCH   2  11
TORSDOF 4
ENDMDL
MODEL 2
REMARK VINA RESULT:      -7.9      0.122      1.296
REMARK  Name = 91514
REMARK  4 active torsions:
REMARK  status: ('A' for Active; 'I' for Inactive)
REMARK    1  A    between atoms: N_2  and  CA_11
REMARK    2  A    between atoms: C_3  and  C_5
REMARK    3  A    between atoms: CA_11  and  C_14
REMARK    4  A    between atoms: C_14  and  O_15
REMARK                            x       y       z     vdW  Elec       q    Type
REMARK                         _______ _______ _______ _____ _____    ______ ____
ROOT
ATOM      1  O   UNL     1      36.782 -18.298 -22.125  0.00  0.00    -0.270 OA
ATOM      2  N   UNL     1      34.651 -17.671 -22.794  0.00  0.00    -0.293 N 
ATOM      3  C   ACE A   0      35.562 -18.425 -22.064  0.00  0.00    +0.246 C 
ATOM      4  H   UNL     1      33.689 -17.847 -22.675  0.00  0.00    +0.150 HD
ENDROOT
BRANCH   3   5
ATOM      5  C   UNL     1      34.983 -19.467 -21.177  0.00  0.00    +0.053 C 
ATOM      6  C   UNL     1      35.837 -20.310 -20.495  0.00  0.00    +0.005 C 
ATOM      7  C   UNL     1      33.611 -19.558 -21.062  0.00  0.00    +0.005 C 
ATOM      8  C   UNL     1      35.294 -21.287 -19.662  0.00  0.00    +0.000 C 
ATOM      9  C   UNL     1      33.069 -20.536 -20.228  0.00  0.00    +0.000 C 
ATOM     10  C   UNL     1      33.910 -21.401 -19.528  0.00  0.00    +0.000 C 
ENDBRANCH   3   5
BRANCH   2  11
ATOM     11  CA  UNL     1      35.057 -16.641 -23.714  0.00  0.00    +0.172 C 
ATOM     12  CB  UNL     1      34.560 -15.283 -23.240  0.00  0.00    +0.033 C 
BRANCH  11  14
ATOM     13  OXT UNL     1      34.194 -16.036 -25.888  0.00  0.00    -0.248 OA
ATOM     14  C   UNL     1      34.569 -16.920 -25.125  0.00  0.00    +0.332 C 
BRANCH  14  15
ATOM     15  O   UNL     1      34.569 -18.227 -25.477  0.00  0.00    -0.479 OA
ATOM     16  H   UNL     1      33.926 -18.552 -26.077  0.00  0.00    +0.295 HD
ENDBRANCH  14  15
ENDBRANCH  11  14
ENDBRANCH   2  11
TORSDOF 4
ENDMDL
MODEL 3
REMARK VINA RESULT:      -7.5      4.685      7.563
REMARK  Name = 91514
REMARK  4 active torsions:
REMARK  status: ('A' for Active; 'I' for Inactive)
REMARK    1  A    between atoms: N_2  and  CA_11
REMARK    2  A    between atoms: C_3  and  C_5
REMARK    3  A    between atoms: CA_11  and  C_14
REMARK    4  A    between atoms: C_14  and  O_15
REMARK                            x       y       z     vdW  Elec       q    Type
REMARK                         _______ _______ _______ _____ _____    ______ ____
ROOT
ATOM      1  O   UNL     1      34.178 -23.604 -19.486  0.00  0.00    -0.270 OA
ATOM      2  N   UNL     1      33.197 -22.336 -17.809  0.00  0.00    -0.293 N 
ATOM      3  C   ACE A   0      33.824 -22.518 -19.036  0.00  0.00    +0.246 C 
ATOM      4  H   UNL     1      32.950 -21.423 -17.535  0.00  0.00    +0.150 HD
ENDROOT
BRANCH   3   5
ATOM      5  C   UNL     1      34.091 -21.284 -19.820  0.00  0.00    +0.053 C 
ATOM      6  C   UNL     1      33.024 -20.516 -20.236  0.00  0.00    +0.005 C 
ATOM      7  C   UNL     1      35.398 -20.946 -20.104  0.00  0.00    +0.005 C 
ATOM      8  C   UNL     1      33.275 -19.358 -20.971  0.00  0.00    +0.000 C 
ATOM      9  C   UNL     1      35.648 -19.787 -20.839  0.00  0.00    +0.000 C 
ATOM     10  C   UNL     1      34.587 -18.993 -21.273  0.00  0.00    +0.000 C 
ENDBRANCH   3   5
BRANCH   2  11
ATOM     11  CA  UNL     1      32.893 -23.430 -16.924  0.00  0.00    +0.172 C 
ATOM     12  CB  UNL     1      31.524 -23.233 -16.290  0.00  0.00    +0.033 C 
BRANCH  11  14
ATOM     13  OXT UNL     1      34.952 -24.296 -16.001  0.00  0.00    -0.248 OA
ATOM     14  C   UNL     1      33.954 -23.600 -15.849  0.00  0.00    +0.332 C 
BRANCH  14  15
ATOM     15  O   UNL     1      33.709 -22.928 -14.700  0.00  0.00    -0.479 OA
ATOM     16  H   UNL     1      33.496 -22.016 -14.725  0.00  0.00    +0.295 HD
ENDBRANCH  14  15
ENDBRANCH  11  14
ENDBRANCH   2  11
TORSDOF 4
ENDMDL
MODEL 4
REMARK VINA RESULT:      -7.5      2.599      5.607
REMARK  Name = 91514
REMARK  4 active torsions:
REMARK  status: ('A' for Active; 'I' for Inactive)
REMARK    1  A    between atoms: N_2  and  CA_11
REMARK    2  A    between atoms: C_3  and  C_5
REMARK    3  A    between atoms: CA_11  and  C_14
REMARK    4  A    between atoms: C_14  and  O_15
REMARK                            x       y       z     vdW  Elec       q    Type
REMARK                         _______ _______ _______ _____ _____    ______ ____
ROOT
ATOM      1  O   UNL     1      36.064 -18.344 -20.511  0.00  0.00    -0.270 OA
ATOM      2  N   UNL     1      34.751 -20.179 -21.049  0.00  0.00    -0.293 N 
ATOM      3  C   ACE A   0      35.350 -18.952 -21.305  0.00  0.00    +0.246 C 
ATOM      4  H   UNL     1      34.195 -20.588 -21.752  0.00  0.00    +0.150 HD
ENDROOT
BRANCH   3   5
ATOM      5  C   UNL     1      35.063 -18.350 -22.633  0.00  0.00    +0.053 C 
ATOM      6  C   UNL     1      35.154 -16.981 -22.777  0.00  0.00    +0.005 C 
ATOM      7  C   UNL     1      34.718 -19.180 -23.680  0.00  0.00    +0.005 C 
ATOM      8  C   UNL     1      34.886 -16.416 -24.023  0.00  0.00    +0.000 C 
ATOM      9  C   UNL     1      34.450 -18.614 -24.926  0.00  0.00    +0.000 C 
ATOM     10  C   UNL     1      34.534 -17.233 -25.098  0.00  0.00    +0.000 C 
ENDBRANCH   3   5
BRANCH   2  11
ATOM     11  CA  UNL     1      34.913 -20.877 -19.800  0.00  0.00    +0.172 C 
ATOM     12  CB  UNL     1      36.180 -21.718 -19.825  0.00  0.00    +0.033 C 
BRANCH  11  14
ATOM     13  OXT UNL     1      32.594 -21.282 -19.254  0.00  0.00    -0.248 OA
ATOM     14  C   UNL     1      33.708 -21.744 -19.478  0.00  0.00    +0.332 C 
BRANCH  14  15
ATOM     15  O   UNL     1      33.959 -23.074 -19.445  0.00  0.00    -0.479 OA
ATOM     16  H   UNL     1      33.432 -23.638 -18.914  0.00  0.00    +0.295 HD
ENDBRANCH  14  15
ENDBRANCH  11  14
ENDBRANCH   2  11
TORSDOF 4
ENDMDL
MODEL 5
REMARK VINA RESULT:      -7.4      4.960      7.945
REMARK  Name = 91514
REMARK  4 active torsions:
REMARK  status: ('A' for Active; 'I' for Inactive)
REMARK    1  A    between atoms: N_2  and  CA_11
REMARK    2  A    between atoms: C_3  and  C_5
REMARK    3  A    between atoms: CA_11  and  C_14
REMARK    4  A    between atoms: C_14  and  O_15
REMARK                            x       y       z     vdW  Elec       q    Type
REMARK                         _______ _______ _______ _____ _____    ______ ____
ROOT
ATOM      1  O   UNL     1      33.817 -23.853 -19.152  0.00  0.00    -0.270 OA
ATOM      2  N   UNL     1      34.244 -22.540 -17.288  0.00  0.00    -0.293 N 
ATOM      3  C   ACE A   0      34.061 -22.760 -18.648  0.00  0.00    +0.246 C 
ATOM      4  H   UNL     1      34.436 -21.624 -16.980  0.00  0.00    +0.150 HD
ENDROOT
BRANCH   3   5
ATOM      5  C   UNL     1      34.203 -21.570 -19.526  0.00  0.00    +0.053 C 
ATOM      6  C   UNL     1      35.468 -21.169 -19.904  0.00  0.00    +0.005 C 
ATOM      7  C   UNL     1      33.066 -20.905 -19.937  0.00  0.00    +0.005 C 
ATOM      8  C   UNL     1      35.602 -20.052 -20.728  0.00  0.00    +0.000 C 
ATOM      9  C   UNL     1      33.201 -19.789 -20.763  0.00  0.00    +0.000 C 
ATOM     10  C   UNL     1      34.469 -19.362 -21.158  0.00  0.00    +0.000 C 
ENDBRANCH   3   5
BRANCH   2  11
ATOM     11  CA  UNL     1      34.162 -23.596 -16.313  0.00  0.00    +0.172 C 
ATOM     12  CB  UNL     1      32.887 -23.463 -15.495  0.00  0.00    +0.033 C 
BRANCH  11  14
ATOM     13  OXT UNL     1      36.409 -24.221 -15.678  0.00  0.00    -0.248 OA
ATOM     14  C   UNL     1      35.377 -23.618 -15.401  0.00  0.00    +0.332 C 
BRANCH  14  15
ATOM     15  O   UNL     1      35.232 -22.926 -14.246  0.00  0.00    -0.479 OA
ATOM     16  H   UNL     1      34.694 -23.267 -13.560  0.00  0.00    +0.295 HD
ENDBRANCH  14  15
ENDBRANCH  11  14
ENDBRANCH   2  11
TORSDOF 4
ENDMDL
MODEL 6
REMARK VINA RESULT:      -7.3      4.993      7.835
REMARK  Name = 91514
REMARK  4 active torsions:
REMARK  status: ('A' for Active; 'I' for Inactive)
REMARK    1  A    between atoms: N_2  and  CA_11
REMARK    2  A    between atoms: C_3  and  C_5
REMARK    3  A    between atoms: CA_11  and  C_14
REMARK    4  A    between atoms: C_14  and  O_15
REMARK                            x       y       z     vdW  Elec       q    Type
REMARK                         _______ _______ _______ _____ _____    ______ ____
ROOT
ATOM      1  O   UNL     1      33.835 -23.875 -19.095  0.00  0.00    -0.270 OA
ATOM      2  N   UNL     1      34.346 -22.564 -17.251  0.00  0.00    -0.293 N 
ATOM      3  C   ACE A   0      34.109 -22.784 -18.602  0.00  0.00    +0.246 C 
ATOM      4  H   UNL     1      34.557 -21.650 -16.951  0.00  0.00    +0.150 HD
ENDROOT
BRANCH   3   5
ATOM      5  C   UNL     1      34.228 -21.596 -19.487  0.00  0.00    +0.053 C 
ATOM      6  C   UNL     1      33.081 -20.935 -19.873  0.00  0.00    +0.005 C 
ATOM      7  C   UNL     1      35.483 -21.190 -19.892  0.00  0.00    +0.005 C 
ATOM      8  C   UNL     1      33.193 -19.820 -20.703  0.00  0.00    +0.000 C 
ATOM      9  C   UNL     1      35.595 -20.074 -20.721  0.00  0.00    +0.000 C 
ATOM     10  C   UNL     1      34.450 -19.389 -21.127  0.00  0.00    +0.000 C 
ENDBRANCH   3   5
BRANCH   2  11
ATOM     11  CA  UNL     1      34.292 -23.618 -16.272  0.00  0.00    +0.172 C 
ATOM     12  CB  UNL     1      33.038 -23.485 -15.420  0.00  0.00    +0.033 C 
BRANCH  11  14
ATOM     13  OXT UNL     1      35.616 -22.998 -14.348  0.00  0.00    -0.248 OA
ATOM     14  C   UNL     1      35.530 -23.636 -15.392  0.00  0.00    +0.332 C 
BRANCH  14  15
ATOM     15  O   UNL     1      36.543 -24.405 -15.855  0.00  0.00    -0.479 OA
ATOM     16  H   UNL     1      37.001 -24.159 -16.635  0.00  0.00    +0.295 HD
ENDBRANCH  14  15
ENDBRANCH  11  14
ENDBRANCH   2  11
TORSDOF 4
ENDMDL
MODEL 7
REMARK VINA RESULT:      -7.3      1.738      2.073
REMARK  Name = 91514
REMARK  4 active torsions:
REMARK  status: ('A' for Active; 'I' for Inactive)
REMARK    1  A    between atoms: N_2  and  CA_11
REMARK    2  A    between atoms: C_3  and  C_5
REMARK    3  A    between atoms: CA_11  and  C_14
REMARK    4  A    between atoms: C_14  and  O_15
REMARK                            x       y       z     vdW  Elec       q    Type
REMARK                         _______ _______ _______ _____ _____    ______ ____
ROOT
ATOM      1  O   UNL     1      35.519 -18.232 -22.734  0.00  0.00    -0.270 OA
ATOM      2  N   UNL     1      34.414 -17.004 -21.106  0.00  0.00    -0.293 N 
ATOM      3  C   ACE A   0      34.907 -18.174 -21.671  0.00  0.00    +0.246 C 
ATOM      4  H   UNL     1      33.935 -17.059 -20.247  0.00  0.00    +0.150 HD
ENDROOT
BRANCH   3   5
ATOM      5  C   UNL     1      34.631 -19.426 -20.921  0.00  0.00    +0.053 C 
ATOM      6  C   UNL     1      33.321 -19.772 -20.662  0.00  0.00    +0.005 C 
ATOM      7  C   UNL     1      35.693 -20.204 -20.509  0.00  0.00    +0.005 C 
ATOM      8  C   UNL     1      33.062 -20.948 -19.958  0.00  0.00    +0.000 C 
ATOM      9  C   UNL     1      35.433 -21.380 -19.806  0.00  0.00    +0.000 C 
ATOM     10  C   UNL     1      34.118 -21.753 -19.531  0.00  0.00    +0.000 C 
ENDBRANCH   3   5
BRANCH   2  11
ATOM     11  CA  UNL     1      34.578 -15.714 -21.725  0.00  0.00    +0.172 C 
ATOM     12  CB  UNL     1      34.664 -14.626 -20.665  0.00  0.00    +0.033 C 
BRANCH  11  14
ATOM     13  OXT UNL     1      33.562 -15.588 -23.914  0.00  0.00    -0.248 OA
ATOM     14  C   UNL     1      33.457 -15.411 -22.705  0.00  0.00    +0.332 C 
BRANCH  14  15
ATOM     15  O   UNL     1      32.330 -14.916 -22.141  0.00  0.00    -0.479 OA
ATOM     16  H   UNL     1      31.806 -15.459 -21.585  0.00  0.00    +0.295 HD
ENDBRANCH  14  15
ENDBRANCH  11  14
ENDBRANCH   2  11
TORSDOF 4
ENDMDL
MODEL 8
REMARK VINA RESULT:      -7.2      2.159      3.087
REMARK  Name = 91514
REMARK  4 active torsions:
REMARK  status: ('A' for Active; 'I' for Inactive)
REMARK    1  A    between atoms: N_2  and  CA_11
REMARK    2  A    between atoms: C_3  and  C_5
REMARK    3  A    between atoms: CA_11  and  C_14
REMARK    4  A    between atoms: C_14  and  O_15
REMARK                            x       y       z     vdW  Elec       q    Type
REMARK                         _______ _______ _______ _____ _____    ______ ____
ROOT
ATOM      1  O   UNL     1      34.142 -19.138 -22.917  0.00  0.00    -0.270 OA
ATOM      2  N   UNL     1      34.321 -17.611 -21.180  0.00  0.00    -0.293 N 
ATOM      3  C   ACE A   0      34.302 -18.889 -21.725  0.00  0.00    +0.246 C 
ATOM      4  H   UNL     1      34.457 -17.513 -20.210  0.00  0.00    +0.150 HD
ENDROOT
BRANCH   3   5
ATOM      5  C   UNL     1      34.464 -20.010 -20.764  0.00  0.00    +0.053 C 
ATOM      6  C   UNL     1      35.738 -20.427 -20.436  0.00  0.00    +0.005 C 
ATOM      7  C   UNL     1      33.337 -20.596 -20.228  0.00  0.00    +0.005 C 
ATOM      8  C   UNL     1      35.890 -21.478 -19.533  0.00  0.00    +0.000 C 
ATOM      9  C   UNL     1      33.490 -21.648 -19.324  0.00  0.00    +0.000 C 
ATOM     10  C   UNL     1      34.766 -22.089 -18.976  0.00  0.00    +0.000 C 
ENDBRANCH   3   5
BRANCH   2  11
ATOM     11  CA  UNL     1      34.153 -16.424 -21.979  0.00  0.00    +0.172 C 
ATOM     12  CB  UNL     1      35.231 -16.350 -23.049  0.00  0.00    +0.033 C 
BRANCH  11  14
ATOM     13  OXT UNL     1      34.958 -14.987 -20.211  0.00  0.00    -0.248 OA
ATOM     14  C   UNL     1      34.163 -15.165 -21.128  0.00  0.00    +0.332 C 
BRANCH  14  15
ATOM     15  O   UNL     1      33.217 -14.253 -21.454  0.00  0.00    -0.479 OA
ATOM     16  H   UNL     1      32.851 -14.245 -22.316  0.00  0.00    +0.295 HD
ENDBRANCH  14  15
ENDBRANCH  11  14
ENDBRANCH   2  11
TORSDOF 4
ENDMDL
MODEL 9
REMARK VINA RESULT:      -7.1      2.000      2.842
REMARK  Name = 91514
REMARK  4 active torsions:
REMARK  status: ('A' for Active; 'I' for Inactive)
REMARK    1  A    between atoms: N_2  and  CA_11
REMARK    2  A    between atoms: C_3  and  C_5
REMARK    3  A    between atoms: CA_11  and  C_14
REMARK    4  A    between atoms: C_14  and  O_15
REMARK                            x       y       z     vdW  Elec       q    Type
REMARK                         _______ _______ _______ _____ _____    ______ ____
ROOT
ATOM      1  O   UNL     1      32.628 -19.729 -21.216  0.00  0.00    -0.270 OA
ATOM      2  N   UNL     1      34.822 -19.175 -21.728  0.00  0.00    -0.293 N 
ATOM      3  C   ACE A   0      33.835 -19.863 -21.033  0.00  0.00    +0.246 C 
ATOM      4  H   UNL     1      35.765 -19.353 -21.508  0.00  0.00    +0.150 HD
ENDROOT
BRANCH   3   5
ATOM      5  C   UNL     1      34.311 -20.800 -19.982  0.00  0.00    +0.053 C 
ATOM      6  C   UNL     1      33.388 -21.592 -19.329  0.00  0.00    +0.005 C 
ATOM      7  C   UNL     1      35.659 -20.850 -19.695  0.00  0.00    +0.005 C 
ATOM      8  C   UNL     1      33.835 -22.471 -18.344  0.00  0.00    +0.000 C 
ATOM      9  C   UNL     1      36.104 -21.731 -18.709  0.00  0.00    +0.000 C 
ATOM     10  C   UNL     1      35.193 -22.542 -18.033  0.00  0.00    +0.000 C 
ENDBRANCH   3   5
BRANCH   2  11
ATOM     11  CA  UNL     1      34.520 -18.216 -22.758  0.00  0.00    +0.172 C 
ATOM     12  CB  UNL     1      35.000 -18.722 -24.109  0.00  0.00    +0.033 C 
BRANCH  11  14
ATOM     13  OXT UNL     1      35.072 -16.332 -21.348  0.00  0.00    -0.248 OA
ATOM     14  C   UNL     1      35.124 -16.855 -22.457  0.00  0.00    +0.332 C 
BRANCH  14  15
ATOM     15  O   UNL     1      35.720 -16.253 -23.513  0.00  0.00    -0.479 OA
ATOM     16  H   UNL     1      35.578 -16.578 -24.380  0.00  0.00    +0.295 HD
ENDBRANCH  14  15
ENDBRANCH  11  14
ENDBRANCH   2  11
TORSDOF 4
ENDMDL
