MODEL 1
REMARK VINA RESULT:      -4.0      0.000      0.000
REMARK  Name = 305
REMARK  3 active torsions:
REMARK  status: ('A' for Active; 'I' for Inactive)
REMARK    1  A    between atoms: N_1  and  C_5
REMARK    2  A    between atoms: C_5  and  C_6
REMARK    3  A    between atoms: C_6  and  O_7
REMARK                            x       y       z     vdW  Elec       q    Type
REMARK                         _______ _______ _______ _____ _____    ______ ____
ROOT
ATOM      1  N   UNL     1      41.971 -14.569 -16.600  0.00  0.00    +0.387 N 
ATOM      2  C   UNL     1      41.224 -14.293 -17.898  0.00  0.00    -0.096 C 
ATOM      3  C   UNL     1      43.470 -14.525 -16.859  0.00  0.00    -0.096 C 
ATOM      4  C   UNL     1      41.587 -15.947 -16.079  0.00  0.00    -0.096 C 
ENDROOT
BRANCH   1   5
ATOM      5  C   UNL     1      41.603 -13.514 -15.568  0.00  0.00    -0.041 C 
BRANCH   5   6
ATOM      6  C   UNL     1      40.710 -14.137 -14.512  0.00  0.00    +0.115 C 
BRANCH   6   7
ATOM      7  O   UNL     1      40.842 -13.417 -13.293  0.00  0.00    -0.384 OA
ATOM      8  H   UNL     1      41.396 -12.635 -13.439  0.00  0.00    +0.210 HD
ENDBRANCH   6   7
ENDBRANCH   5   6
ENDBRANCH   1   5
TORSDOF 3
ENDMDL
MODEL 2
REMARK VINA RESULT:      -4.0     11.514     12.387
REMARK  Name = 305
REMARK  3 active torsions:
REMARK  status: ('A' for Active; 'I' for Inactive)
REMARK    1  A    between atoms: N_1  and  C_5
REMARK    2  A    between atoms: C_5  and  C_6
REMARK    3  A    between atoms: C_6  and  O_7
REMARK                            x       y       z     vdW  Elec       q    Type
REMARK                         _______ _______ _______ _____ _____    ______ ____
ROOT
ATOM      1  N   UNL     1      38.335 -25.247 -14.110  0.00  0.00    +0.387 N 
ATOM      2  C   UNL     1      37.628 -24.181 -14.935  0.00  0.00    -0.096 C 
ATOM      3  C   UNL     1      38.421 -24.792 -12.660  0.00  0.00    -0.096 C 
ATOM      4  C   UNL     1      39.739 -25.463 -14.658  0.00  0.00    -0.096 C 
ENDROOT
BRANCH   1   5
ATOM      5  C   UNL     1      37.554 -26.550 -14.187  0.00  0.00    -0.041 C 
BRANCH   5   6
ATOM      6  C   UNL     1      36.494 -26.435 -15.265  0.00  0.00    +0.115 C 
BRANCH   6   7
ATOM      7  O   UNL     1      36.806 -27.318 -16.335  0.00  0.00    -0.384 OA
ATOM      8  H   UNL     1      37.751 -27.250 -16.543  0.00  0.00    +0.210 HD
ENDBRANCH   6   7
ENDBRANCH   5   6
ENDBRANCH   1   5
TORSDOF 3
ENDMDL
MODEL 3
REMARK VINA RESULT:      -3.8      1.605      2.107
REMARK  Name = 305
REMARK  3 active torsions:
REMARK  status: ('A' for Active; 'I' for Inactive)
REMARK    1  A    between atoms: N_1  and  C_5
REMARK    2  A    between atoms: C_5  and  C_6
REMARK    3  A    between atoms: C_6  and  O_7
REMARK                            x       y       z     vdW  Elec       q    Type
REMARK                         _______ _______ _______ _____ _____    ______ ____
ROOT
ATOM      1  N   UNL     1      42.080 -13.993 -16.896  0.00  0.00    +0.387 N 
ATOM      2  C   UNL     1      42.308 -12.488 -16.886  0.00  0.00    -0.096 C 
ATOM      3  C   UNL     1      43.422 -14.710 -16.895  0.00  0.00    -0.096 C 
ATOM      4  C   UNL     1      41.299 -14.379 -18.145  0.00  0.00    -0.096 C 
ENDROOT
BRANCH   1   5
ATOM      5  C   UNL     1      41.290 -14.395 -15.659  0.00  0.00    -0.041 C 
BRANCH   5   6
ATOM      6  C   UNL     1      41.213 -15.908 -15.584  0.00  0.00    +0.115 C 
BRANCH   6   7
ATOM      7  O   UNL     1      39.895 -16.300 -15.224  0.00  0.00    -0.384 OA
ATOM      8  H   UNL     1      39.577 -15.736 -14.502  0.00  0.00    +0.210 HD
ENDBRANCH   6   7
ENDBRANCH   5   6
ENDBRANCH   1   5
TORSDOF 3
ENDMDL
MODEL 4
REMARK VINA RESULT:      -3.8     11.389     12.226
REMARK  Name = 305
REMARK  3 active torsions:
REMARK  status: ('A' for Active; 'I' for Inactive)
REMARK    1  A    between atoms: N_1  and  C_5
REMARK    2  A    between atoms: C_5  and  C_6
REMARK    3  A    between atoms: C_6  and  O_7
REMARK                            x       y       z     vdW  Elec       q    Type
REMARK                         _______ _______ _______ _____ _____    ______ ____
ROOT
ATOM      1  N   UNL     1      37.717 -25.452 -13.948  0.00  0.00    +0.387 N 
ATOM      2  C   UNL     1      36.836 -25.419 -12.708  0.00  0.00    -0.096 C 
ATOM      3  C   UNL     1      37.469 -24.202 -14.779  0.00  0.00    -0.096 C 
ATOM      4  C   UNL     1      37.382 -26.685 -14.775  0.00  0.00    -0.096 C 
ENDROOT
BRANCH   1   5
ATOM      5  C   UNL     1      39.180 -25.501 -13.531  0.00  0.00    -0.041 C 
BRANCH   5   6
ATOM      6  C   UNL     1      40.048 -25.626 -14.768  0.00  0.00    +0.115 C 
BRANCH   6   7
ATOM      7  O   UNL     1      40.976 -26.689 -14.592  0.00  0.00    -0.384 OA
ATOM      8  H   UNL     1      41.095 -26.860 -13.645  0.00  0.00    +0.210 HD
ENDBRANCH   6   7
ENDBRANCH   5   6
ENDBRANCH   1   5
TORSDOF 3
ENDMDL
MODEL 5
REMARK VINA RESULT:      -3.7     11.491     12.223
REMARK  Name = 305
REMARK  3 active torsions:
REMARK  status: ('A' for Active; 'I' for Inactive)
REMARK    1  A    between atoms: N_1  and  C_5
REMARK    2  A    between atoms: C_5  and  C_6
REMARK    3  A    between atoms: C_6  and  O_7
REMARK                            x       y       z     vdW  Elec       q    Type
REMARK                         _______ _______ _______ _____ _____    ______ ____
ROOT
ATOM      1  N   UNL     1      37.104 -24.924 -13.220  0.00  0.00    +0.387 N 
ATOM      2  C   UNL     1      38.176 -24.381 -12.285  0.00  0.00    -0.096 C 
ATOM      3  C   UNL     1      37.278 -26.428 -13.371  0.00  0.00    -0.096 C 
ATOM      4  C   UNL     1      37.237 -24.259 -14.583  0.00  0.00    -0.096 C 
ENDROOT
BRANCH   1   5
ATOM      5  C   UNL     1      35.728 -24.628 -12.643  0.00  0.00    -0.041 C 
BRANCH   5   6
ATOM      6  C   UNL     1      35.877 -24.173 -11.204  0.00  0.00    +0.115 C 
BRANCH   6   7
ATOM      7  O   UNL     1      35.270 -25.124 -10.339  0.00  0.00    -0.384 OA
ATOM      8  H   UNL     1      35.185 -25.972 -10.801  0.00  0.00    +0.210 HD
ENDBRANCH   6   7
ENDBRANCH   5   6
ENDBRANCH   1   5
TORSDOF 3
ENDMDL
MODEL 6
REMARK VINA RESULT:      -3.7     10.778     11.441
REMARK  Name = 305
REMARK  3 active torsions:
REMARK  status: ('A' for Active; 'I' for Inactive)
REMARK    1  A    between atoms: N_1  and  C_5
REMARK    2  A    between atoms: C_5  and  C_6
REMARK    3  A    between atoms: C_6  and  O_7
REMARK                            x       y       z     vdW  Elec       q    Type
REMARK                         _______ _______ _______ _____ _____    ______ ____
ROOT
ATOM      1  N   UNL     1      38.109 -25.402 -13.828  0.00  0.00    +0.387 N 
ATOM      2  C   UNL     1      37.420 -26.708 -14.198  0.00  0.00    -0.096 C 
ATOM      3  C   UNL     1      37.631 -24.296 -14.758  0.00  0.00    -0.096 C 
ATOM      4  C   UNL     1      39.615 -25.567 -13.969  0.00  0.00    -0.096 C 
ENDROOT
BRANCH   1   5
ATOM      5  C   UNL     1      37.769 -25.037 -12.391  0.00  0.00    -0.041 C 
BRANCH   5   6
ATOM      6  C   UNL     1      37.556 -23.539 -12.292  0.00  0.00    +0.115 C 
BRANCH   6   7
ATOM      7  O   UNL     1      38.656 -22.946 -11.613  0.00  0.00    -0.384 OA
ATOM      8  H   UNL     1      38.496 -21.996 -11.509  0.00  0.00    +0.210 HD
ENDBRANCH   6   7
ENDBRANCH   5   6
ENDBRANCH   1   5
TORSDOF 3
ENDMDL
MODEL 7
REMARK VINA RESULT:      -3.7     11.179     12.215
REMARK  Name = 305
REMARK  3 active torsions:
REMARK  status: ('A' for Active; 'I' for Inactive)
REMARK    1  A    between atoms: N_1  and  C_5
REMARK    2  A    between atoms: C_5  and  C_6
REMARK    3  A    between atoms: C_6  and  O_7
REMARK                            x       y       z     vdW  Elec       q    Type
REMARK                         _______ _______ _______ _____ _____    ______ ____
ROOT
ATOM      1  N   UNL     1      36.866 -24.333 -14.651  0.00  0.00    +0.387 N 
ATOM      2  C   UNL     1      37.130 -23.933 -13.207  0.00  0.00    -0.096 C 
ATOM      3  C   UNL     1      37.311 -23.210 -15.577  0.00  0.00    -0.096 C 
ATOM      4  C   UNL     1      35.378 -24.590 -14.843  0.00  0.00    -0.096 C 
ENDROOT
BRANCH   1   5
ATOM      5  C   UNL     1      37.646 -25.598 -14.979  0.00  0.00    -0.041 C 
BRANCH   5   6
ATOM      6  C   UNL     1      36.679 -26.756 -15.133  0.00  0.00    +0.115 C 
BRANCH   6   7
ATOM      7  O   UNL     1      36.856 -27.357 -16.409  0.00  0.00    -0.384 OA
ATOM      8  H   UNL     1      37.321 -28.202 -16.306  0.00  0.00    +0.210 HD
ENDBRANCH   6   7
ENDBRANCH   5   6
ENDBRANCH   1   5
TORSDOF 3
ENDMDL
MODEL 8
REMARK VINA RESULT:      -3.6     11.000     11.790
REMARK  Name = 305
REMARK  3 active torsions:
REMARK  status: ('A' for Active; 'I' for Inactive)
REMARK    1  A    between atoms: N_1  and  C_5
REMARK    2  A    between atoms: C_5  and  C_6
REMARK    3  A    between atoms: C_6  and  O_7
REMARK                            x       y       z     vdW  Elec       q    Type
REMARK                         _______ _______ _______ _____ _____    ______ ____
ROOT
ATOM      1  N   UNL     1      37.553 -24.271 -13.011  0.00  0.00    +0.387 N 
ATOM      2  C   UNL     1      38.789 -25.146 -13.162  0.00  0.00    -0.096 C 
ATOM      3  C   UNL     1      37.217 -23.634 -14.352  0.00  0.00    -0.096 C 
ATOM      4  C   UNL     1      37.828 -23.179 -11.986  0.00  0.00    -0.096 C 
ENDROOT
BRANCH   1   5
ATOM      5  C   UNL     1      36.381 -25.122 -12.546  0.00  0.00    -0.041 C 
BRANCH   5   6
ATOM      6  C   UNL     1      35.580 -24.349 -11.515  0.00  0.00    +0.115 C 
BRANCH   6   7
ATOM      7  O   UNL     1      35.274 -25.198 -10.417  0.00  0.00    -0.384 OA
ATOM      8  H   UNL     1      35.781 -24.916  -9.640  0.00  0.00    +0.210 HD
ENDBRANCH   6   7
ENDBRANCH   5   6
ENDBRANCH   1   5
TORSDOF 3
ENDMDL
MODEL 9
REMARK VINA RESULT:      -3.6      9.778     10.475
REMARK  Name = 305
REMARK  3 active torsions:
REMARK  status: ('A' for Active; 'I' for Inactive)
REMARK    1  A    between atoms: N_1  and  C_5
REMARK    2  A    between atoms: C_5  and  C_6
REMARK    3  A    between atoms: C_6  and  O_7
REMARK                            x       y       z     vdW  Elec       q    Type
REMARK                         _______ _______ _______ _____ _____    ______ ____
ROOT
ATOM      1  N   UNL     1      34.804 -18.940 -21.458  0.00  0.00    +0.387 N 
ATOM      2  C   UNL     1      34.856 -19.157 -22.964  0.00  0.00    -0.096 C 
ATOM      3  C   UNL     1      34.979 -17.460 -21.153  0.00  0.00    -0.096 C 
ATOM      4  C   UNL     1      35.922 -19.731 -20.794  0.00  0.00    -0.096 C 
ENDROOT
BRANCH   1   5
ATOM      5  C   UNL     1      33.460 -19.413 -20.923  0.00  0.00    -0.041 C 
BRANCH   5   6
ATOM      6  C   UNL     1      33.656 -20.702 -20.150  0.00  0.00    +0.115 C 
BRANCH   6   7
ATOM      7  O   UNL     1      32.527 -20.932 -19.316  0.00  0.00    -0.384 OA
ATOM      8  H   UNL     1      31.827 -21.360 -19.832  0.00  0.00    +0.210 HD
ENDBRANCH   6   7
ENDBRANCH   5   6
ENDBRANCH   1   5
TORSDOF 3
ENDMDL
