MODEL 1
REMARK VINA RESULT:      -9.7      0.000      0.000
REMARK  Name = 3824
REMARK  5 active torsions:
REMARK  status: ('A' for Active; 'I' for Inactive)
REMARK    1  A    between atoms: N_3  and  C_8
REMARK    2  A    between atoms: N_4  and  C_14
REMARK    3  A    between atoms: C_5  and  C_20
REMARK    4  A    between atoms: C_20  and  C_21
REMARK    5  A    between atoms: C_21  and  C_23
REMARK                            x       y       z     vdW  Elec       q    Type
REMARK                         _______ _______ _______ _____ _____    ______ ____
ROOT
ATOM      1  O   UNL     1      31.771 -22.981 -17.564  0.00  0.00    -0.272 OA
ATOM      2  O   UNL     1      32.898 -23.971 -13.091  0.00  0.00    -0.272 OA
ATOM      3  N   UNL     1      33.829 -23.310 -16.412  0.00  0.00    -0.179 N 
ATOM      4  N   UNL     1      34.157 -23.714 -15.096  0.00  0.00    -0.179 N 
ATOM      5  C   UNL     1      31.847 -23.428 -15.195  0.00  0.00    +0.157 C 
ATOM      6  C   UNL     1      32.437 -23.242 -16.573  0.00  0.00    +0.254 C 
ATOM      7  C   UNL     1      33.015 -23.710 -14.280  0.00  0.00    +0.254 C 
ENDROOT
BRANCH   3   8
ATOM      8  C   UNL     1      34.737 -22.665 -17.306  0.00  0.00    +0.073 C 
ATOM      9  C   UNL     1      34.374 -22.445 -18.636  0.00  0.00    +0.017 C 
ATOM     10  C   UNL     1      35.992 -22.252 -16.852  0.00  0.00    +0.017 C 
ATOM     11  C   UNL     1      35.261 -21.815 -19.509  0.00  0.00    +0.001 C 
ATOM     12  C   UNL     1      36.879 -21.621 -17.725  0.00  0.00    +0.001 C 
ATOM     13  C   UNL     1      36.513 -21.402 -19.053  0.00  0.00    +0.000 C 
ENDBRANCH   3   8
BRANCH   4  14
ATOM     14  C   UNL     1      35.340 -24.436 -14.748  0.00  0.00    +0.073 C 
ATOM     15  C   UNL     1      36.240 -23.903 -13.822  0.00  0.00    +0.017 C 
ATOM     16  C   UNL     1      35.600 -25.677 -15.331  0.00  0.00    +0.017 C 
ATOM     17  C   UNL     1      37.394 -24.608 -13.482  0.00  0.00    +0.001 C 
ATOM     18  C   UNL     1      36.756 -26.382 -14.991  0.00  0.00    +0.001 C 
ATOM     19  C   UNL     1      37.652 -25.848 -14.066  0.00  0.00    +0.000 C 
ENDBRANCH   4  14
BRANCH   5  20
ATOM     20  C   UNL     1      30.841 -24.564 -15.180  0.00  0.00    +0.026 C 
BRANCH  20  21
ATOM     21  C   UNL     1      29.485 -24.103 -14.652  0.00  0.00    +0.066 C 
BRANCH  21  23
ATOM     22  O   UNL     1      28.555 -21.995 -15.386  0.00  0.00    -0.296 OA
ATOM     23  C   UNL     1      28.765 -23.184 -15.622  0.00  0.00    +0.151 C 
ATOM     24  C   UNL     1      28.311 -23.809 -16.916  0.00  0.00    +0.072 C 
ENDBRANCH  21  23
ENDBRANCH  20  21
ENDBRANCH   5  20
TORSDOF 5
ENDMDL
MODEL 2
REMARK VINA RESULT:      -9.7      0.682      1.572
REMARK  Name = 3824
REMARK  5 active torsions:
REMARK  status: ('A' for Active; 'I' for Inactive)
REMARK    1  A    between atoms: N_3  and  C_8
REMARK    2  A    between atoms: N_4  and  C_14
REMARK    3  A    between atoms: C_5  and  C_20
REMARK    4  A    between atoms: C_20  and  C_21
REMARK    5  A    between atoms: C_21  and  C_23
REMARK                            x       y       z     vdW  Elec       q    Type
REMARK                         _______ _______ _______ _____ _____    ______ ____
ROOT
ATOM      1  O   UNL     1      31.736 -23.048 -17.613  0.00  0.00    -0.272 OA
ATOM      2  O   UNL     1      32.784 -23.973 -13.107  0.00  0.00    -0.272 OA
ATOM      3  N   UNL     1      33.774 -23.335 -16.416  0.00  0.00    -0.179 N 
ATOM      4  N   UNL     1      34.081 -23.720 -15.088  0.00  0.00    -0.179 N 
ATOM      5  C   UNL     1      31.770 -23.469 -15.237  0.00  0.00    +0.157 C 
ATOM      6  C   UNL     1      32.385 -23.288 -16.605  0.00  0.00    +0.254 C 
ATOM      7  C   UNL     1      32.923 -23.724 -14.296  0.00  0.00    +0.254 C 
ENDROOT
BRANCH   3   8
ATOM      8  C   UNL     1      34.691 -22.687 -17.297  0.00  0.00    +0.073 C 
ATOM      9  C   UNL     1      35.945 -22.286 -16.833  0.00  0.00    +0.017 C 
ATOM     10  C   UNL     1      34.337 -22.450 -18.628  0.00  0.00    +0.017 C 
ATOM     11  C   UNL     1      36.842 -21.652 -17.694  0.00  0.00    +0.001 C 
ATOM     12  C   UNL     1      35.233 -21.818 -19.489  0.00  0.00    +0.001 C 
ATOM     13  C   UNL     1      36.486 -21.419 -19.022  0.00  0.00    +0.000 C 
ENDBRANCH   3   8
BRANCH   4  14
ATOM     14  C   UNL     1      35.266 -24.421 -14.708  0.00  0.00    +0.073 C 
ATOM     15  C   UNL     1      35.584 -25.640 -15.312  0.00  0.00    +0.017 C 
ATOM     16  C   UNL     1      36.113 -23.890 -13.734  0.00  0.00    +0.017 C 
ATOM     17  C   UNL     1      36.741 -26.325 -14.942  0.00  0.00    +0.001 C 
ATOM     18  C   UNL     1      37.271 -24.575 -13.364  0.00  0.00    +0.001 C 
ATOM     19  C   UNL     1      37.585 -25.791 -13.968  0.00  0.00    +0.000 C 
ENDBRANCH   4  14
BRANCH   5  20
ATOM     20  C   UNL     1      30.779 -24.619 -15.230  0.00  0.00    +0.026 C 
BRANCH  20  21
ATOM     21  C   UNL     1      29.379 -24.148 -14.846  0.00  0.00    +0.066 C 
BRANCH  21  23
ATOM     22  O   UNL     1      28.452 -24.450 -17.058  0.00  0.00    -0.296 OA
ATOM     23  C   UNL     1      28.548 -23.750 -16.051  0.00  0.00    +0.151 C 
ATOM     24  C   UNL     1      27.830 -22.428 -15.956  0.00  0.00    +0.072 C 
ENDBRANCH  21  23
ENDBRANCH  20  21
ENDBRANCH   5  20
TORSDOF 5
ENDMDL
MODEL 3
REMARK VINA RESULT:      -9.5      9.097     12.324
REMARK  Name = 3824
REMARK  5 active torsions:
REMARK  status: ('A' for Active; 'I' for Inactive)
REMARK    1  A    between atoms: N_3  and  C_8
REMARK    2  A    between atoms: N_4  and  C_14
REMARK    3  A    between atoms: C_5  and  C_20
REMARK    4  A    between atoms: C_20  and  C_21
REMARK    5  A    between atoms: C_21  and  C_23
REMARK                            x       y       z     vdW  Elec       q    Type
REMARK                         _______ _______ _______ _____ _____    ______ ____
ROOT
ATOM      1  O   UNL     1      32.294 -15.737 -20.060  0.00  0.00    -0.272 OA
ATOM      2  O   UNL     1      35.646 -15.858 -23.378  0.00  0.00    -0.272 OA
ATOM      3  N   UNL     1      32.871 -14.313 -21.879  0.00  0.00    -0.179 N 
ATOM      4  N   UNL     1      33.809 -14.409 -22.936  0.00  0.00    -0.179 N 
ATOM      5  C   UNL     1      34.179 -16.201 -21.494  0.00  0.00    +0.157 C 
ATOM      6  C   UNL     1      32.959 -15.433 -21.040  0.00  0.00    +0.254 C 
ATOM      7  C   UNL     1      34.695 -15.474 -22.713  0.00  0.00    +0.254 C 
ENDROOT
BRANCH   3   8
ATOM      8  C   UNL     1      32.239 -13.098 -21.474  0.00  0.00    +0.073 C 
ATOM      9  C   UNL     1      31.601 -12.291 -22.418  0.00  0.00    +0.017 C 
ATOM     10  C   UNL     1      32.257 -12.713 -20.131  0.00  0.00    +0.017 C 
ATOM     11  C   UNL     1      30.983 -11.105 -22.023  0.00  0.00    +0.001 C 
ATOM     12  C   UNL     1      31.638 -11.527 -19.735  0.00  0.00    +0.001 C 
ATOM     13  C   UNL     1      31.001 -10.723 -20.681  0.00  0.00    +0.000 C 
ENDBRANCH   3   8
BRANCH   4  14
ATOM     14  C   UNL     1      33.626 -13.828 -24.228  0.00  0.00    +0.073 C 
ATOM     15  C   UNL     1      34.013 -12.507 -24.464  0.00  0.00    +0.017 C 
ATOM     16  C   UNL     1      33.060 -14.579 -25.261  0.00  0.00    +0.017 C 
ATOM     17  C   UNL     1      33.835 -11.939 -25.725  0.00  0.00    +0.001 C 
ATOM     18  C   UNL     1      32.882 -14.011 -26.523  0.00  0.00    +0.001 C 
ATOM     19  C   UNL     1      33.270 -12.691 -26.755  0.00  0.00    +0.000 C 
ENDBRANCH   4  14
BRANCH   5  20
ATOM     20  C   UNL     1      33.830 -17.644 -21.811  0.00  0.00    +0.026 C 
BRANCH  20  21
ATOM     21  C   UNL     1      34.952 -18.593 -21.398  0.00  0.00    +0.066 C 
BRANCH  21  23
ATOM     22  O   UNL     1      35.190 -20.498 -19.928  0.00  0.00    -0.296 OA
ATOM     23  C   UNL     1      34.447 -19.773 -20.588  0.00  0.00    +0.151 C 
ATOM     24  C   UNL     1      32.961 -20.022 -20.633  0.00  0.00    +0.072 C 
ENDBRANCH  21  23
ENDBRANCH  20  21
ENDBRANCH   5  20
TORSDOF 5
ENDMDL
MODEL 4
REMARK VINA RESULT:      -9.0      9.363     12.695
REMARK  Name = 3824
REMARK  5 active torsions:
REMARK  status: ('A' for Active; 'I' for Inactive)
REMARK    1  A    between atoms: N_3  and  C_8
REMARK    2  A    between atoms: N_4  and  C_14
REMARK    3  A    between atoms: C_5  and  C_20
REMARK    4  A    between atoms: C_20  and  C_21
REMARK    5  A    between atoms: C_21  and  C_23
REMARK                            x       y       z     vdW  Elec       q    Type
REMARK                         _______ _______ _______ _____ _____    ______ ____
ROOT
ATOM      1  O   UNL     1      32.150 -15.442 -19.925  0.00  0.00    -0.272 OA
ATOM      2  O   UNL     1      35.538 -15.751 -23.194  0.00  0.00    -0.272 OA
ATOM      3  N   UNL     1      32.776 -14.099 -21.790  0.00  0.00    -0.179 N 
ATOM      4  N   UNL     1      33.723 -14.253 -22.830  0.00  0.00    -0.179 N 
ATOM      5  C   UNL     1      34.042 -15.994 -21.316  0.00  0.00    +0.157 C 
ATOM      6  C   UNL     1      32.832 -15.188 -20.907  0.00  0.00    +0.254 C 
ATOM      7  C   UNL     1      34.586 -15.325 -22.556  0.00  0.00    +0.254 C 
ENDROOT
BRANCH   3   8
ATOM      8  C   UNL     1      32.161 -12.858 -21.439  0.00  0.00    +0.073 C 
ATOM      9  C   UNL     1      32.161 -12.427 -20.111  0.00  0.00    +0.017 C 
ATOM     10  C   UNL     1      31.557 -12.072 -22.423  0.00  0.00    +0.017 C 
ATOM     11  C   UNL     1      31.562 -11.215 -19.767  0.00  0.00    +0.001 C 
ATOM     12  C   UNL     1      30.958 -10.859 -22.080  0.00  0.00    +0.001 C 
ATOM     13  C   UNL     1      30.961 -10.432 -20.752  0.00  0.00    +0.000 C 
ENDBRANCH   3   8
BRANCH   4  14
ATOM     14  C   UNL     1      33.566 -13.719 -24.146  0.00  0.00    +0.073 C 
ATOM     15  C   UNL     1      33.994 -12.419 -24.430  0.00  0.00    +0.017 C 
ATOM     16  C   UNL     1      32.986 -14.493 -25.152  0.00  0.00    +0.017 C 
ATOM     17  C   UNL     1      33.841 -11.897 -25.715  0.00  0.00    +0.001 C 
ATOM     18  C   UNL     1      32.834 -13.970 -26.437  0.00  0.00    +0.001 C 
ATOM     19  C   UNL     1      33.261 -12.673 -26.719  0.00  0.00    +0.000 C 
ENDBRANCH   4  14
BRANCH   5  20
ATOM     20  C   UNL     1      33.671 -17.442 -21.583  0.00  0.00    +0.026 C 
BRANCH  20  21
ATOM     21  C   UNL     1      34.758 -18.396 -21.095  0.00  0.00    +0.066 C 
BRANCH  21  23
ATOM     22  O   UNL     1      36.954 -18.687 -22.064  0.00  0.00    -0.296 OA
ATOM     23  C   UNL     1      35.734 -18.776 -22.194  0.00  0.00    +0.151 C 
ATOM     24  C   UNL     1      35.125 -19.279 -23.478  0.00  0.00    +0.072 C 
ENDBRANCH  21  23
ENDBRANCH  20  21
ENDBRANCH   5  20
TORSDOF 5
ENDMDL
MODEL 5
REMARK VINA RESULT:      -8.9     11.654     14.457
REMARK  Name = 3824
REMARK  5 active torsions:
REMARK  status: ('A' for Active; 'I' for Inactive)
REMARK    1  A    between atoms: N_3  and  C_8
REMARK    2  A    between atoms: N_4  and  C_14
REMARK    3  A    between atoms: C_5  and  C_20
REMARK    4  A    between atoms: C_20  and  C_21
REMARK    5  A    between atoms: C_21  and  C_23
REMARK                            x       y       z     vdW  Elec       q    Type
REMARK                         _______ _______ _______ _____ _____    ______ ____
ROOT
ATOM      1  O   UNL     1      31.960 -13.564 -20.277  0.00  0.00    -0.272 OA
ATOM      2  O   UNL     1      30.946  -9.804 -22.940  0.00  0.00    -0.272 OA
ATOM      3  N   UNL     1      32.795 -12.730 -22.346  0.00  0.00    -0.179 N 
ATOM      4  N   UNL     1      32.564 -11.545 -23.085  0.00  0.00    -0.179 N 
ATOM      5  C   UNL     1      31.066 -11.571 -21.301  0.00  0.00    +0.157 C 
ATOM      6  C   UNL     1      32.008 -12.746 -21.184  0.00  0.00    +0.254 C 
ATOM      7  C   UNL     1      31.465 -10.845 -22.564  0.00  0.00    +0.254 C 
ENDROOT
BRANCH   3   8
ATOM      8  C   UNL     1      33.393 -13.910 -22.883  0.00  0.00    +0.073 C 
ATOM      9  C   UNL     1      32.996 -14.390 -24.133  0.00  0.00    +0.017 C 
ATOM     10  C   UNL     1      34.378 -14.589 -22.160  0.00  0.00    +0.017 C 
ATOM     11  C   UNL     1      33.581 -15.543 -24.659  0.00  0.00    +0.001 C 
ATOM     12  C   UNL     1      34.963 -15.741 -22.686  0.00  0.00    +0.001 C 
ATOM     13  C   UNL     1      34.564 -16.217 -23.936  0.00  0.00    +0.000 C 
ENDBRANCH   3   8
BRANCH   4  14
ATOM     14  C   UNL     1      33.535 -10.921 -23.927  0.00  0.00    +0.073 C 
ATOM     15  C   UNL     1      34.067  -9.676 -23.582  0.00  0.00    +0.017 C 
ATOM     16  C   UNL     1      33.958 -11.555 -25.097  0.00  0.00    +0.017 C 
ATOM     17  C   UNL     1      35.015  -9.067 -24.404  0.00  0.00    +0.001 C 
ATOM     18  C   UNL     1      34.908 -10.945 -25.919  0.00  0.00    +0.001 C 
ATOM     19  C   UNL     1      35.436  -9.702 -25.572  0.00  0.00    +0.000 C 
ENDBRANCH   4  14
BRANCH   5  20
ATOM     20  C   UNL     1      31.165 -10.668 -20.086  0.00  0.00    +0.026 C 
BRANCH  20  21
ATOM     21  C   UNL     1      32.483  -9.899 -20.066  0.00  0.00    +0.066 C 
BRANCH  21  23
ATOM     22  O   UNL     1      31.659  -7.869 -19.042  0.00  0.00    -0.296 OA
ATOM     23  C   UNL     1      32.280  -8.398 -19.963  0.00  0.00    +0.151 C 
ATOM     24  C   UNL     1      32.886  -7.569 -21.065  0.00  0.00    +0.072 C 
ENDBRANCH  21  23
ENDBRANCH  20  21
ENDBRANCH   5  20
TORSDOF 5
ENDMDL
MODEL 6
REMARK VINA RESULT:      -8.8      2.340      5.902
REMARK  Name = 3824
REMARK  5 active torsions:
REMARK  status: ('A' for Active; 'I' for Inactive)
REMARK    1  A    between atoms: N_3  and  C_8
REMARK    2  A    between atoms: N_4  and  C_14
REMARK    3  A    between atoms: C_5  and  C_20
REMARK    4  A    between atoms: C_20  and  C_21
REMARK    5  A    between atoms: C_21  and  C_23
REMARK                            x       y       z     vdW  Elec       q    Type
REMARK                         _______ _______ _______ _____ _____    ______ ____
ROOT
ATOM      1  O   UNL     1      38.144 -22.528 -16.148  0.00  0.00    -0.272 OA
ATOM      2  O   UNL     1      35.038 -25.620 -14.402  0.00  0.00    -0.272 OA
ATOM      3  N   UNL     1      35.809 -22.877 -16.455  0.00  0.00    -0.179 N 
ATOM      4  N   UNL     1      34.861 -23.736 -15.847  0.00  0.00    -0.179 N 
ATOM      5  C   UNL     1      36.968 -24.323 -15.045  0.00  0.00    +0.157 C 
ATOM      6  C   UNL     1      37.086 -23.097 -15.920  0.00  0.00    +0.254 C 
ATOM      7  C   UNL     1      35.506 -24.700 -15.057  0.00  0.00    +0.254 C 
ENDROOT
BRANCH   3   8
ATOM      8  C   UNL     1      35.603 -22.204 -17.698  0.00  0.00    +0.073 C 
ATOM      9  C   UNL     1      34.364 -22.279 -18.338  0.00  0.00    +0.017 C 
ATOM     10  C   UNL     1      36.640 -21.470 -18.278  0.00  0.00    +0.017 C 
ATOM     11  C   UNL     1      34.162 -21.621 -19.552  0.00  0.00    +0.001 C 
ATOM     12  C   UNL     1      36.438 -20.812 -19.491  0.00  0.00    +0.001 C 
ATOM     13  C   UNL     1      35.199 -20.887 -20.128  0.00  0.00    +0.000 C 
ENDBRANCH   3   8
BRANCH   4  14
ATOM     14  C   UNL     1      33.477 -23.420 -15.687  0.00  0.00    +0.073 C 
ATOM     15  C   UNL     1      32.599 -23.547 -16.766  0.00  0.00    +0.017 C 
ATOM     16  C   UNL     1      32.996 -22.986 -14.450  0.00  0.00    +0.017 C 
ATOM     17  C   UNL     1      31.248 -23.239 -16.610  0.00  0.00    +0.001 C 
ATOM     18  C   UNL     1      31.644 -22.678 -14.294  0.00  0.00    +0.001 C 
ATOM     19  C   UNL     1      30.770 -22.805 -15.373  0.00  0.00    +0.000 C 
ENDBRANCH   4  14
BRANCH   5  20
ATOM     20  C   UNL     1      37.459 -24.041 -13.637  0.00  0.00    +0.026 C 
BRANCH  20  21
ATOM     21  C   UNL     1      38.362 -25.160 -13.126  0.00  0.00    +0.066 C 
BRANCH  21  23
ATOM     22  O   UNL     1      38.556 -26.985 -14.700  0.00  0.00    -0.296 OA
ATOM     23  C   UNL     1      39.020 -25.938 -14.251  0.00  0.00    +0.151 C 
ATOM     24  C   UNL     1      40.295 -25.355 -14.804  0.00  0.00    +0.072 C 
ENDBRANCH  21  23
ENDBRANCH  20  21
ENDBRANCH   5  20
TORSDOF 5
ENDMDL
MODEL 7
REMARK VINA RESULT:      -8.7     11.107     13.932
REMARK  Name = 3824
REMARK  5 active torsions:
REMARK  status: ('A' for Active; 'I' for Inactive)
REMARK    1  A    between atoms: N_3  and  C_8
REMARK    2  A    between atoms: N_4  and  C_14
REMARK    3  A    between atoms: C_5  and  C_20
REMARK    4  A    between atoms: C_20  and  C_21
REMARK    5  A    between atoms: C_21  and  C_23
REMARK                            x       y       z     vdW  Elec       q    Type
REMARK                         _______ _______ _______ _____ _____    ______ ____
ROOT
ATOM      1  O   UNL     1      32.673 -14.746 -20.718  0.00  0.00    -0.272 OA
ATOM      2  O   UNL     1      31.237 -10.724 -22.722  0.00  0.00    -0.272 OA
ATOM      3  N   UNL     1      33.217 -13.624 -22.747  0.00  0.00    -0.179 N 
ATOM      4  N   UNL     1      32.865 -12.365 -23.292  0.00  0.00    -0.179 N 
ATOM      5  C   UNL     1      31.608 -12.677 -21.356  0.00  0.00    +0.157 C 
ATOM      6  C   UNL     1      32.585 -13.819 -21.510  0.00  0.00    +0.254 C 
ATOM      7  C   UNL     1      31.825 -11.782 -22.552  0.00  0.00    +0.254 C 
ENDROOT
BRANCH   3   8
ATOM      8  C   UNL     1      33.771 -14.702 -23.504  0.00  0.00    +0.073 C 
ATOM      9  C   UNL     1      34.818 -15.461 -22.978  0.00  0.00    +0.017 C 
ATOM     10  C   UNL     1      33.267 -14.999 -24.773  0.00  0.00    +0.017 C 
ATOM     11  C   UNL     1      35.359 -16.514 -23.717  0.00  0.00    +0.001 C 
ATOM     12  C   UNL     1      33.807 -16.052 -25.511  0.00  0.00    +0.001 C 
ATOM     13  C   UNL     1      34.853 -16.809 -24.983  0.00  0.00    +0.000 C 
ENDBRANCH   3   8
BRANCH   4  14
ATOM     14  C   UNL     1      33.706 -11.602 -24.158  0.00  0.00    +0.073 C 
ATOM     15  C   UNL     1      34.264 -10.400 -23.714  0.00  0.00    +0.017 C 
ATOM     16  C   UNL     1      33.974 -12.053 -25.452  0.00  0.00    +0.017 C 
ATOM     17  C   UNL     1      35.085  -9.655 -24.560  0.00  0.00    +0.001 C 
ATOM     18  C   UNL     1      34.795 -11.307 -26.298  0.00  0.00    +0.001 C 
ATOM     19  C   UNL     1      35.351 -10.108 -25.851  0.00  0.00    +0.000 C 
ENDBRANCH   4  14
BRANCH   5  20
ATOM     20  C   UNL     1      31.838 -11.932 -20.054  0.00  0.00    +0.026 C 
BRANCH  20  21
ATOM     21  C   UNL     1      31.062 -10.618 -20.017  0.00  0.00    +0.066 C 
BRANCH  21  23
ATOM     22  O   UNL     1      32.495  -9.341 -18.546  0.00  0.00    -0.296 OA
ATOM     23  C   UNL     1      31.936  -9.436 -19.638  0.00  0.00    +0.151 C 
ATOM     24  C   UNL     1      32.091  -8.362 -20.684  0.00  0.00    +0.072 C 
ENDBRANCH  21  23
ENDBRANCH  20  21
ENDBRANCH   5  20
TORSDOF 5
ENDMDL
MODEL 8
REMARK VINA RESULT:      -8.6      2.375      5.321
REMARK  Name = 3824
REMARK  5 active torsions:
REMARK  status: ('A' for Active; 'I' for Inactive)
REMARK    1  A    between atoms: N_3  and  C_8
REMARK    2  A    between atoms: N_4  and  C_14
REMARK    3  A    between atoms: C_5  and  C_20
REMARK    4  A    between atoms: C_20  and  C_21
REMARK    5  A    between atoms: C_21  and  C_23
REMARK                            x       y       z     vdW  Elec       q    Type
REMARK                         _______ _______ _______ _____ _____    ______ ____
ROOT
ATOM      1  O   UNL     1      38.220 -22.646 -16.195  0.00  0.00    -0.272 OA
ATOM      2  O   UNL     1      35.101 -25.742 -14.479  0.00  0.00    -0.272 OA
ATOM      3  N   UNL     1      35.873 -22.947 -16.461  0.00  0.00    -0.179 N 
ATOM      4  N   UNL     1      34.925 -23.810 -15.859  0.00  0.00    -0.179 N 
ATOM      5  C   UNL     1      37.038 -24.456 -15.124  0.00  0.00    +0.157 C 
ATOM      6  C   UNL     1      37.158 -23.205 -15.961  0.00  0.00    +0.254 C 
ATOM      7  C   UNL     1      35.570 -24.809 -15.115  0.00  0.00    +0.254 C 
ENDROOT
BRANCH   3   8
ATOM      8  C   UNL     1      35.651 -22.231 -17.676  0.00  0.00    +0.073 C 
ATOM      9  C   UNL     1      36.667 -21.443 -18.220  0.00  0.00    +0.017 C 
ATOM     10  C   UNL     1      34.417 -22.316 -18.325  0.00  0.00    +0.017 C 
ATOM     11  C   UNL     1      36.451 -20.743 -19.408  0.00  0.00    +0.001 C 
ATOM     12  C   UNL     1      34.201 -21.618 -19.513  0.00  0.00    +0.001 C 
ATOM     13  C   UNL     1      35.219 -20.831 -20.054  0.00  0.00    +0.000 C 
ENDBRANCH   3   8
BRANCH   4  14
ATOM     14  C   UNL     1      33.550 -23.477 -15.657  0.00  0.00    +0.073 C 
ATOM     15  C   UNL     1      33.111 -23.036 -14.406  0.00  0.00    +0.017 C 
ATOM     16  C   UNL     1      32.640 -23.590 -16.710  0.00  0.00    +0.017 C 
ATOM     17  C   UNL     1      31.769 -22.711 -14.210  0.00  0.00    +0.001 C 
ATOM     18  C   UNL     1      31.297 -23.264 -16.513  0.00  0.00    +0.001 C 
ATOM     19  C   UNL     1      30.862 -22.824 -15.263  0.00  0.00    +0.000 C 
ENDBRANCH   4  14
BRANCH   5  20
ATOM     20  C   UNL     1      37.565 -24.227 -13.719  0.00  0.00    +0.026 C 
BRANCH  20  21
ATOM     21  C   UNL     1      36.793 -23.121 -13.006  0.00  0.00    +0.066 C 
BRANCH  21  23
ATOM     22  O   UNL     1      37.227 -22.794 -10.650  0.00  0.00    -0.296 OA
ATOM     23  C   UNL     1      36.610 -23.400 -11.525  0.00  0.00    +0.151 C 
ATOM     24  C   UNL     1      35.618 -24.477 -11.170  0.00  0.00    +0.072 C 
ENDBRANCH  21  23
ENDBRANCH  20  21
ENDBRANCH   5  20
TORSDOF 5
ENDMDL
MODEL 9
REMARK VINA RESULT:      -8.6     12.388     15.078
REMARK  Name = 3824
REMARK  5 active torsions:
REMARK  status: ('A' for Active; 'I' for Inactive)
REMARK    1  A    between atoms: N_3  and  C_8
REMARK    2  A    between atoms: N_4  and  C_14
REMARK    3  A    between atoms: C_5  and  C_20
REMARK    4  A    between atoms: C_20  and  C_21
REMARK    5  A    between atoms: C_21  and  C_23
REMARK                            x       y       z     vdW  Elec       q    Type
REMARK                         _______ _______ _______ _____ _____    ______ ____
ROOT
ATOM      1  O   UNL     1      34.640 -11.265 -25.252  0.00  0.00    -0.272 OA
ATOM      2  O   UNL     1      31.558 -13.475 -22.446  0.00  0.00    -0.272 OA
ATOM      3  N   UNL     1      33.206 -10.554 -23.488  0.00  0.00    -0.179 N 
ATOM      4  N   UNL     1      32.365 -11.239 -22.578  0.00  0.00    -0.179 N 
ATOM      5  C   UNL     1      33.164 -12.797 -24.114  0.00  0.00    +0.157 C 
ATOM      6  C   UNL     1      33.820 -11.460 -24.366  0.00  0.00    +0.254 C 
ATOM      7  C   UNL     1      32.217 -12.581 -22.957  0.00  0.00    +0.254 C 
ENDROOT
BRANCH   3   8
ATOM      8  C   UNL     1      33.125  -9.155 -23.762  0.00  0.00    +0.073 C 
ATOM      9  C   UNL     1      31.886  -8.557 -23.997  0.00  0.00    +0.017 C 
ATOM     10  C   UNL     1      34.287  -8.379 -23.796  0.00  0.00    +0.017 C 
ATOM     11  C   UNL     1      31.806  -7.190 -24.264  0.00  0.00    +0.001 C 
ATOM     12  C   UNL     1      34.207  -7.012 -24.061  0.00  0.00    +0.001 C 
ATOM     13  C   UNL     1      32.967  -6.418 -24.296  0.00  0.00    +0.000 C 
ENDBRANCH   3   8
BRANCH   4  14
ATOM     14  C   UNL     1      32.075 -10.784 -21.255  0.00  0.00    +0.073 C 
ATOM     15  C   UNL     1      31.697 -11.697 -20.267  0.00  0.00    +0.017 C 
ATOM     16  C   UNL     1      32.168  -9.426 -20.944  0.00  0.00    +0.017 C 
ATOM     17  C   UNL     1      31.414 -11.253 -18.975  0.00  0.00    +0.001 C 
ATOM     18  C   UNL     1      31.884  -8.983 -19.652  0.00  0.00    +0.001 C 
ATOM     19  C   UNL     1      31.508  -9.896 -18.668  0.00  0.00    +0.000 C 
ENDBRANCH   4  14
BRANCH   5  20
ATOM     20  C   UNL     1      34.198 -13.862 -23.797  0.00  0.00    +0.026 C 
BRANCH  20  21
ATOM     21  C   UNL     1      33.610 -15.265 -23.919  0.00  0.00    +0.066 C 
BRANCH  21  23
ATOM     22  O   UNL     1      33.747 -15.459 -26.325  0.00  0.00    -0.296 OA
ATOM     23  C   UNL     1      33.991 -15.945 -25.221  0.00  0.00    +0.151 C 
ATOM     24  C   UNL     1      34.697 -17.270 -25.097  0.00  0.00    +0.072 C 
ENDBRANCH  21  23
ENDBRANCH  20  21
ENDBRANCH   5  20
TORSDOF 5
ENDMDL
