MODEL 1
REMARK VINA RESULT:      -8.5      0.000      0.000
REMARK  Name = 19989057
REMARK  2 active torsions:
REMARK  status: ('A' for Active; 'I' for Inactive)
REMARK    1  A    between atoms: N_1  and  O_18
REMARK    2  A    between atoms: C_4  and  N_13
REMARK                            x       y       z     vdW  Elec       q    Type
REMARK                         _______ _______ _______ _____ _____    ______ ____
ROOT
ATOM      1  N   UNL     1      36.759 -25.443 -12.701  0.00  0.00    -0.175 NA
ATOM      2  C   UNL     1      36.976 -25.596 -14.149  0.00  0.00    +0.071 C 
ATOM      3  C   UNL     1      36.109 -24.241 -12.153  0.00  0.00    +0.071 C 
ATOM      4  C   UNL     1      35.066 -23.911 -14.476  0.00  0.00    +0.086 C 
ATOM      5  C   UNL     1      35.670 -25.250 -14.906  0.00  0.00    +0.037 C 
ATOM      6  C   UNL     1      34.826 -23.932 -12.964  0.00  0.00    +0.037 C 
ATOM      7  C   UNL     1      37.283 -27.089 -14.420  0.00  0.00    +0.018 C 
ATOM      8  C   UNL     1      38.146 -24.779 -14.735  0.00  0.00    +0.018 C 
ATOM      9  C   UNL     1      35.669 -24.568 -10.705  0.00  0.00    +0.018 C 
ATOM     10  C   UNL     1      36.994 -22.980 -12.083  0.00  0.00    +0.018 C 
ENDROOT
BRANCH   4  13
ATOM     11  O   UNL     1      32.310 -24.127 -13.466  0.00  0.00    -0.269 OA
ATOM     12  O   UNL     1      34.730 -23.027 -17.245  0.00  0.00    -0.269 OA
ATOM     13  N   UNL     1      33.831 -23.660 -15.182  0.00  0.00    -0.224 N 
ATOM     14  C   UNL     1      32.582 -23.792 -14.611  0.00  0.00    +0.255 C 
ATOM     15  C   UNL     1      33.787 -23.242 -16.497  0.00  0.00    +0.255 C 
ATOM     16  C   UNL     1      31.553 -23.441 -15.647  0.00  0.00    +0.063 C 
ATOM     17  C   UNL     1      32.348 -23.083 -16.892  0.00  0.00    +0.063 C 
ENDBRANCH   4  13
BRANCH   1  18
ATOM     18  O   UNL     1      37.965 -25.755 -11.966  0.00  0.00    -0.311 OA
ATOM     19  H   UNL     1      37.734 -26.007 -11.057  0.00  0.00    +0.237 HD
ENDBRANCH   1  18
TORSDOF 2
ENDMDL
MODEL 2
REMARK VINA RESULT:      -8.0      1.740      3.199
REMARK  Name = 19989057
REMARK  2 active torsions:
REMARK  status: ('A' for Active; 'I' for Inactive)
REMARK    1  A    between atoms: N_1  and  O_18
REMARK    2  A    between atoms: C_4  and  N_13
REMARK                            x       y       z     vdW  Elec       q    Type
REMARK                         _______ _______ _______ _____ _____    ______ ____
ROOT
ATOM      1  N   UNL     1      37.124 -24.451 -15.424  0.00  0.00    -0.175 NA
ATOM      2  C   UNL     1      36.828 -23.016 -15.277  0.00  0.00    +0.071 C 
ATOM      3  C   UNL     1      36.282 -25.470 -14.774  0.00  0.00    +0.071 C 
ATOM      4  C   UNL     1      34.416 -23.708 -14.730  0.00  0.00    +0.086 C 
ATOM      5  C   UNL     1      35.320 -22.771 -15.535  0.00  0.00    +0.037 C 
ATOM      6  C   UNL     1      34.790 -25.158 -15.046  0.00  0.00    +0.037 C 
ATOM      7  C   UNL     1      37.612 -22.264 -16.380  0.00  0.00    +0.018 C 
ATOM      8  C   UNL     1      37.231 -22.390 -13.926  0.00  0.00    +0.018 C 
ATOM      9  C   UNL     1      36.596 -26.830 -15.445  0.00  0.00    +0.018 C 
ATOM     10  C   UNL     1      36.507 -25.650 -13.259  0.00  0.00    +0.018 C 
ENDROOT
BRANCH   4  13
ATOM     11  O   UNL     1      33.154 -23.460 -17.377  0.00  0.00    -0.269 OA
ATOM     12  O   UNL     1      32.190 -23.380 -12.859  0.00  0.00    -0.269 OA
ATOM     13  N   UNL     1      33.027 -23.463 -15.040  0.00  0.00    -0.224 N 
ATOM     14  C   UNL     1      32.535 -23.363 -16.326  0.00  0.00    +0.255 C 
ATOM     15  C   UNL     1      32.052 -23.324 -14.073  0.00  0.00    +0.255 C 
ATOM     16  C   UNL     1      31.057 -23.114 -16.245  0.00  0.00    +0.063 C 
ATOM     17  C   UNL     1      30.739 -23.084 -14.759  0.00  0.00    +0.063 C 
ENDBRANCH   4  13
BRANCH   1  18
ATOM     18  O   UNL     1      38.526 -24.713 -15.184  0.00  0.00    -0.311 OA
ATOM     19  H   UNL     1      38.657 -25.663 -15.037  0.00  0.00    +0.237 HD
ENDBRANCH   1  18
TORSDOF 2
ENDMDL
MODEL 3
REMARK VINA RESULT:      -7.8      1.984      3.770
REMARK  Name = 19989057
REMARK  2 active torsions:
REMARK  status: ('A' for Active; 'I' for Inactive)
REMARK    1  A    between atoms: N_1  and  O_18
REMARK    2  A    between atoms: C_4  and  N_13
REMARK                            x       y       z     vdW  Elec       q    Type
REMARK                         _______ _______ _______ _____ _____    ______ ____
ROOT
ATOM      1  N   UNL     1      37.842 -24.616 -12.656  0.00  0.00    -0.175 NA
ATOM      2  C   UNL     1      36.616 -23.819 -12.486  0.00  0.00    +0.071 C 
ATOM      3  C   UNL     1      38.063 -25.421 -13.869  0.00  0.00    +0.071 C 
ATOM      4  C   UNL     1      36.398 -23.860 -15.044  0.00  0.00    +0.086 C 
ATOM      5  C   UNL     1      36.348 -23.004 -13.776  0.00  0.00    +0.037 C 
ATOM      6  C   UNL     1      37.755 -24.563 -15.122  0.00  0.00    +0.037 C 
ATOM      7  C   UNL     1      36.875 -22.804 -11.347  0.00  0.00    +0.018 C 
ATOM      8  C   UNL     1      35.352 -24.617 -12.105  0.00  0.00    +0.018 C 
ATOM      9  C   UNL     1      39.567 -25.784 -13.920  0.00  0.00    +0.018 C 
ATOM     10  C   UNL     1      37.275 -26.745 -13.941  0.00  0.00    +0.018 C 
ENDROOT
BRANCH   4  13
ATOM     11  O   UNL     1      38.222 -21.897 -16.261  0.00  0.00    -0.269 OA
ATOM     12  O   UNL     1      34.047 -23.806 -16.787  0.00  0.00    -0.269 OA
ATOM     13  N   UNL     1      36.182 -23.043 -16.216  0.00  0.00    -0.224 N 
ATOM     14  C   UNL     1      37.110 -22.147 -16.707  0.00  0.00    +0.255 C 
ATOM     15  C   UNL     1      35.027 -23.098 -16.970  0.00  0.00    +0.255 C 
ATOM     16  C   UNL     1      36.532 -21.496 -17.930  0.00  0.00    +0.063 C 
ATOM     17  C   UNL     1      35.158 -22.120 -18.101  0.00  0.00    +0.063 C 
ENDBRANCH   4  13
BRANCH   1  18
ATOM     18  O   UNL     1      38.118 -25.394 -11.467  0.00  0.00    -0.311 OA
ATOM     19  H   UNL     1      37.569 -25.071 -10.735  0.00  0.00    +0.237 HD
ENDBRANCH   1  18
TORSDOF 2
ENDMDL
MODEL 4
REMARK VINA RESULT:      -7.8      7.424     10.664
REMARK  Name = 19989057
REMARK  2 active torsions:
REMARK  status: ('A' for Active; 'I' for Inactive)
REMARK    1  A    between atoms: N_1  and  O_18
REMARK    2  A    between atoms: C_4  and  N_13
REMARK                            x       y       z     vdW  Elec       q    Type
REMARK                         _______ _______ _______ _____ _____    ______ ____
ROOT
ATOM      1  N   UNL     1      33.741 -16.571 -22.888  0.00  0.00    -0.175 NA
ATOM      2  C   UNL     1      33.672 -16.342 -21.435  0.00  0.00    +0.071 C 
ATOM      3  C   UNL     1      34.680 -17.552 -23.459  0.00  0.00    +0.071 C 
ATOM      4  C   UNL     1      34.686 -18.684 -21.155  0.00  0.00    +0.086 C 
ATOM      5  C   UNL     1      33.602 -17.704 -20.701  0.00  0.00    +0.037 C 
ATOM      6  C   UNL     1      34.582 -18.881 -22.669  0.00  0.00    +0.037 C 
ATOM      7  C   UNL     1      32.349 -15.593 -21.144  0.00  0.00    +0.018 C 
ATOM      8  C   UNL     1      34.814 -15.492 -20.842  0.00  0.00    +0.018 C 
ATOM      9  C   UNL     1      34.223 -17.845 -24.909  0.00  0.00    +0.018 C 
ATOM     10  C   UNL     1      36.152 -17.098 -23.531  0.00  0.00    +0.018 C 
ENDROOT
BRANCH   4  13
ATOM     11  O   UNL     1      32.259 -20.310 -20.798  0.00  0.00    -0.269 OA
ATOM     12  O   UNL     1      36.775 -20.244 -19.825  0.00  0.00    -0.269 OA
ATOM     13  N   UNL     1      34.547 -19.948 -20.468  0.00  0.00    -0.224 N 
ATOM     14  C   UNL     1      33.354 -20.632 -20.358  0.00  0.00    +0.255 C 
ATOM     15  C   UNL     1      35.607 -20.601 -19.872  0.00  0.00    +0.255 C 
ATOM     16  C   UNL     1      33.607 -21.896 -19.588  0.00  0.00    +0.063 C 
ATOM     17  C   UNL     1      35.092 -21.873 -19.264  0.00  0.00    +0.063 C 
ENDBRANCH   4  13
BRANCH   1  18
ATOM     18  O   UNL     1      33.813 -15.316 -23.603  0.00  0.00    -0.311 OA
ATOM     19  H   UNL     1      33.806 -14.581 -22.970  0.00  0.00    +0.237 HD
ENDBRANCH   1  18
TORSDOF 2
ENDMDL
MODEL 5
REMARK VINA RESULT:      -7.6     10.774     13.221
REMARK  Name = 19989057
REMARK  2 active torsions:
REMARK  status: ('A' for Active; 'I' for Inactive)
REMARK    1  A    between atoms: N_1  and  O_18
REMARK    2  A    between atoms: C_4  and  N_13
REMARK                            x       y       z     vdW  Elec       q    Type
REMARK                         _______ _______ _______ _____ _____    ______ ____
ROOT
ATOM      1  N   UNL     1      33.772 -17.298 -21.981  0.00  0.00    -0.175 NA
ATOM      2  C   UNL     1      34.707 -17.496 -23.101  0.00  0.00    +0.071 C 
ATOM      3  C   UNL     1      33.459 -15.948 -21.482  0.00  0.00    +0.071 C 
ATOM      4  C   UNL     1      34.188 -15.076 -23.785  0.00  0.00    +0.086 C 
ATOM      5  C   UNL     1      34.346 -16.525 -24.253  0.00  0.00    +0.037 C 
ATOM      6  C   UNL     1      33.132 -15.019 -22.678  0.00  0.00    +0.037 C 
ATOM      7  C   UNL     1      34.500 -18.936 -23.631  0.00  0.00    +0.018 C 
ATOM      8  C   UNL     1      36.203 -17.352 -22.752  0.00  0.00    +0.018 C 
ATOM      9  C   UNL     1      32.178 -16.055 -20.620  0.00  0.00    +0.018 C 
ATOM     10  C   UNL     1      34.545 -15.296 -20.602  0.00  0.00    +0.018 C 
ENDROOT
BRANCH   4  13
ATOM     11  O   UNL     1      33.303 -15.866 -26.478  0.00  0.00    -0.269 OA
ATOM     12  O   UNL     1      34.093 -12.152 -23.845  0.00  0.00    -0.269 OA
ATOM     13  N   UNL     1      33.812 -14.224 -24.889  0.00  0.00    -0.224 N 
ATOM     14  C   UNL     1      33.409 -14.700 -26.120  0.00  0.00    +0.255 C 
ATOM     15  C   UNL     1      33.802 -12.847 -24.809  0.00  0.00    +0.255 C 
ATOM     16  C   UNL     1      33.097 -13.523 -26.999  0.00  0.00    +0.063 C 
ATOM     17  C   UNL     1      33.360 -12.301 -26.135  0.00  0.00    +0.063 C 
ENDBRANCH   4  13
BRANCH   1  18
ATOM     18  O   UNL     1      34.087 -18.189 -20.886  0.00  0.00    -0.311 OA
ATOM     19  H   UNL     1      34.677 -17.738 -20.260  0.00  0.00    +0.237 HD
ENDBRANCH   1  18
TORSDOF 2
ENDMDL
MODEL 6
REMARK VINA RESULT:      -7.6     10.781     13.209
REMARK  Name = 19989057
REMARK  2 active torsions:
REMARK  status: ('A' for Active; 'I' for Inactive)
REMARK    1  A    between atoms: N_1  and  O_18
REMARK    2  A    between atoms: C_4  and  N_13
REMARK                            x       y       z     vdW  Elec       q    Type
REMARK                         _______ _______ _______ _____ _____    ______ ____
ROOT
ATOM      1  N   UNL     1      33.772 -17.288 -21.983  0.00  0.00    -0.175 NA
ATOM      2  C   UNL     1      34.705 -17.479 -23.105  0.00  0.00    +0.071 C 
ATOM      3  C   UNL     1      33.456 -15.940 -21.479  0.00  0.00    +0.071 C 
ATOM      4  C   UNL     1      34.179 -15.058 -23.779  0.00  0.00    +0.086 C 
ATOM      5  C   UNL     1      34.340 -16.505 -24.253  0.00  0.00    +0.037 C 
ATOM      6  C   UNL     1      33.124 -15.008 -22.671  0.00  0.00    +0.037 C 
ATOM      7  C   UNL     1      34.501 -18.917 -23.641  0.00  0.00    +0.018 C 
ATOM      8  C   UNL     1      36.201 -17.333 -22.758  0.00  0.00    +0.018 C 
ATOM      9  C   UNL     1      32.176 -16.054 -20.615  0.00  0.00    +0.018 C 
ATOM     10  C   UNL     1      34.541 -15.289 -20.597  0.00  0.00    +0.018 C 
ENDROOT
BRANCH   4  13
ATOM     11  O   UNL     1      34.105 -12.117 -23.864  0.00  0.00    -0.269 OA
ATOM     12  O   UNL     1      33.337 -15.858 -26.466  0.00  0.00    -0.269 OA
ATOM     13  N   UNL     1      33.798 -14.203 -24.880  0.00  0.00    -0.224 N 
ATOM     14  C   UNL     1      33.799 -12.825 -24.814  0.00  0.00    +0.255 C 
ATOM     15  C   UNL     1      33.416 -14.689 -26.114  0.00  0.00    +0.255 C 
ATOM     16  C   UNL     1      33.354 -12.291 -26.145  0.00  0.00    +0.063 C 
ATOM     17  C   UNL     1      33.097 -13.521 -27.001  0.00  0.00    +0.063 C 
ENDBRANCH   4  13
BRANCH   1  18
ATOM     18  O   UNL     1      34.091 -18.182 -20.892  0.00  0.00    -0.311 OA
ATOM     19  H   UNL     1      33.905 -17.742 -20.047  0.00  0.00    +0.237 HD
ENDBRANCH   1  18
TORSDOF 2
ENDMDL
MODEL 7
REMARK VINA RESULT:      -7.6      0.742      3.179
REMARK  Name = 19989057
REMARK  2 active torsions:
REMARK  status: ('A' for Active; 'I' for Inactive)
REMARK    1  A    between atoms: N_1  and  O_18
REMARK    2  A    between atoms: C_4  and  N_13
REMARK                            x       y       z     vdW  Elec       q    Type
REMARK                         _______ _______ _______ _____ _____    ______ ____
ROOT
ATOM      1  N   UNL     1      37.685 -24.459 -13.245  0.00  0.00    -0.175 NA
ATOM      2  C   UNL     1      36.655 -23.915 -12.344  0.00  0.00    +0.071 C 
ATOM      3  C   UNL     1      37.342 -25.449 -14.280  0.00  0.00    +0.071 C 
ATOM      4  C   UNL     1      34.936 -24.564 -14.138  0.00  0.00    +0.086 C 
ATOM      5  C   UNL     1      35.422 -23.479 -13.174  0.00  0.00    +0.037 C 
ATOM      6  C   UNL     1      36.090 -24.971 -15.057  0.00  0.00    +0.037 C 
ATOM      7  C   UNL     1      37.239 -22.642 -11.685  0.00  0.00    +0.018 C 
ATOM      8  C   UNL     1      36.207 -24.852 -11.204  0.00  0.00    +0.018 C 
ATOM      9  C   UNL     1      38.517 -25.496 -15.287  0.00  0.00    +0.018 C 
ATOM     10  C   UNL     1      37.120 -26.890 -13.775  0.00  0.00    +0.018 C 
ENDROOT
BRANCH   4  13
ATOM     11  O   UNL     1      34.960 -23.275 -16.783  0.00  0.00    -0.269 OA
ATOM     12  O   UNL     1      32.095 -24.699 -13.450  0.00  0.00    -0.269 OA
ATOM     13  N   UNL     1      33.813 -24.089 -14.913  0.00  0.00    -0.224 N 
ATOM     14  C   UNL     1      33.935 -23.495 -16.152  0.00  0.00    +0.255 C 
ATOM     15  C   UNL     1      32.504 -24.205 -14.491  0.00  0.00    +0.255 C 
ATOM     16  C   UNL     1      32.560 -23.145 -16.642  0.00  0.00    +0.063 C 
ATOM     17  C   UNL     1      31.617 -23.609 -15.545  0.00  0.00    +0.063 C 
ENDBRANCH   4  13
BRANCH   1  18
ATOM     18  O   UNL     1      38.850 -24.881 -12.498  0.00  0.00    -0.311 OA
ATOM     19  H   UNL     1      38.870 -25.849 -12.448  0.00  0.00    +0.237 HD
ENDBRANCH   1  18
TORSDOF 2
ENDMDL
MODEL 8
REMARK VINA RESULT:      -7.5     10.771     13.359
REMARK  Name = 19989057
REMARK  2 active torsions:
REMARK  status: ('A' for Active; 'I' for Inactive)
REMARK    1  A    between atoms: N_1  and  O_18
REMARK    2  A    between atoms: C_4  and  N_13
REMARK                            x       y       z     vdW  Elec       q    Type
REMARK                         _______ _______ _______ _____ _____    ______ ____
ROOT
ATOM      1  N   UNL     1      35.041 -16.662 -21.693  0.00  0.00    -0.175 NA
ATOM      2  C   UNL     1      34.030 -15.642 -21.368  0.00  0.00    +0.071 C 
ATOM      3  C   UNL     1      34.988 -17.407 -22.962  0.00  0.00    +0.071 C 
ATOM      4  C   UNL     1      33.604 -15.456 -23.894  0.00  0.00    +0.086 C 
ATOM      5  C   UNL     1      33.838 -14.700 -22.584  0.00  0.00    +0.037 C 
ATOM      6  C   UNL     1      34.770 -16.418 -24.134  0.00  0.00    +0.037 C 
ATOM      7  C   UNL     1      34.589 -14.785 -20.207  0.00  0.00    +0.018 C 
ATOM      8  C   UNL     1      32.660 -16.185 -20.913  0.00  0.00    +0.018 C 
ATOM      9  C   UNL     1      36.371 -18.070 -23.171  0.00  0.00    +0.018 C 
ATOM     10  C   UNL     1      33.933 -18.531 -23.029  0.00  0.00    +0.018 C 
ENDROOT
BRANCH   4  13
ATOM     11  O   UNL     1      34.050 -12.547 -23.899  0.00  0.00    -0.269 OA
ATOM     12  O   UNL     1      32.868 -16.057 -26.662  0.00  0.00    -0.269 OA
ATOM     13  N   UNL     1      33.473 -14.532 -24.997  0.00  0.00    -0.224 N 
ATOM     14  C   UNL     1      33.708 -13.176 -24.891  0.00  0.00    +0.255 C 
ATOM     15  C   UNL     1      33.118 -14.926 -26.271  0.00  0.00    +0.255 C 
ATOM     16  C   UNL     1      33.478 -12.554 -26.238  0.00  0.00    +0.063 C 
ATOM     17  C   UNL     1      33.085 -13.707 -27.147  0.00  0.00    +0.063 C 
ENDBRANCH   4  13
BRANCH   1  18
ATOM     18  O   UNL     1      35.239 -17.561 -20.577  0.00  0.00    -0.311 OA
ATOM     19  H   UNL     1      36.189 -17.662 -20.407  0.00  0.00    +0.237 HD
ENDBRANCH   1  18
TORSDOF 2
ENDMDL
MODEL 9
REMARK VINA RESULT:      -6.7     16.018     18.625
REMARK  Name = 19989057
REMARK  2 active torsions:
REMARK  status: ('A' for Active; 'I' for Inactive)
REMARK    1  A    between atoms: N_1  and  O_18
REMARK    2  A    between atoms: C_4  and  N_13
REMARK                            x       y       z     vdW  Elec       q    Type
REMARK                         _______ _______ _______ _____ _____    ______ ____
ROOT
ATOM      1  N   UNL     1      32.962  -6.565 -23.690  0.00  0.00    -0.175 NA
ATOM      2  C   UNL     1      33.838  -7.749 -23.716  0.00  0.00    +0.071 C 
ATOM      3  C   UNL     1      31.520  -6.694 -23.419  0.00  0.00    +0.071 C 
ATOM      4  C   UNL     1      32.073  -8.920 -22.265  0.00  0.00    +0.086 C 
ATOM      5  C   UNL     1      33.560  -8.624 -22.469  0.00  0.00    +0.037 C 
ATOM      6  C   UNL     1      31.306  -7.597 -22.180  0.00  0.00    +0.037 C 
ATOM      7  C   UNL     1      35.299  -7.249 -23.611  0.00  0.00    +0.018 C 
ATOM      8  C   UNL     1      33.746  -8.616 -24.988  0.00  0.00    +0.018 C 
ATOM      9  C   UNL     1      30.987  -5.286 -23.059  0.00  0.00    +0.018 C 
ATOM     10  C   UNL     1      30.667  -7.214 -24.595  0.00  0.00    +0.018 C 
ENDROOT
BRANCH   4  13
ATOM     11  O   UNL     1      32.280  -8.051 -19.461  0.00  0.00    -0.269 OA
ATOM     12  O   UNL     1      31.317 -11.741 -22.071  0.00  0.00    -0.269 OA
ATOM     13  N   UNL     1      31.869  -9.702 -21.068  0.00  0.00    -0.224 N 
ATOM     14  C   UNL     1      31.993  -9.194 -19.791  0.00  0.00    +0.255 C 
ATOM     15  C   UNL     1      31.512 -11.035 -21.091  0.00  0.00    +0.255 C 
ATOM     16  C   UNL     1      31.702 -10.298 -18.816  0.00  0.00    +0.063 C 
ATOM     17  C   UNL     1      31.389 -11.513 -19.674  0.00  0.00    +0.063 C 
ENDBRANCH   4  13
BRANCH   1  18
ATOM     18  O   UNL     1      33.195  -5.729 -24.847  0.00  0.00    -0.311 OA
ATOM     19  H   UNL     1      33.985  -6.039 -25.317  0.00  0.00    +0.237 HD
ENDBRANCH   1  18
TORSDOF 2
ENDMDL
