MODEL 1
REMARK VINA RESULT:      -9.9      0.000      0.000
REMARK  Name = 6541406
REMARK  5 active torsions:
REMARK  status: ('A' for Active; 'I' for Inactive)
REMARK    1  A    between atoms: N_2  and  C_5
REMARK    2  A    between atoms: C_3  and  C_15
REMARK    3  A    between atoms: C_15  and  N_16
REMARK    4  A    between atoms: C_15  and  C_20
REMARK    5  A    between atoms: C_20  and  C_23
REMARK                            x       y       z     vdW  Elec       q    Type
REMARK                         _______ _______ _______ _____ _____    ______ ____
ROOT
ATOM      1  O   UNL     1      34.820 -15.070 -20.445  0.00  0.00    -0.277 OA
ATOM      2  N   UNL     1      34.281 -16.651 -22.100  0.00  0.00    -0.286 N 
ATOM      3  C   UNL     1      34.356 -15.364 -21.544  0.00  0.00    +0.206 C 
ATOM      4  H   UNL     1      33.898 -16.706 -23.006  0.00  0.00    +0.155 HD
ENDROOT
BRANCH   2   5
ATOM      5  C   UNL     1      34.680 -17.862 -21.533  0.00  0.00    +0.050 C 
ATOM      6  C   UNL     1      34.111 -19.961 -20.442  0.00  0.00    +0.001 C 
ATOM      7  C   UNL     1      35.484 -20.297 -20.388  0.00  0.00    +0.000 C 
ATOM      8  C   UNL     1      33.724 -18.739 -21.020  0.00  0.00    +0.015 C 
ATOM      9  C   UNL     1      36.031 -18.191 -21.477  0.00  0.00    +0.015 C 
ATOM     10  C   UNL     1      36.431 -19.401 -20.909  0.00  0.00    +0.001 C 
ATOM     11  C   UNL     1      33.163 -20.856 -19.921  0.00  0.00    +0.000 C 
ATOM     12  C   UNL     1      35.870 -21.519 -19.812  0.00  0.00    +0.000 C 
ATOM     13  C   UNL     1      33.564 -22.066 -19.353  0.00  0.00    +0.000 C 
ATOM     14  C   UNL     1      34.914 -22.396 -19.297  0.00  0.00    +0.000 C 
ENDBRANCH   2   5
BRANCH   3  15
ATOM     15  C   UNL     1      33.810 -14.295 -22.494  0.00  0.00    +0.019 C 
BRANCH  15  16
ATOM     16  N   UNL     1      32.670 -13.669 -21.823  0.00  0.00    +0.388 N 
ATOM     17  H   UNL     1      32.680 -13.919 -20.834  0.00  0.00    -0.089 HD
ATOM     18  H   UNL     1      31.803 -14.000 -22.247  0.00  0.00    -0.089 HD
ATOM     19  H   UNL     1      32.731 -12.656 -21.919  0.00  0.00    -0.089 HD
ENDBRANCH  15  16
BRANCH  15  20
ATOM     20  C   UNL     1      33.354 -14.922 -23.821  0.00  0.00    +0.029 C 
BRANCH  20  23
ATOM     21  N   UNL     1      33.117 -14.323 -26.227  0.00  0.00    -0.319 N 
ATOM     22  N   UNL     1      33.623 -12.162 -26.290  0.00  0.00    -0.315 N 
ATOM     23  C   UNL     1      33.407 -13.942 -24.972  0.00  0.00    +0.036 C 
ATOM     24  C   UNL     1      33.716 -12.630 -25.004  0.00  0.00    +0.069 C 
ATOM     25  C   UNL     1      33.261 -13.205 -27.002  0.00  0.00    +0.182 C 
ATOM     26  H   UNL     1      32.854 -15.222 -26.527  0.00  0.00    +0.148 HD
ATOM     27  H   UNL     1      33.792 -11.245 -26.610  0.00  0.00    +0.148 HD
ENDBRANCH  20  23
ENDBRANCH  15  20
ENDBRANCH   3  15
TORSDOF 5
ENDMDL
MODEL 2
REMARK VINA RESULT:      -9.7      1.773      2.570
REMARK  Name = 6541406
REMARK  5 active torsions:
REMARK  status: ('A' for Active; 'I' for Inactive)
REMARK    1  A    between atoms: N_2  and  C_5
REMARK    2  A    between atoms: C_3  and  C_15
REMARK    3  A    between atoms: C_15  and  N_16
REMARK    4  A    between atoms: C_15  and  C_20
REMARK    5  A    between atoms: C_20  and  C_23
REMARK                            x       y       z     vdW  Elec       q    Type
REMARK                         _______ _______ _______ _____ _____    ______ ____
ROOT
ATOM      1  O   UNL     1      34.777 -17.476 -24.800  0.00  0.00    -0.277 OA
ATOM      2  N   UNL     1      34.175 -16.938 -22.591  0.00  0.00    -0.286 N 
ATOM      3  C   UNL     1      34.267 -16.722 -23.976  0.00  0.00    +0.206 C 
ATOM      4  H   UNL     1      33.710 -16.238 -22.077  0.00  0.00    +0.155 HD
ENDROOT
BRANCH   2   5
ATOM      5  C   UNL     1      34.657 -18.019 -21.853  0.00  0.00    +0.050 C 
ATOM      6  C   UNL     1      34.234 -20.014 -20.525  0.00  0.00    +0.001 C 
ATOM      7  C   UNL     1      35.628 -20.192 -20.362  0.00  0.00    +0.000 C 
ATOM      8  C   UNL     1      33.764 -18.922 -21.275  0.00  0.00    +0.015 C 
ATOM      9  C   UNL     1      36.028 -18.194 -21.691  0.00  0.00    +0.015 C 
ATOM     10  C   UNL     1      36.511 -19.274 -20.951  0.00  0.00    +0.001 C 
ATOM     11  C   UNL     1      33.349 -20.932 -19.937  0.00  0.00    +0.000 C 
ATOM     12  C   UNL     1      36.097 -21.285 -19.614  0.00  0.00    +0.000 C 
ATOM     13  C   UNL     1      33.833 -22.012 -19.197  0.00  0.00    +0.000 C 
ATOM     14  C   UNL     1      35.204 -22.187 -19.035  0.00  0.00    +0.000 C 
ENDBRANCH   2   5
BRANCH   3  15
ATOM     15  C   UNL     1      33.606 -15.406 -24.397  0.00  0.00    +0.019 C 
BRANCH  15  16
ATOM     16  N   UNL     1      33.813 -15.268 -25.839  0.00  0.00    +0.388 N 
ATOM     17  H   UNL     1      34.083 -16.170 -26.231  0.00  0.00    -0.089 HD
ATOM     18  H   UNL     1      34.553 -14.587 -26.013  0.00  0.00    -0.089 HD
ATOM     19  H   UNL     1      32.949 -14.951 -26.278  0.00  0.00    -0.089 HD
ENDBRANCH  15  16
BRANCH  15  20
ATOM     20  C   UNL     1      34.242 -14.214 -23.663  0.00  0.00    +0.029 C 
BRANCH  20  23
ATOM     21  N   UNL     1      33.080 -12.037 -23.324  0.00  0.00    -0.319 N 
ATOM     22  N   UNL     1      31.582 -12.474 -21.744  0.00  0.00    -0.315 N 
ATOM     23  C   UNL     1      33.212 -13.333 -22.992  0.00  0.00    +0.036 C 
ATOM     24  C   UNL     1      32.305 -13.603 -22.033  0.00  0.00    +0.069 C 
ATOM     25  C   UNL     1      32.074 -11.549 -22.538  0.00  0.00    +0.182 C 
ATOM     26  H   UNL     1      33.602 -11.541 -23.995  0.00  0.00    +0.148 HD
ATOM     27  H   UNL     1      30.855 -12.377 -21.086  0.00  0.00    +0.148 HD
ENDBRANCH  20  23
ENDBRANCH  15  20
ENDBRANCH   3  15
TORSDOF 5
ENDMDL
MODEL 3
REMARK VINA RESULT:      -9.4      6.092     10.760
REMARK  Name = 6541406
REMARK  5 active torsions:
REMARK  status: ('A' for Active; 'I' for Inactive)
REMARK    1  A    between atoms: N_2  and  C_5
REMARK    2  A    between atoms: C_3  and  C_15
REMARK    3  A    between atoms: C_15  and  N_16
REMARK    4  A    between atoms: C_15  and  C_20
REMARK    5  A    between atoms: C_20  and  C_23
REMARK                            x       y       z     vdW  Elec       q    Type
REMARK                         _______ _______ _______ _____ _____    ______ ____
ROOT
ATOM      1  O   UNL     1      36.868 -21.695 -16.192  0.00  0.00    -0.277 OA
ATOM      2  N   UNL     1      35.271 -22.874 -17.452  0.00  0.00    -0.286 N 
ATOM      3  C   UNL     1      36.180 -22.692 -16.398  0.00  0.00    +0.206 C 
ATOM      4  H   UNL     1      34.782 -23.729 -17.454  0.00  0.00    +0.155 HD
ENDROOT
BRANCH   2   5
ATOM      5  C   UNL     1      34.972 -21.998 -18.496  0.00  0.00    +0.050 C 
ATOM      6  C   UNL     1      35.701 -20.356 -20.136  0.00  0.00    +0.001 C 
ATOM      7  C   UNL     1      34.368 -20.232 -20.594  0.00  0.00    +0.000 C 
ATOM      8  C   UNL     1      35.987 -21.245 -19.085  0.00  0.00    +0.015 C 
ATOM      9  C   UNL     1      33.661 -21.875 -18.945  0.00  0.00    +0.015 C 
ATOM     10  C   UNL     1      33.360 -20.998 -19.989  0.00  0.00    +0.001 C 
ATOM     11  C   UNL     1      36.710 -19.590 -20.741  0.00  0.00    +0.000 C 
ATOM     12  C   UNL     1      34.083 -19.344 -21.645  0.00  0.00    +0.000 C 
ATOM     13  C   UNL     1      36.409 -18.713 -21.784  0.00  0.00    +0.000 C 
ATOM     14  C   UNL     1      35.098 -18.590 -22.234  0.00  0.00    +0.000 C 
ENDBRANCH   2   5
BRANCH   3  15
ATOM     15  C   UNL     1      36.215 -23.897 -15.454  0.00  0.00    +0.019 C 
BRANCH  15  16
ATOM     16  N   UNL     1      34.854 -24.079 -14.945  0.00  0.00    +0.388 N 
ATOM     17  H   UNL     1      34.637 -23.334 -14.283  0.00  0.00    -0.089 HD
ATOM     18  H   UNL     1      34.785 -24.982 -14.474  0.00  0.00    -0.089 HD
ATOM     19  H   UNL     1      34.194 -24.048 -15.721  0.00  0.00    -0.089 HD
ENDBRANCH  15  16
BRANCH  15  20
ATOM     20  C   UNL     1      37.180 -23.649 -14.283  0.00  0.00    +0.029 C 
BRANCH  20  23
ATOM     21  N   UNL     1      39.189 -24.655 -15.358  0.00  0.00    -0.319 N 
ATOM     22  N   UNL     1      39.930 -26.105 -13.849  0.00  0.00    -0.315 N 
ATOM     23  C   UNL     1      38.363 -24.591 -14.300  0.00  0.00    +0.036 C 
ATOM     24  C   UNL     1      38.807 -25.470 -13.381  0.00  0.00    +0.069 C 
ATOM     25  C   UNL     1      40.132 -25.592 -15.042  0.00  0.00    +0.182 C 
ATOM     26  H   UNL     1      39.127 -24.133 -16.190  0.00  0.00    +0.148 HD
ATOM     27  H   UNL     1      40.465 -26.795 -13.392  0.00  0.00    +0.148 HD
ENDBRANCH  20  23
ENDBRANCH  15  20
ENDBRANCH   3  15
TORSDOF 5
ENDMDL
MODEL 4
REMARK VINA RESULT:      -9.3      2.407      8.262
REMARK  Name = 6541406
REMARK  5 active torsions:
REMARK  status: ('A' for Active; 'I' for Inactive)
REMARK    1  A    between atoms: N_2  and  C_5
REMARK    2  A    between atoms: C_3  and  C_15
REMARK    3  A    between atoms: C_15  and  N_16
REMARK    4  A    between atoms: C_15  and  C_20
REMARK    5  A    between atoms: C_20  and  C_23
REMARK                            x       y       z     vdW  Elec       q    Type
REMARK                         _______ _______ _______ _____ _____    ______ ____
ROOT
ATOM      1  O   UNL     1      35.163 -16.437 -20.239  0.00  0.00    -0.277 OA
ATOM      2  N   UNL     1      34.357 -16.193 -22.435  0.00  0.00    -0.286 N 
ATOM      3  C   UNL     1      35.030 -16.846 -21.390  0.00  0.00    +0.206 C 
ATOM      4  H   UNL     1      34.325 -16.675 -23.293  0.00  0.00    +0.155 HD
ENDROOT
BRANCH   2   5
ATOM      5  C   UNL     1      33.727 -14.948 -22.411  0.00  0.00    +0.050 C 
ATOM      6  C   UNL     1      33.513 -12.684 -23.277  0.00  0.00    +0.001 C 
ATOM      7  C   UNL     1      32.462 -12.441 -22.361  0.00  0.00    +0.000 C 
ATOM      8  C   UNL     1      34.135 -13.944 -23.290  0.00  0.00    +0.015 C 
ATOM      9  C   UNL     1      32.695 -14.708 -21.510  0.00  0.00    +0.015 C 
ATOM     10  C   UNL     1      32.065 -13.463 -21.484  0.00  0.00    +0.001 C 
ATOM     11  C   UNL     1      33.910 -11.663 -24.154  0.00  0.00    +0.000 C 
ATOM     12  C   UNL     1      31.839 -11.182 -22.349  0.00  0.00    +0.000 C 
ATOM     13  C   UNL     1      33.280 -10.417 -24.129  0.00  0.00    +0.000 C 
ATOM     14  C   UNL     1      32.248 -10.178 -23.227  0.00  0.00    +0.000 C 
ENDBRANCH   2   5
BRANCH   3  15
ATOM     15  C   UNL     1      35.585 -18.206 -21.825  0.00  0.00    +0.019 C 
BRANCH  15  16
ATOM     16  N   UNL     1      35.861 -18.114 -23.260  0.00  0.00    +0.388 N 
ATOM     17  H   UNL     1      35.191 -17.480 -23.695  0.00  0.00    -0.089 HD
ATOM     18  H   UNL     1      35.776 -19.039 -23.682  0.00  0.00    -0.089 HD
ATOM     19  H   UNL     1      36.806 -17.760 -23.402  0.00  0.00    -0.089 HD
ENDBRANCH  15  16
BRANCH  15  20
ATOM     20  C   UNL     1      34.563 -19.323 -21.561  0.00  0.00    +0.029 C 
BRANCH  20  23
ATOM     21  N   UNL     1      36.301 -20.291 -20.061  0.00  0.00    -0.319 N 
ATOM     22  N   UNL     1      35.220 -21.883 -18.952  0.00  0.00    -0.315 N 
ATOM     23  C   UNL     1      35.030 -20.293 -20.498  0.00  0.00    +0.036 C 
ATOM     24  C   UNL     1      34.369 -21.258 -19.829  0.00  0.00    +0.069 C 
ATOM     25  C   UNL     1      36.375 -21.277 -19.117  0.00  0.00    +0.182 C 
ATOM     26  H   UNL     1      37.029 -19.700 -20.359  0.00  0.00    +0.148 HD
ATOM     27  H   UNL     1      35.012 -22.622 -18.336  0.00  0.00    +0.148 HD
ENDBRANCH  20  23
ENDBRANCH  15  20
ENDBRANCH   3  15
TORSDOF 5
ENDMDL
MODEL 5
REMARK VINA RESULT:      -9.3      2.661      8.069
REMARK  Name = 6541406
REMARK  5 active torsions:
REMARK  status: ('A' for Active; 'I' for Inactive)
REMARK    1  A    between atoms: N_2  and  C_5
REMARK    2  A    between atoms: C_3  and  C_15
REMARK    3  A    between atoms: C_15  and  N_16
REMARK    4  A    between atoms: C_15  and  C_20
REMARK    5  A    between atoms: C_20  and  C_23
REMARK                            x       y       z     vdW  Elec       q    Type
REMARK                         _______ _______ _______ _____ _____    ______ ____
ROOT
ATOM      1  O   UNL     1      35.177 -16.414 -20.280  0.00  0.00    -0.277 OA
ATOM      2  N   UNL     1      33.973 -16.461 -22.300  0.00  0.00    -0.286 N 
ATOM      3  C   UNL     1      34.726 -17.015 -21.252  0.00  0.00    +0.206 C 
ATOM      4  H   UNL     1      33.669 -17.094 -22.991  0.00  0.00    +0.155 HD
ENDROOT
BRANCH   2   5
ATOM      5  C   UNL     1      33.601 -15.130 -22.485  0.00  0.00    +0.050 C 
ATOM      6  C   UNL     1      32.378 -13.165 -21.735  0.00  0.00    +0.001 C 
ATOM      7  C   UNL     1      32.848 -12.451 -22.862  0.00  0.00    +0.000 C 
ATOM      8  C   UNL     1      32.765 -14.505 -21.560  0.00  0.00    +0.015 C 
ATOM      9  C   UNL     1      34.062 -14.428 -23.595  0.00  0.00    +0.015 C 
ATOM     10  C   UNL     1      33.689 -13.096 -23.782  0.00  0.00    +0.001 C 
ATOM     11  C   UNL     1      31.537 -12.520 -20.813  0.00  0.00    +0.000 C 
ATOM     12  C   UNL     1      32.462 -11.111 -23.035  0.00  0.00    +0.000 C 
ATOM     13  C   UNL     1      31.164 -11.188 -21.001  0.00  0.00    +0.000 C 
ATOM     14  C   UNL     1      31.625 -10.486 -22.110  0.00  0.00    +0.000 C 
ENDBRANCH   2   5
BRANCH   3  15
ATOM     15  C   UNL     1      34.916 -18.526 -21.417  0.00  0.00    +0.019 C 
BRANCH  15  16
ATOM     16  N   UNL     1      35.237 -18.764 -22.826  0.00  0.00    +0.388 N 
ATOM     17  H   UNL     1      34.762 -18.071 -23.404  0.00  0.00    -0.089 HD
ATOM     18  H   UNL     1      34.926 -19.698 -23.092  0.00  0.00    -0.089 HD
ATOM     19  H   UNL     1      36.244 -18.688 -22.963  0.00  0.00    -0.089 HD
ENDBRANCH  15  16
BRANCH  15  20
ATOM     20  C   UNL     1      33.634 -19.284 -21.039  0.00  0.00    +0.029 C 
BRANCH  20  23
ATOM     21  N   UNL     1      32.915 -21.161 -19.568  0.00  0.00    -0.319 N 
ATOM     22  N   UNL     1      34.816 -22.174 -19.030  0.00  0.00    -0.315 N 
ATOM     23  C   UNL     1      33.911 -20.493 -20.174  0.00  0.00    +0.036 C 
ATOM     24  C   UNL     1      35.068 -21.103 -19.850  0.00  0.00    +0.069 C 
ATOM     25  C   UNL     1      33.511 -22.180 -18.879  0.00  0.00    +0.182 C 
ATOM     26  H   UNL     1      31.953 -20.957 -19.611  0.00  0.00    +0.148 HD
ATOM     27  H   UNL     1      35.470 -22.799 -18.639  0.00  0.00    +0.148 HD
ENDBRANCH  20  23
ENDBRANCH  15  20
ENDBRANCH   3  15
TORSDOF 5
ENDMDL
MODEL 6
REMARK VINA RESULT:      -9.2      1.778      3.253
REMARK  Name = 6541406
REMARK  5 active torsions:
REMARK  status: ('A' for Active; 'I' for Inactive)
REMARK    1  A    between atoms: N_2  and  C_5
REMARK    2  A    between atoms: C_3  and  C_15
REMARK    3  A    between atoms: C_15  and  N_16
REMARK    4  A    between atoms: C_15  and  C_20
REMARK    5  A    between atoms: C_20  and  C_23
REMARK                            x       y       z     vdW  Elec       q    Type
REMARK                         _______ _______ _______ _____ _____    ______ ____
ROOT
ATOM      1  O   UNL     1      35.267 -17.415 -20.714  0.00  0.00    -0.277 OA
ATOM      2  N   UNL     1      34.866 -19.564 -21.580  0.00  0.00    -0.286 N 
ATOM      3  C   UNL     1      34.990 -18.167 -21.645  0.00  0.00    +0.206 C 
ATOM      4  H   UNL     1      34.661 -20.018 -22.430  0.00  0.00    +0.155 HD
ENDROOT
BRANCH   2   5
ATOM      5  C   UNL     1      34.996 -20.391 -20.464  0.00  0.00    +0.050 C 
ATOM      6  C   UNL     1      33.981 -21.824 -18.780  0.00  0.00    +0.001 C 
ATOM      7  C   UNL     1      35.259 -22.053 -18.215  0.00  0.00    +0.000 C 
ATOM      8  C   UNL     1      33.867 -20.991 -19.906  0.00  0.00    +0.015 C 
ATOM      9  C   UNL     1      36.252 -20.615 -19.908  0.00  0.00    +0.015 C 
ATOM     10  C   UNL     1      36.383 -21.441 -18.791  0.00  0.00    +0.001 C 
ATOM     11  C   UNL     1      32.856 -22.436 -18.205  0.00  0.00    +0.000 C 
ATOM     12  C   UNL     1      35.373 -22.888 -17.091  0.00  0.00    +0.000 C 
ATOM     13  C   UNL     1      32.988 -23.263 -17.088  0.00  0.00    +0.000 C 
ATOM     14  C   UNL     1      34.243 -23.487 -16.532  0.00  0.00    +0.000 C 
ENDBRANCH   2   5
BRANCH   3  15
ATOM     15  C   UNL     1      34.774 -17.637 -23.066  0.00  0.00    +0.019 C 
BRANCH  15  16
ATOM     16  N   UNL     1      35.578 -18.472 -23.959  0.00  0.00    +0.388 N 
ATOM     17  H   UNL     1      34.974 -19.150 -24.425  0.00  0.00    -0.089 HD
ATOM     18  H   UNL     1      36.287 -18.966 -23.417  0.00  0.00    -0.089 HD
ATOM     19  H   UNL     1      36.033 -17.885 -24.657  0.00  0.00    -0.089 HD
ENDBRANCH  15  16
BRANCH  15  20
ATOM     20  C   UNL     1      35.223 -16.171 -23.178  0.00  0.00    +0.029 C 
BRANCH  20  23
ATOM     21  N   UNL     1      33.545 -14.923 -21.825  0.00  0.00    -0.319 N 
ATOM     22  N   UNL     1      32.426 -13.734 -23.330  0.00  0.00    -0.315 N 
ATOM     23  C   UNL     1      34.073 -15.201 -23.029  0.00  0.00    +0.036 C 
ATOM     24  C   UNL     1      33.397 -14.483 -23.947  0.00  0.00    +0.069 C 
ATOM     25  C   UNL     1      32.542 -14.023 -22.053  0.00  0.00    +0.182 C 
ATOM     26  H   UNL     1      33.825 -15.293 -20.956  0.00  0.00    +0.148 HD
ATOM     27  H   UNL     1      31.784 -13.118 -23.751  0.00  0.00    +0.148 HD
ENDBRANCH  20  23
ENDBRANCH  15  20
ENDBRANCH   3  15
TORSDOF 5
ENDMDL
MODEL 7
REMARK VINA RESULT:      -9.2      3.143      4.791
REMARK  Name = 6541406
REMARK  5 active torsions:
REMARK  status: ('A' for Active; 'I' for Inactive)
REMARK    1  A    between atoms: N_2  and  C_5
REMARK    2  A    between atoms: C_3  and  C_15
REMARK    3  A    between atoms: C_15  and  N_16
REMARK    4  A    between atoms: C_15  and  C_20
REMARK    5  A    between atoms: C_20  and  C_23
REMARK                            x       y       z     vdW  Elec       q    Type
REMARK                         _______ _______ _______ _____ _____    ______ ____
ROOT
ATOM      1  O   UNL     1      32.410 -12.238 -22.745  0.00  0.00    -0.277 OA
ATOM      2  N   UNL     1      34.236 -13.248 -23.830  0.00  0.00    -0.286 N 
ATOM      3  C   UNL     1      33.286 -12.238 -23.606  0.00  0.00    +0.206 C 
ATOM      4  H   UNL     1      34.885 -13.075 -24.550  0.00  0.00    +0.155 HD
ENDROOT
BRANCH   2   5
ATOM      5  C   UNL     1      34.377 -14.464 -23.161  0.00  0.00    +0.050 C 
ATOM      6  C   UNL     1      34.645 -16.881 -23.228  0.00  0.00    +0.001 C 
ATOM      7  C   UNL     1      34.657 -16.912 -21.813  0.00  0.00    +0.000 C 
ATOM      8  C   UNL     1      34.505 -15.648 -23.887  0.00  0.00    +0.015 C 
ATOM      9  C   UNL     1      34.387 -14.495 -21.770  0.00  0.00    +0.015 C 
ATOM     10  C   UNL     1      34.527 -15.711 -21.099  0.00  0.00    +0.001 C 
ATOM     11  C   UNL     1      34.775 -18.082 -23.943  0.00  0.00    +0.000 C 
ATOM     12  C   UNL     1      34.798 -18.145 -21.155  0.00  0.00    +0.000 C 
ATOM     13  C   UNL     1      34.915 -19.299 -23.273  0.00  0.00    +0.000 C 
ATOM     14  C   UNL     1      34.925 -19.329 -21.881  0.00  0.00    +0.000 C 
ENDBRANCH   2   5
BRANCH   3  15
ATOM     15  C   UNL     1      33.472 -11.053 -24.559  0.00  0.00    +0.019 C 
BRANCH  15  16
ATOM     16  N   UNL     1      34.153 -11.566 -25.749  0.00  0.00    +0.388 N 
ATOM     17  H   UNL     1      34.573 -12.471 -25.536  0.00  0.00    -0.089 HD
ATOM     18  H   UNL     1      34.883 -10.912 -26.031  0.00  0.00    -0.089 HD
ATOM     19  H   UNL     1      33.480 -11.673 -26.507  0.00  0.00    -0.089 HD
ENDBRANCH  15  16
BRANCH  15  20
ATOM     20  C   UNL     1      34.322  -9.952 -23.905  0.00  0.00    +0.029 C 
BRANCH  20  23
ATOM     21  N   UNL     1      32.141  -8.974 -23.204  0.00  0.00    -0.319 N 
ATOM     22  N   UNL     1      32.697  -7.019 -22.311  0.00  0.00    -0.315 N 
ATOM     23  C   UNL     1      33.478  -8.860 -23.288  0.00  0.00    +0.036 C 
ATOM     24  C   UNL     1      33.821  -7.675 -22.747  0.00  0.00    +0.069 C 
ATOM     25  C   UNL     1      31.704  -7.828 -22.601  0.00  0.00    +0.182 C 
ATOM     26  H   UNL     1      31.591  -9.729 -23.514  0.00  0.00    +0.148 HD
ATOM     27  H   UNL     1      32.647  -6.136 -21.877  0.00  0.00    +0.148 HD
ENDBRANCH  20  23
ENDBRANCH  15  20
ENDBRANCH   3  15
TORSDOF 5
ENDMDL
MODEL 8
REMARK VINA RESULT:      -9.1      3.871      6.211
REMARK  Name = 6541406
REMARK  5 active torsions:
REMARK  status: ('A' for Active; 'I' for Inactive)
REMARK    1  A    between atoms: N_2  and  C_5
REMARK    2  A    between atoms: C_3  and  C_15
REMARK    3  A    between atoms: C_15  and  N_16
REMARK    4  A    between atoms: C_15  and  C_20
REMARK    5  A    between atoms: C_20  and  C_23
REMARK                            x       y       z     vdW  Elec       q    Type
REMARK                         _______ _______ _______ _____ _____    ______ ____
ROOT
ATOM      1  O   UNL     1      34.747 -11.057 -25.568  0.00  0.00    -0.277 OA
ATOM      2  N   UNL     1      33.369 -12.170 -24.021  0.00  0.00    -0.286 N 
ATOM      3  C   UNL     1      33.943 -11.047 -24.639  0.00  0.00    +0.206 C 
ATOM      4  H   UNL     1      32.722 -11.981 -23.303  0.00  0.00    +0.155 HD
ENDROOT
BRANCH   2   5
ATOM      5  C   UNL     1      33.598 -13.518 -24.296  0.00  0.00    +0.050 C 
ATOM      6  C   UNL     1      34.492 -15.679 -23.624  0.00  0.00    +0.001 C 
ATOM      7  C   UNL     1      34.061 -16.232 -24.853  0.00  0.00    +0.000 C 
ATOM      8  C   UNL     1      34.251 -14.319 -23.360  0.00  0.00    +0.015 C 
ATOM      9  C   UNL     1      33.176 -14.062 -25.506  0.00  0.00    +0.015 C 
ATOM     10  C   UNL     1      33.405 -15.410 -25.783  0.00  0.00    +0.001 C 
ATOM     11  C   UNL     1      35.148 -16.500 -22.693  0.00  0.00    +0.000 C 
ATOM     12  C   UNL     1      34.301 -17.591 -25.116  0.00  0.00    +0.000 C 
ATOM     13  C   UNL     1      35.377 -17.848 -22.970  0.00  0.00    +0.000 C 
ATOM     14  C   UNL     1      34.955 -18.392 -24.179  0.00  0.00    +0.000 C 
ENDBRANCH   2   5
BRANCH   3  15
ATOM     15  C   UNL     1      33.424  -9.735 -24.044  0.00  0.00    +0.019 C 
BRANCH  15  16
ATOM     16  N   UNL     1      34.597  -8.925 -23.710  0.00  0.00    +0.388 N 
ATOM     17  H   UNL     1      34.612  -8.091 -24.296  0.00  0.00    -0.089 HD
ATOM     18  H   UNL     1      35.444  -9.470 -23.873  0.00  0.00    -0.089 HD
ATOM     19  H   UNL     1      34.553  -8.651 -22.729  0.00  0.00    -0.089 HD
ENDBRANCH  15  16
BRANCH  15  20
ATOM     20  C   UNL     1      32.595  -9.998 -22.777  0.00  0.00    +0.029 C 
BRANCH  20  23
ATOM     21  N   UNL     1      32.638  -8.604 -20.713  0.00  0.00    -0.319 N 
ATOM     22  N   UNL     1      31.659  -6.709 -21.330  0.00  0.00    -0.315 N 
ATOM     23  C   UNL     1      32.298  -8.731 -22.007  0.00  0.00    +0.036 C 
ATOM     24  C   UNL     1      31.702  -7.584 -22.387  0.00  0.00    +0.069 C 
ATOM     25  C   UNL     1      32.230  -7.355 -20.338  0.00  0.00    +0.182 C 
ATOM     26  H   UNL     1      33.090  -9.274 -20.151  0.00  0.00    +0.148 HD
ATOM     27  H   UNL     1      31.282  -5.800 -21.318  0.00  0.00    +0.148 HD
ENDBRANCH  20  23
ENDBRANCH  15  20
ENDBRANCH   3  15
TORSDOF 5
ENDMDL
MODEL 9
REMARK VINA RESULT:      -9.1      6.074     10.692
REMARK  Name = 6541406
REMARK  5 active torsions:
REMARK  status: ('A' for Active; 'I' for Inactive)
REMARK    1  A    between atoms: N_2  and  C_5
REMARK    2  A    between atoms: C_3  and  C_15
REMARK    3  A    between atoms: C_15  and  N_16
REMARK    4  A    between atoms: C_15  and  C_20
REMARK    5  A    between atoms: C_20  and  C_23
REMARK                            x       y       z     vdW  Elec       q    Type
REMARK                         _______ _______ _______ _____ _____    ______ ____
ROOT
ATOM      1  O   UNL     1      32.693 -23.048 -16.769  0.00  0.00    -0.277 OA
ATOM      2  N   UNL     1      34.892 -22.755 -17.551  0.00  0.00    -0.286 N 
ATOM      3  C   UNL     1      33.901 -23.265 -16.698  0.00  0.00    +0.206 C 
ATOM      4  H   UNL     1      35.813 -23.051 -17.365  0.00  0.00    +0.155 HD
ENDROOT
BRANCH   2   5
ATOM      5  C   UNL     1      34.738 -21.883 -18.630  0.00  0.00    +0.050 C 
ATOM      6  C   UNL     1      35.704 -20.315 -20.220  0.00  0.00    +0.001 C 
ATOM      7  C   UNL     1      34.426 -20.125 -20.798  0.00  0.00    +0.000 C 
ATOM      8  C   UNL     1      35.843 -21.199 -19.136  0.00  0.00    +0.015 C 
ATOM      9  C   UNL     1      33.482 -21.695 -19.197  0.00  0.00    +0.015 C 
ATOM     10  C   UNL     1      33.326 -20.822 -20.275  0.00  0.00    +0.001 C 
ATOM     11  C   UNL     1      36.806 -19.619 -20.742  0.00  0.00    +0.000 C 
ATOM     12  C   UNL     1      34.288 -19.243 -21.882  0.00  0.00    +0.000 C 
ATOM     13  C   UNL     1      36.650 -18.746 -21.820  0.00  0.00    +0.000 C 
ATOM     14  C   UNL     1      35.393 -18.558 -22.388  0.00  0.00    +0.000 C 
ENDBRANCH   2   5
BRANCH   3  15
ATOM     15  C   UNL     1      34.484 -24.197 -15.632  0.00  0.00    +0.019 C 
BRANCH  15  16
ATOM     16  N   UNL     1      33.683 -24.013 -14.420  0.00  0.00    +0.388 N 
ATOM     17  H   UNL     1      32.743 -24.378 -14.576  0.00  0.00    -0.089 HD
ATOM     18  H   UNL     1      33.628 -23.019 -14.197  0.00  0.00    -0.089 HD
ATOM     19  H   UNL     1      34.118 -24.512 -13.645  0.00  0.00    -0.089 HD
ENDBRANCH  15  16
BRANCH  15  20
ATOM     20  C   UNL     1      35.953 -23.848 -15.343  0.00  0.00    +0.029 C 
BRANCH  20  23
ATOM     21  N   UNL     1      36.320 -26.294 -15.047  0.00  0.00    -0.319 N 
ATOM     22  N   UNL     1      38.218 -26.413 -13.902  0.00  0.00    -0.315 N 
ATOM     23  C   UNL     1      36.739 -25.035 -14.833  0.00  0.00    +0.036 C 
ATOM     24  C   UNL     1      37.891 -25.101 -14.137  0.00  0.00    +0.069 C 
ATOM     25  C   UNL     1      37.252 -27.105 -14.462  0.00  0.00    +0.182 C 
ATOM     26  H   UNL     1      35.508 -26.574 -15.528  0.00  0.00    +0.148 HD
ATOM     27  H   UNL     1      39.003 -26.759 -13.418  0.00  0.00    +0.148 HD
ENDBRANCH  20  23
ENDBRANCH  15  20
ENDBRANCH   3  15
TORSDOF 5
ENDMDL
