MODEL 1
REMARK VINA RESULT:      -6.7      0.000      0.000
REMARK  Name = 94214
REMARK  6 active torsions:
REMARK  status: ('A' for Active; 'I' for Inactive)
REMARK    1  A    between atoms: C_2  and  O_7
REMARK    2  A    between atoms: C_3  and  O_9
REMARK    3  A    between atoms: C_4  and  C_15
REMARK    4  A    between atoms: C_5  and  O_11
REMARK    5  A    between atoms: C_6  and  O_13
REMARK    6  A    between atoms: C_15  and  O_16
REMARK                            x       y       z     vdW  Elec       q    Type
REMARK                         _______ _______ _______ _____ _____    ______ ____
ROOT
ATOM      1  O   UNL     1      39.016 -24.713 -12.974  0.00  0.00    -0.326 OA
ATOM      2  C   UNL     1      37.950 -25.710 -14.915  0.00  0.00    +0.169 C 
ATOM      3  C   UNL     1      36.694 -25.976 -14.085  0.00  0.00    +0.172 C 
ATOM      4  C   UNL     1      39.181 -25.698 -14.003  0.00  0.00    +0.176 C 
ATOM      5  C   UNL     1      36.597 -25.006 -12.908  0.00  0.00    +0.196 C 
ATOM      6  C   UNL     1      37.906 -24.981 -12.117  0.00  0.00    +0.266 C 
ENDROOT
BRANCH   2   7
ATOM      7  O   UNL     1      37.837 -24.440 -15.561  0.00  0.00    -0.379 OA
ATOM      8  H   UNL     1      38.575 -24.324 -16.179  0.00  0.00    +0.211 HD
ENDBRANCH   2   7
BRANCH   3   9
ATOM      9  O   UNL     1      35.531 -25.845 -14.898  0.00  0.00    -0.379 OA
ATOM     10  H   UNL     1      34.774 -25.601 -14.343  0.00  0.00    +0.211 HD
ENDBRANCH   3   9
BRANCH   5  11
ATOM     11  O   UNL     1      35.549 -25.428 -12.036  0.00  0.00    -0.378 OA
ATOM     12  H   UNL     1      34.700 -25.378 -12.503  0.00  0.00    +0.211 HD
ENDBRANCH   5  11
BRANCH   6  13
ATOM     13  O   UNL     1      37.802 -23.956 -11.130  0.00  0.00    -0.326 OA
ATOM     14  C   UNL     1      37.504 -22.700 -11.720  0.00  0.00    +0.177 C 
ENDBRANCH   6  13
BRANCH   4  15
ATOM     15  C   UNL     1      40.460 -25.355 -14.758  0.00  0.00    +0.169 C 
BRANCH  15  16
ATOM     16  O   UNL     1      40.381 -25.912 -16.057  0.00  0.00    -0.379 OA
ATOM     17  H   UNL     1      40.989 -26.665 -16.123  0.00  0.00    +0.211 HD
ENDBRANCH  15  16
ENDBRANCH   4  15
TORSDOF 6
ENDMDL
MODEL 2
REMARK VINA RESULT:      -6.4      1.991      3.381
REMARK  Name = 94214
REMARK  6 active torsions:
REMARK  status: ('A' for Active; 'I' for Inactive)
REMARK    1  A    between atoms: C_2  and  O_7
REMARK    2  A    between atoms: C_3  and  O_9
REMARK    3  A    between atoms: C_4  and  C_15
REMARK    4  A    between atoms: C_5  and  O_11
REMARK    5  A    between atoms: C_6  and  O_13
REMARK    6  A    between atoms: C_15  and  O_16
REMARK                            x       y       z     vdW  Elec       q    Type
REMARK                         _______ _______ _______ _____ _____    ______ ____
ROOT
ATOM      1  O   UNL     1      36.769 -24.915 -14.410  0.00  0.00    -0.326 OA
ATOM      2  C   UNL     1      37.218 -25.257 -12.047  0.00  0.00    +0.169 C 
ATOM      3  C   UNL     1      35.971 -24.445 -11.696  0.00  0.00    +0.172 C 
ATOM      4  C   UNL     1      37.776 -24.791 -13.397  0.00  0.00    +0.176 C 
ATOM      5  C   UNL     1      34.958 -24.471 -12.839  0.00  0.00    +0.196 C 
ATOM      6  C   UNL     1      35.626 -24.096 -14.164  0.00  0.00    +0.266 C 
ENDROOT
BRANCH   2   7
ATOM      7  O   UNL     1      36.878 -26.642 -12.137  0.00  0.00    -0.379 OA
ATOM      8  H   UNL     1      36.178 -26.845 -11.497  0.00  0.00    +0.211 HD
ENDBRANCH   2   7
BRANCH   3   9
ATOM      9  O   UNL     1      35.362 -24.966 -10.518  0.00  0.00    -0.379 OA
ATOM     10  H   UNL     1      34.842 -25.754 -10.744  0.00  0.00    +0.211 HD
ENDBRANCH   3   9
BRANCH   5  11
ATOM     11  O   UNL     1      33.922 -23.526 -12.572  0.00  0.00    -0.378 OA
ATOM     12  H   UNL     1      33.702 -23.546 -11.627  0.00  0.00    +0.211 HD
ENDBRANCH   5  11
BRANCH   6  13
ATOM     13  O   UNL     1      34.669 -24.282 -15.205  0.00  0.00    -0.326 OA
ATOM     14  C   UNL     1      34.662 -23.183 -16.102  0.00  0.00    +0.177 C 
ENDBRANCH   6  13
BRANCH   4  15
ATOM     15  C   UNL     1      38.976 -25.618 -13.845  0.00  0.00    +0.169 C 
BRANCH  15  16
ATOM     16  O   UNL     1      38.506 -26.745 -14.562  0.00  0.00    -0.379 OA
ATOM     17  H   UNL     1      37.584 -26.921 -14.319  0.00  0.00    +0.211 HD
ENDBRANCH  15  16
ENDBRANCH   4  15
TORSDOF 6
ENDMDL
MODEL 3
REMARK VINA RESULT:      -6.4      1.818      3.769
REMARK  Name = 94214
REMARK  6 active torsions:
REMARK  status: ('A' for Active; 'I' for Inactive)
REMARK    1  A    between atoms: C_2  and  O_7
REMARK    2  A    between atoms: C_3  and  O_9
REMARK    3  A    between atoms: C_4  and  C_15
REMARK    4  A    between atoms: C_5  and  O_11
REMARK    5  A    between atoms: C_6  and  O_13
REMARK    6  A    between atoms: C_15  and  O_16
REMARK                            x       y       z     vdW  Elec       q    Type
REMARK                         _______ _______ _______ _____ _____    ______ ____
ROOT
ATOM      1  O   UNL     1      36.275 -23.811 -14.002  0.00  0.00    -0.326 OA
ATOM      2  C   UNL     1      38.163 -25.128 -13.227  0.00  0.00    +0.169 C 
ATOM      3  C   UNL     1      37.677 -26.312 -14.066  0.00  0.00    +0.172 C 
ATOM      4  C   UNL     1      36.970 -24.252 -12.829  0.00  0.00    +0.176 C 
ATOM      5  C   UNL     1      36.822 -25.838 -15.241  0.00  0.00    +0.196 C 
ATOM      6  C   UNL     1      35.725 -24.886 -14.763  0.00  0.00    +0.266 C 
ENDROOT
BRANCH   2   7
ATOM      7  O   UNL     1      39.081 -24.345 -13.991  0.00  0.00    -0.379 OA
ATOM      8  H   UNL     1      38.816 -23.413 -13.959  0.00  0.00    +0.211 HD
ENDBRANCH   2   7
BRANCH   3   9
ATOM      9  O   UNL     1      38.790 -27.050 -14.563  0.00  0.00    -0.379 OA
ATOM     10  H   UNL     1      39.455 -27.145 -13.862  0.00  0.00    +0.211 HD
ENDBRANCH   3   9
BRANCH   5  11
ATOM     11  O   UNL     1      36.205 -26.967 -15.858  0.00  0.00    -0.378 OA
ATOM     12  H   UNL     1      36.255 -26.876 -16.823  0.00  0.00    +0.211 HD
ENDBRANCH   5  11
BRANCH   6  13
ATOM     13  O   UNL     1      35.061 -24.369 -15.915  0.00  0.00    -0.326 OA
ATOM     14  C   UNL     1      33.959 -23.552 -15.554  0.00  0.00    +0.177 C 
ENDBRANCH   6  13
BRANCH   4  15
ATOM     15  C   UNL     1      37.396 -23.008 -12.058  0.00  0.00    +0.169 C 
BRANCH  15  16
ATOM     16  O   UNL     1      38.710 -23.206 -11.569  0.00  0.00    -0.379 OA
ATOM     17  H   UNL     1      39.342 -22.752 -12.148  0.00  0.00    +0.211 HD
ENDBRANCH  15  16
ENDBRANCH   4  15
TORSDOF 6
ENDMDL
MODEL 4
REMARK VINA RESULT:      -6.3      1.748      4.284
REMARK  Name = 94214
REMARK  6 active torsions:
REMARK  status: ('A' for Active; 'I' for Inactive)
REMARK    1  A    between atoms: C_2  and  O_7
REMARK    2  A    between atoms: C_3  and  O_9
REMARK    3  A    between atoms: C_4  and  C_15
REMARK    4  A    between atoms: C_5  and  O_11
REMARK    5  A    between atoms: C_6  and  O_13
REMARK    6  A    between atoms: C_15  and  O_16
REMARK                            x       y       z     vdW  Elec       q    Type
REMARK                         _______ _______ _______ _____ _____    ______ ____
ROOT
ATOM      1  O   UNL     1      35.773 -24.290 -13.437  0.00  0.00    -0.326 OA
ATOM      2  C   UNL     1      37.739 -25.167 -12.311  0.00  0.00    +0.169 C 
ATOM      3  C   UNL     1      38.009 -26.085 -13.504  0.00  0.00    +0.172 C 
ATOM      4  C   UNL     1      36.238 -24.874 -12.213  0.00  0.00    +0.176 C 
ATOM      5  C   UNL     1      37.392 -25.520 -14.783  0.00  0.00    +0.196 C 
ATOM      6  C   UNL     1      35.922 -25.158 -14.561  0.00  0.00    +0.266 C 
ENDROOT
BRANCH   2   7
ATOM      7  O   UNL     1      38.443 -23.936 -12.486  0.00  0.00    -0.379 OA
ATOM      8  H   UNL     1      38.958 -23.971 -13.307  0.00  0.00    +0.211 HD
ENDBRANCH   2   7
BRANCH   3   9
ATOM      9  O   UNL     1      39.413 -26.245 -13.692  0.00  0.00    -0.379 OA
ATOM     10  H   UNL     1      39.765 -25.476 -14.168  0.00  0.00    +0.211 HD
ENDBRANCH   3   9
BRANCH   5  11
ATOM     11  O   UNL     1      37.465 -26.504 -15.815  0.00  0.00    -0.378 OA
ATOM     12  H   UNL     1      38.380 -26.576 -16.129  0.00  0.00    +0.211 HD
ENDBRANCH   5  11
BRANCH   6  13
ATOM     13  O   UNL     1      35.450 -24.504 -15.739  0.00  0.00    -0.326 OA
ATOM     14  C   UNL     1      35.818 -23.134 -15.751  0.00  0.00    +0.177 C 
ENDBRANCH   6  13
BRANCH   4  15
ATOM     15  C   UNL     1      35.910 -23.896 -11.091  0.00  0.00    +0.169 C 
BRANCH  15  16
ATOM     16  O   UNL     1      35.443 -24.630  -9.974  0.00  0.00    -0.379 OA
ATOM     17  H   UNL     1      35.311 -24.029  -9.224  0.00  0.00    +0.211 HD
ENDBRANCH  15  16
ENDBRANCH   4  15
TORSDOF 6
ENDMDL
MODEL 5
REMARK VINA RESULT:      -6.2      1.279      3.616
REMARK  Name = 94214
REMARK  6 active torsions:
REMARK  status: ('A' for Active; 'I' for Inactive)
REMARK    1  A    between atoms: C_2  and  O_7
REMARK    2  A    between atoms: C_3  and  O_9
REMARK    3  A    between atoms: C_4  and  C_15
REMARK    4  A    between atoms: C_5  and  O_11
REMARK    5  A    between atoms: C_6  and  O_13
REMARK    6  A    between atoms: C_15  and  O_16
REMARK                            x       y       z     vdW  Elec       q    Type
REMARK                         _______ _______ _______ _____ _____    ______ ____
ROOT
ATOM      1  O   UNL     1      38.281 -24.889 -13.252  0.00  0.00    -0.326 OA
ATOM      2  C   UNL     1      35.919 -24.407 -13.550  0.00  0.00    +0.169 C 
ATOM      3  C   UNL     1      35.918 -25.225 -14.842  0.00  0.00    +0.172 C 
ATOM      4  C   UNL     1      37.317 -23.830 -13.304  0.00  0.00    +0.176 C 
ATOM      5  C   UNL     1      37.037 -26.265 -14.836  0.00  0.00    +0.196 C 
ATOM      6  C   UNL     1      38.376 -25.617 -14.477  0.00  0.00    +0.266 C 
ENDROOT
BRANCH   2   7
ATOM      7  O   UNL     1      35.563 -25.248 -12.451  0.00  0.00    -0.379 OA
ATOM      8  H   UNL     1      36.278 -25.882 -12.284  0.00  0.00    +0.211 HD
ENDBRANCH   2   7
BRANCH   3   9
ATOM      9  O   UNL     1      34.665 -25.885 -15.004  0.00  0.00    -0.379 OA
ATOM     10  H   UNL     1      34.720 -26.779 -14.631  0.00  0.00    +0.211 HD
ENDBRANCH   3   9
BRANCH   5  11
ATOM     11  O   UNL     1      37.149 -26.844 -16.135  0.00  0.00    -0.378 OA
ATOM     12  H   UNL     1      38.065 -27.124 -16.287  0.00  0.00    +0.211 HD
ENDBRANCH   5  11
BRANCH   6  13
ATOM     13  O   UNL     1      39.344 -26.657 -14.343  0.00  0.00    -0.326 OA
ATOM     14  C   UNL     1      40.661 -26.165 -14.532  0.00  0.00    +0.177 C 
ENDBRANCH   6  13
BRANCH   4  15
ATOM     15  C   UNL     1      37.407 -23.069 -11.985  0.00  0.00    +0.169 C 
BRANCH  15  16
ATOM     16  O   UNL     1      38.765 -23.003 -11.593  0.00  0.00    -0.379 OA
ATOM     17  H   UNL     1      39.314 -22.787 -12.363  0.00  0.00    +0.211 HD
ENDBRANCH  15  16
ENDBRANCH   4  15
TORSDOF 6
ENDMDL
MODEL 6
REMARK VINA RESULT:      -5.9     13.285     14.649
REMARK  Name = 94214
REMARK  6 active torsions:
REMARK  status: ('A' for Active; 'I' for Inactive)
REMARK    1  A    between atoms: C_2  and  O_7
REMARK    2  A    between atoms: C_3  and  O_9
REMARK    3  A    between atoms: C_4  and  C_15
REMARK    4  A    between atoms: C_5  and  O_11
REMARK    5  A    between atoms: C_6  and  O_13
REMARK    6  A    between atoms: C_15  and  O_16
REMARK                            x       y       z     vdW  Elec       q    Type
REMARK                         _______ _______ _______ _____ _____    ______ ____
ROOT
ATOM      1  O   UNL     1      34.499 -17.021 -23.336  0.00  0.00    -0.326 OA
ATOM      2  C   UNL     1      33.884 -14.753 -22.719  0.00  0.00    +0.169 C 
ATOM      3  C   UNL     1      33.852 -14.363 -24.197  0.00  0.00    +0.172 C 
ATOM      4  C   UNL     1      34.869 -15.909 -22.510  0.00  0.00    +0.176 C 
ATOM      5  C   UNL     1      33.590 -15.581 -25.082  0.00  0.00    +0.196 C 
ATOM      6  C   UNL     1      34.548 -16.721 -24.731  0.00  0.00    +0.266 C 
ENDROOT
BRANCH   2   7
ATOM      7  O   UNL     1      32.582 -15.171 -22.305  0.00  0.00    -0.379 OA
ATOM      8  H   UNL     1      32.078 -15.472 -23.078  0.00  0.00    +0.211 HD
ENDBRANCH   2   7
BRANCH   3   9
ATOM      9  O   UNL     1      32.835 -13.390 -24.426  0.00  0.00    -0.379 OA
ATOM     10  H   UNL     1      32.252 -13.344 -23.651  0.00  0.00    +0.211 HD
ENDBRANCH   3   9
BRANCH   5  11
ATOM     11  O   UNL     1      33.794 -15.222 -26.448  0.00  0.00    -0.378 OA
ATOM     12  H   UNL     1      33.056 -14.669 -26.751  0.00  0.00    +0.211 HD
ENDBRANCH   5  11
BRANCH   6  13
ATOM     13  O   UNL     1      34.158 -17.869 -25.483  0.00  0.00    -0.326 OA
ATOM     14  C   UNL     1      34.423 -19.067 -24.772  0.00  0.00    +0.177 C 
ENDBRANCH   6  13
BRANCH   4  15
ATOM     15  C   UNL     1      34.888 -16.401 -21.068  0.00  0.00    +0.169 C 
BRANCH  15  16
ATOM     16  O   UNL     1      34.835 -15.280 -20.206  0.00  0.00    -0.379 OA
ATOM     17  H   UNL     1      35.128 -14.490 -20.685  0.00  0.00    +0.211 HD
ENDBRANCH  15  16
ENDBRANCH   4  15
TORSDOF 6
ENDMDL
MODEL 7
REMARK VINA RESULT:      -5.8      1.782      3.747
REMARK  Name = 94214
REMARK  6 active torsions:
REMARK  status: ('A' for Active; 'I' for Inactive)
REMARK    1  A    between atoms: C_2  and  O_7
REMARK    2  A    between atoms: C_3  and  O_9
REMARK    3  A    between atoms: C_4  and  C_15
REMARK    4  A    between atoms: C_5  and  O_11
REMARK    5  A    between atoms: C_6  and  O_13
REMARK    6  A    between atoms: C_15  and  O_16
REMARK                            x       y       z     vdW  Elec       q    Type
REMARK                         _______ _______ _______ _____ _____    ______ ____
ROOT
ATOM      1  O   UNL     1      35.559 -24.268 -12.936  0.00  0.00    -0.326 OA
ATOM      2  C   UNL     1      36.125 -25.091 -15.150  0.00  0.00    +0.169 C 
ATOM      3  C   UNL     1      37.612 -24.953 -14.818  0.00  0.00    +0.172 C 
ATOM      4  C   UNL     1      35.316 -24.076 -14.335  0.00  0.00    +0.176 C 
ATOM      5  C   UNL     1      37.847 -25.023 -13.310  0.00  0.00    +0.196 C 
ATOM      6  C   UNL     1      36.923 -24.053 -12.571  0.00  0.00    +0.266 C 
ENDROOT
BRANCH   2   7
ATOM      7  O   UNL     1      35.683 -26.409 -14.822  0.00  0.00    -0.379 OA
ATOM      8  H   UNL     1      34.721 -26.465 -14.934  0.00  0.00    +0.211 HD
ENDBRANCH   2   7
BRANCH   3   9
ATOM      9  O   UNL     1      38.356 -25.986 -15.458  0.00  0.00    -0.379 OA
ATOM     10  H   UNL     1      39.252 -26.017 -15.086  0.00  0.00    +0.211 HD
ENDBRANCH   3   9
BRANCH   5  11
ATOM     11  O   UNL     1      39.200 -24.664 -13.028  0.00  0.00    -0.378 OA
ATOM     12  H   UNL     1      39.615 -25.360 -12.495  0.00  0.00    +0.211 HD
ENDBRANCH   5  11
BRANCH   6  13
ATOM     13  O   UNL     1      37.086 -24.273 -11.171  0.00  0.00    -0.326 OA
ATOM     14  C   UNL     1      35.835 -24.293 -10.502  0.00  0.00    +0.177 C 
ENDBRANCH   6  13
BRANCH   4  15
ATOM     15  C   UNL     1      33.815 -24.216 -14.559  0.00  0.00    +0.169 C 
BRANCH  15  16
ATOM     16  O   UNL     1      33.279 -25.033 -13.534  0.00  0.00    -0.379 OA
ATOM     17  H   UNL     1      32.415 -24.687 -13.264  0.00  0.00    +0.211 HD
ENDBRANCH  15  16
ENDBRANCH   4  15
TORSDOF 6
ENDMDL
MODEL 8
REMARK VINA RESULT:      -5.7      2.943      4.148
REMARK  Name = 94214
REMARK  6 active torsions:
REMARK  status: ('A' for Active; 'I' for Inactive)
REMARK    1  A    between atoms: C_2  and  O_7
REMARK    2  A    between atoms: C_3  and  O_9
REMARK    3  A    between atoms: C_4  and  C_15
REMARK    4  A    between atoms: C_5  and  O_11
REMARK    5  A    between atoms: C_6  and  O_13
REMARK    6  A    between atoms: C_15  and  O_16
REMARK                            x       y       z     vdW  Elec       q    Type
REMARK                         _______ _______ _______ _____ _____    ______ ____
ROOT
ATOM      1  O   UNL     1      35.115 -23.083 -15.936  0.00  0.00    -0.326 OA
ATOM      2  C   UNL     1      36.789 -24.134 -14.524  0.00  0.00    +0.169 C 
ATOM      3  C   UNL     1      35.701 -24.505 -13.515  0.00  0.00    +0.172 C 
ATOM      4  C   UNL     1      36.377 -22.872 -15.289  0.00  0.00    +0.176 C 
ATOM      5  C   UNL     1      34.333 -24.595 -14.190  0.00  0.00    +0.196 C 
ATOM      6  C   UNL     1      34.053 -23.339 -15.017  0.00  0.00    +0.266 C 
ENDROOT
BRANCH   2   7
ATOM      7  O   UNL     1      36.965 -25.205 -15.453  0.00  0.00    -0.379 OA
ATOM      8  H   UNL     1      36.292 -25.886 -15.293  0.00  0.00    +0.211 HD
ENDBRANCH   2   7
BRANCH   3   9
ATOM      9  O   UNL     1      36.005 -25.755 -12.902  0.00  0.00    -0.379 OA
ATOM     10  H   UNL     1      35.429 -25.886 -12.132  0.00  0.00    +0.211 HD
ENDBRANCH   3   9
BRANCH   5  11
ATOM     11  O   UNL     1      33.322 -24.714 -13.190  0.00  0.00    -0.378 OA
ATOM     12  H   UNL     1      33.348 -23.937 -12.610  0.00  0.00    +0.211 HD
ENDBRANCH   5  11
BRANCH   6  13
ATOM     13  O   UNL     1      32.837 -23.548 -15.734  0.00  0.00    -0.326 OA
ATOM     14  C   UNL     1      32.996 -23.263 -17.114  0.00  0.00    +0.177 C 
ENDBRANCH   6  13
BRANCH   4  15
ATOM     15  C   UNL     1      37.383 -22.495 -16.370  0.00  0.00    +0.169 C 
BRANCH  15  16
ATOM     16  O   UNL     1      38.605 -23.156 -16.102  0.00  0.00    -0.379 OA
ATOM     17  H   UNL     1      39.296 -22.499 -15.922  0.00  0.00    +0.211 HD
ENDBRANCH  15  16
ENDBRANCH   4  15
TORSDOF 6
ENDMDL
MODEL 9
REMARK VINA RESULT:      -5.7     14.603     15.980
REMARK  Name = 94214
REMARK  6 active torsions:
REMARK  status: ('A' for Active; 'I' for Inactive)
REMARK    1  A    between atoms: C_2  and  O_7
REMARK    2  A    between atoms: C_3  and  O_9
REMARK    3  A    between atoms: C_4  and  C_15
REMARK    4  A    between atoms: C_5  and  O_11
REMARK    5  A    between atoms: C_6  and  O_13
REMARK    6  A    between atoms: C_15  and  O_16
REMARK                            x       y       z     vdW  Elec       q    Type
REMARK                         _______ _______ _______ _____ _____    ______ ____
ROOT
ATOM      1  O   UNL     1      32.966 -14.100 -24.848  0.00  0.00    -0.326 OA
ATOM      2  C   UNL     1      33.942 -15.064 -22.844  0.00  0.00    +0.169 C 
ATOM      3  C   UNL     1      34.370 -16.293 -23.647  0.00  0.00    +0.172 C 
ATOM      4  C   UNL     1      32.698 -14.437 -23.481  0.00  0.00    +0.176 C 
ATOM      5  C   UNL     1      34.523 -15.955 -25.129  0.00  0.00    +0.196 C 
ATOM      6  C   UNL     1      33.277 -15.237 -25.653  0.00  0.00    +0.266 C 
ENDROOT
BRANCH   2   7
ATOM      7  O   UNL     1      34.999 -14.103 -22.842  0.00  0.00    -0.379 OA
ATOM      8  H   UNL     1      35.661 -14.351 -22.178  0.00  0.00    +0.211 HD
ENDBRANCH   2   7
BRANCH   3   9
ATOM      9  O   UNL     1      35.607 -16.798 -23.151  0.00  0.00    -0.379 OA
ATOM     10  H   UNL     1      35.735 -16.500 -22.237  0.00  0.00    +0.211 HD
ENDBRANCH   3   9
BRANCH   5  11
ATOM     11  O   UNL     1      34.695 -17.162 -25.872  0.00  0.00    -0.378 OA
ATOM     12  H   UNL     1      34.115 -17.850 -25.510  0.00  0.00    +0.211 HD
ENDBRANCH   5  11
BRANCH   6  13
ATOM     13  O   UNL     1      33.541 -14.821 -26.992  0.00  0.00    -0.326 OA
ATOM     14  C   UNL     1      33.342 -13.425 -27.147  0.00  0.00    +0.177 C 
ENDBRANCH   6  13
BRANCH   4  15
ATOM     15  C   UNL     1      32.267 -13.157 -22.774  0.00  0.00    +0.169 C 
BRANCH  15  16
ATOM     16  O   UNL     1      32.975 -12.068 -23.337  0.00  0.00    -0.379 OA
ATOM     17  H   UNL     1      33.888 -12.073 -23.010  0.00  0.00    +0.211 HD
ENDBRANCH  15  16
ENDBRANCH   4  15
TORSDOF 6
ENDMDL
