MODEL 1
REMARK VINA RESULT:     -11.9      0.000      0.000
REMARK  Name = 23635314
REMARK  9 active torsions:
REMARK  status: ('A' for Active; 'I' for Inactive)
REMARK    1  A    between atoms: C_2  and  C_8
REMARK    2  A    between atoms: C_3  and  C_23
REMARK    3  A    between atoms: C_7  and  O_13
REMARK    4  A    between atoms: O_13  and  C_14
REMARK    5  A    between atoms: C_14  and  C_15
REMARK    6  A    between atoms: C_15  and  N_17
REMARK    7  A    between atoms: C_23  and  C_26
REMARK    8  A    between atoms: N_25  and  C_28
REMARK    9  A    between atoms: C_28  and  C_29
REMARK                            x       y       z     vdW  Elec       q    Type
REMARK                         _______ _______ _______ _____ _____    ______ ____
ROOT
ATOM      1  N   UNL     1      35.343 -17.001 -22.928  0.00  0.00    -0.248 NA
ATOM      2  C   UNL     1      35.079 -19.229 -22.034  0.00  0.00    +0.019 C 
ATOM      3  C   UNL     1      35.029 -17.504 -24.143  0.00  0.00    +0.068 C 
ATOM      4  C   UNL     1      34.761 -19.710 -23.298  0.00  0.00    +0.003 C 
ATOM      5  C   UNL     1      35.359 -17.880 -21.901  0.00  0.00    +0.098 C 
ATOM      6  C   UNL     1      34.734 -18.836 -24.379  0.00  0.00    +0.015 C 
ENDROOT
BRANCH   2   8
ATOM      7  C   UNL     1      35.189 -21.811 -18.688  0.00  0.00    +0.138 C 
ATOM      8  C   UNL     1      35.116 -20.113 -20.889  0.00  0.00    +0.002 C 
ATOM      9  C   UNL     1      33.966 -21.466 -19.252  0.00  0.00    +0.037 C 
ATOM     10  C   UNL     1      36.377 -21.314 -19.214  0.00  0.00    +0.037 C 
ATOM     11  C   UNL     1      33.929 -20.615 -20.356  0.00  0.00    +0.003 C 
ATOM     12  C   UNL     1      36.340 -20.463 -20.318  0.00  0.00    +0.003 C 
BRANCH   7  13
ATOM     13  O   UNL     1      35.225 -22.647 -17.603  0.00  0.00    -0.478 OA
BRANCH  13  14
ATOM     14  C   UNL     1      36.262 -22.425 -16.656  0.00  0.00    +0.183 C 
BRANCH  14  15
ATOM     15  C   UNL     1      36.010 -23.300 -15.440  0.00  0.00    -0.029 C 
BRANCH  15  17
ATOM     16  O   UNL     1      38.178 -26.682 -14.226  0.00  0.00    -0.358 OA
ATOM     17  N   UNL     1      36.864 -24.485 -15.470  0.00  0.00    +0.393 N 
ATOM     18  C   UNL     1      38.054 -24.293 -14.629  0.00  0.00    -0.044 C 
ATOM     19  C   UNL     1      36.123 -25.675 -15.029  0.00  0.00    -0.044 C 
ATOM     20  C   UNL     1      38.923 -25.546 -14.668  0.00  0.00    +0.119 C 
ATOM     21  C   UNL     1      37.037 -26.895 -15.058  0.00  0.00    +0.119 C 
ATOM     22  H   UNL     1      37.166 -24.627 -16.434  0.00  0.00    -0.079 HD
ENDBRANCH  15  17
ENDBRANCH  14  15
ENDBRANCH  13  14
ENDBRANCH   7  13
ENDBRANCH   2   8
BRANCH   3  23
ATOM     23  C   UNL     1      35.009 -16.538 -25.281  0.00  0.00    +0.131 C 
BRANCH  23  26
ATOM     24  O   UNL     1      32.862 -15.874 -26.185  0.00  0.00    -0.275 OA
ATOM     25  N   UNL     1      33.720 -14.715 -24.365  0.00  0.00    -0.300 N 
ATOM     26  C   UNL     1      33.744 -15.695 -25.348  0.00  0.00    +0.229 C 
ATOM     27  H   UNL     1      34.479 -14.654 -23.740  0.00  0.00    +0.150 HD
BRANCH  25  28
ATOM     28  C   UNL     1      32.626 -13.783 -24.222  0.00  0.00    +0.116 C 
BRANCH  28  29
ATOM     29  C   UNL     1      32.407 -13.391 -22.789  0.00  0.00    -0.003 C 
ATOM     30  C   UNL     1      31.864 -12.147 -22.492  0.00  0.00    -0.003 C 
ATOM     31  C   UNL     1      32.748 -14.278 -21.774  0.00  0.00    -0.003 C 
ATOM     32  C   UNL     1      31.660 -11.783 -21.161  0.00  0.00    -0.000 C 
ATOM     33  C   UNL     1      32.543 -13.915 -20.443  0.00  0.00    -0.000 C 
ATOM     34  C   UNL     1      32.000 -12.666 -20.136  0.00  0.00    -0.000 C 
ENDBRANCH  28  29
ENDBRANCH  25  28
ENDBRANCH  23  26
ENDBRANCH   3  23
TORSDOF 9
ENDMDL
MODEL 2
REMARK VINA RESULT:     -11.9      2.750      3.728
REMARK  Name = 23635314
REMARK  9 active torsions:
REMARK  status: ('A' for Active; 'I' for Inactive)
REMARK    1  A    between atoms: C_2  and  C_8
REMARK    2  A    between atoms: C_3  and  C_23
REMARK    3  A    between atoms: C_7  and  O_13
REMARK    4  A    between atoms: O_13  and  C_14
REMARK    5  A    between atoms: C_14  and  C_15
REMARK    6  A    between atoms: C_15  and  N_17
REMARK    7  A    between atoms: C_23  and  C_26
REMARK    8  A    between atoms: N_25  and  C_28
REMARK    9  A    between atoms: C_28  and  C_29
REMARK                            x       y       z     vdW  Elec       q    Type
REMARK                         _______ _______ _______ _____ _____    ______ ____
ROOT
ATOM      1  N   UNL     1      34.966 -16.635 -22.130  0.00  0.00    -0.248 NA
ATOM      2  C   UNL     1      34.794 -18.998 -21.659  0.00  0.00    +0.019 C 
ATOM      3  C   UNL     1      34.901 -16.941 -23.445  0.00  0.00    +0.068 C 
ATOM      4  C   UNL     1      34.730 -19.275 -23.019  0.00  0.00    +0.003 C 
ATOM      5  C   UNL     1      34.910 -17.674 -21.268  0.00  0.00    +0.098 C 
ATOM      6  C   UNL     1      34.784 -18.232 -23.936  0.00  0.00    +0.015 C 
ENDROOT
BRANCH   2   8
ATOM      7  C   UNL     1      34.636 -22.105 -18.797  0.00  0.00    +0.138 C 
ATOM      8  C   UNL     1      34.740 -20.061 -20.679  0.00  0.00    +0.002 C 
ATOM      9  C   UNL     1      35.869 -21.628 -19.228  0.00  0.00    +0.037 C 
ATOM     10  C   UNL     1      33.454 -21.570 -19.299  0.00  0.00    +0.037 C 
ATOM     11  C   UNL     1      35.921 -20.603 -20.172  0.00  0.00    +0.003 C 
ATOM     12  C   UNL     1      33.507 -20.545 -20.243  0.00  0.00    +0.003 C 
BRANCH   7  13
ATOM     13  O   UNL     1      34.584 -23.113 -17.870  0.00  0.00    -0.478 OA
BRANCH  13  14
ATOM     14  C   UNL     1      33.331 -23.339 -17.238  0.00  0.00    +0.183 C 
BRANCH  14  15
ATOM     15  C   UNL     1      33.548 -23.427 -15.737  0.00  0.00    -0.029 C 
BRANCH  15  17
ATOM     16  O   UNL     1      29.700 -24.476 -14.432  0.00  0.00    -0.358 OA
ATOM     17  N   UNL     1      32.271 -23.410 -15.028  0.00  0.00    +0.393 N 
ATOM     18  C   UNL     1      31.151 -23.289 -15.972  0.00  0.00    -0.044 C 
ATOM     19  C   UNL     1      32.111 -24.620 -14.210  0.00  0.00    -0.044 C 
ATOM     20  C   UNL     1      29.829 -23.285 -15.209  0.00  0.00    +0.119 C 
ATOM     21  C   UNL     1      30.767 -24.585 -13.489  0.00  0.00    +0.119 C 
ATOM     22  H   UNL     1      32.266 -22.597 -14.412  0.00  0.00    -0.079 HD
ENDBRANCH  15  17
ENDBRANCH  14  15
ENDBRANCH  13  14
ENDBRANCH   7  13
ENDBRANCH   2   8
BRANCH   3  23
ATOM     23  C   UNL     1      34.962 -15.797 -24.402  0.00  0.00    +0.131 C 
BRANCH  23  26
ATOM     24  O   UNL     1      32.931 -14.906 -25.376  0.00  0.00    -0.275 OA
ATOM     25  N   UNL     1      33.545 -14.226 -23.242  0.00  0.00    -0.300 N 
ATOM     26  C   UNL     1      33.702 -14.944 -24.420  0.00  0.00    +0.229 C 
ATOM     27  H   UNL     1      34.221 -14.327 -22.533  0.00  0.00    +0.150 HD
BRANCH  25  28
ATOM     28  C   UNL     1      32.428 -13.339 -23.015  0.00  0.00    +0.116 C 
BRANCH  28  29
ATOM     29  C   UNL     1      32.809 -11.898 -23.198  0.00  0.00    -0.003 C 
ATOM     30  C   UNL     1      33.852 -11.567 -24.055  0.00  0.00    -0.003 C 
ATOM     31  C   UNL     1      32.115 -10.910 -22.509  0.00  0.00    -0.003 C 
ATOM     32  C   UNL     1      34.207 -10.229 -24.226  0.00  0.00    -0.000 C 
ATOM     33  C   UNL     1      32.470  -9.572 -22.680  0.00  0.00    -0.000 C 
ATOM     34  C   UNL     1      33.517  -9.231 -23.538  0.00  0.00    -0.000 C 
ENDBRANCH  28  29
ENDBRANCH  25  28
ENDBRANCH  23  26
ENDBRANCH   3  23
TORSDOF 9
ENDMDL
MODEL 3
REMARK VINA RESULT:     -11.8      1.667      2.382
REMARK  Name = 23635314
REMARK  9 active torsions:
REMARK  status: ('A' for Active; 'I' for Inactive)
REMARK    1  A    between atoms: C_2  and  C_8
REMARK    2  A    between atoms: C_3  and  C_23
REMARK    3  A    between atoms: C_7  and  O_13
REMARK    4  A    between atoms: O_13  and  C_14
REMARK    5  A    between atoms: C_14  and  C_15
REMARK    6  A    between atoms: C_15  and  N_17
REMARK    7  A    between atoms: C_23  and  C_26
REMARK    8  A    between atoms: N_25  and  C_28
REMARK    9  A    between atoms: C_28  and  C_29
REMARK                            x       y       z     vdW  Elec       q    Type
REMARK                         _______ _______ _______ _____ _____    ______ ____
ROOT
ATOM      1  N   UNL     1      34.918 -16.651 -21.985  0.00  0.00    -0.248 NA
ATOM      2  C   UNL     1      34.692 -19.029 -21.622  0.00  0.00    +0.019 C 
ATOM      3  C   UNL     1      34.887 -16.900 -23.313  0.00  0.00    +0.068 C 
ATOM      4  C   UNL     1      34.664 -19.246 -22.994  0.00  0.00    +0.003 C 
ATOM      5  C   UNL     1      34.819 -17.726 -21.171  0.00  0.00    +0.098 C 
ATOM      6  C   UNL     1      34.763 -18.166 -23.863  0.00  0.00    +0.015 C 
ENDROOT
BRANCH   2   8
ATOM      7  C   UNL     1      34.397 -22.252 -18.903  0.00  0.00    +0.138 C 
ATOM      8  C   UNL     1      34.591 -20.132 -20.691  0.00  0.00    +0.002 C 
ATOM      9  C   UNL     1      35.649 -21.815 -19.319  0.00  0.00    +0.037 C 
ATOM     10  C   UNL     1      33.240 -21.640 -19.374  0.00  0.00    +0.037 C 
ATOM     11  C   UNL     1      35.747 -20.751 -20.215  0.00  0.00    +0.003 C 
ATOM     12  C   UNL     1      33.338 -20.576 -20.271  0.00  0.00    +0.003 C 
BRANCH   7  13
ATOM     13  O   UNL     1      34.300 -23.297 -18.022  0.00  0.00    -0.478 OA
BRANCH  13  14
ATOM     14  C   UNL     1      33.262 -23.226 -17.054  0.00  0.00    +0.183 C 
BRANCH  14  15
ATOM     15  C   UNL     1      33.860 -23.463 -15.677  0.00  0.00    -0.029 C 
BRANCH  15  17
ATOM     16  O   UNL     1      37.924 -23.779 -14.678  0.00  0.00    -0.358 OA
ATOM     17  N   UNL     1      35.298 -23.705 -15.773  0.00  0.00    +0.393 N 
ATOM     18  C   UNL     1      36.053 -22.473 -15.504  0.00  0.00    -0.044 C 
ATOM     19  C   UNL     1      35.713 -24.764 -14.843  0.00  0.00    -0.044 C 
ATOM     20  C   UNL     1      37.550 -22.753 -15.599  0.00  0.00    +0.119 C 
ATOM     21  C   UNL     1      37.218 -24.990 -14.953  0.00  0.00    +0.119 C 
ATOM     22  H   UNL     1      35.500 -24.009 -16.725  0.00  0.00    -0.079 HD
ENDBRANCH  15  17
ENDBRANCH  14  15
ENDBRANCH  13  14
ENDBRANCH   7  13
ENDBRANCH   2   8
BRANCH   3  23
ATOM     23  C   UNL     1      34.996 -15.717 -24.218  0.00  0.00    +0.131 C 
BRANCH  23  26
ATOM     24  O   UNL     1      32.972 -14.905 -25.271  0.00  0.00    -0.275 OA
ATOM     25  N   UNL     1      33.529 -14.121 -23.158  0.00  0.00    -0.300 N 
ATOM     26  C   UNL     1      33.723 -14.888 -24.299  0.00  0.00    +0.229 C 
ATOM     27  H   UNL     1      34.192 -14.179 -22.432  0.00  0.00    +0.150 HD
BRANCH  25  28
ATOM     28  C   UNL     1      32.394 -13.244 -22.993  0.00  0.00    +0.116 C 
BRANCH  28  29
ATOM     29  C   UNL     1      32.772 -11.800 -23.155  0.00  0.00    -0.003 C 
ATOM     30  C   UNL     1      33.823 -11.455 -23.996  0.00  0.00    -0.003 C 
ATOM     31  C   UNL     1      32.066 -10.823 -22.462  0.00  0.00    -0.003 C 
ATOM     32  C   UNL     1      34.175 -10.113 -24.146  0.00  0.00    -0.000 C 
ATOM     33  C   UNL     1      32.418  -9.481 -22.613  0.00  0.00    -0.000 C 
ATOM     34  C   UNL     1      33.473  -9.127 -23.454  0.00  0.00    -0.000 C 
ENDBRANCH  28  29
ENDBRANCH  25  28
ENDBRANCH  23  26
ENDBRANCH   3  23
TORSDOF 9
ENDMDL
MODEL 4
REMARK VINA RESULT:     -11.8      2.463      3.422
REMARK  Name = 23635314
REMARK  9 active torsions:
REMARK  status: ('A' for Active; 'I' for Inactive)
REMARK    1  A    between atoms: C_2  and  C_8
REMARK    2  A    between atoms: C_3  and  C_23
REMARK    3  A    between atoms: C_7  and  O_13
REMARK    4  A    between atoms: O_13  and  C_14
REMARK    5  A    between atoms: C_14  and  C_15
REMARK    6  A    between atoms: C_15  and  N_17
REMARK    7  A    between atoms: C_23  and  C_26
REMARK    8  A    between atoms: N_25  and  C_28
REMARK    9  A    between atoms: C_28  and  C_29
REMARK                            x       y       z     vdW  Elec       q    Type
REMARK                         _______ _______ _______ _____ _____    ______ ____
ROOT
ATOM      1  N   UNL     1      35.005 -16.934 -22.816  0.00  0.00    -0.248 NA
ATOM      2  C   UNL     1      34.831 -19.216 -22.043  0.00  0.00    +0.019 C 
ATOM      3  C   UNL     1      34.923 -17.406 -24.080  0.00  0.00    +0.068 C 
ATOM      4  C   UNL     1      34.750 -19.665 -23.356  0.00  0.00    +0.003 C 
ATOM      5  C   UNL     1      34.956 -17.854 -21.827  0.00  0.00    +0.098 C 
ATOM      6  C   UNL     1      34.796 -18.748 -24.400  0.00  0.00    +0.015 C 
ENDROOT
BRANCH   2   8
ATOM      7  C   UNL     1      34.697 -21.930 -18.805  0.00  0.00    +0.138 C 
ATOM      8  C   UNL     1      34.785 -20.144 -20.935  0.00  0.00    +0.002 C 
ATOM      9  C   UNL     1      35.926 -21.527 -19.315  0.00  0.00    +0.037 C 
ATOM     10  C   UNL     1      33.511 -21.449 -19.350  0.00  0.00    +0.037 C 
ATOM     11  C   UNL     1      35.970 -20.632 -20.383  0.00  0.00    +0.003 C 
ATOM     12  C   UNL     1      33.556 -20.553 -20.418  0.00  0.00    +0.003 C 
BRANCH   7  13
ATOM     13  O   UNL     1      34.653 -22.810 -17.755  0.00  0.00    -0.478 OA
BRANCH  13  14
ATOM     14  C   UNL     1      33.367 -23.134 -17.244  0.00  0.00    +0.183 C 
BRANCH  14  15
ATOM     15  C   UNL     1      33.495 -23.451 -15.763  0.00  0.00    -0.029 C 
BRANCH  15  17
ATOM     16  O   UNL     1      29.621 -24.460 -14.501  0.00  0.00    -0.358 OA
ATOM     17  N   UNL     1      32.190 -23.395 -15.108  0.00  0.00    +0.393 N 
ATOM     18  C   UNL     1      31.107 -23.400 -16.100  0.00  0.00    -0.044 C 
ATOM     19  C   UNL     1      32.025 -24.518 -14.175  0.00  0.00    -0.044 C 
ATOM     20  C   UNL     1      29.756 -23.351 -15.392  0.00  0.00    +0.119 C 
ATOM     21  C   UNL     1      30.653 -24.444 -13.513  0.00  0.00    +0.119 C 
ATOM     22  H   UNL     1      32.144 -22.523 -14.580  0.00  0.00    -0.079 HD
ENDBRANCH  15  17
ENDBRANCH  14  15
ENDBRANCH  13  14
ENDBRANCH   7  13
ENDBRANCH   2   8
BRANCH   3  23
ATOM     23  C   UNL     1      34.977 -16.395 -25.176  0.00  0.00    +0.131 C 
BRANCH  23  26
ATOM     24  O   UNL     1      32.908 -15.664 -26.202  0.00  0.00    -0.275 OA
ATOM     25  N   UNL     1      33.616 -14.631 -24.247  0.00  0.00    -0.300 N 
ATOM     26  C   UNL     1      33.720 -15.544 -25.288  0.00  0.00    +0.229 C 
ATOM     27  H   UNL     1      34.323 -14.615 -23.561  0.00  0.00    +0.150 HD
BRANCH  25  28
ATOM     28  C   UNL     1      32.514 -13.706 -24.130  0.00  0.00    +0.116 C 
BRANCH  28  29
ATOM     29  C   UNL     1      32.309 -13.254 -22.713  0.00  0.00    -0.003 C 
ATOM     30  C   UNL     1      32.635 -14.107 -21.665  0.00  0.00    -0.003 C 
ATOM     31  C   UNL     1      31.796 -11.986 -22.464  0.00  0.00    -0.003 C 
ATOM     32  C   UNL     1      32.445 -13.686 -20.349  0.00  0.00    -0.000 C 
ATOM     33  C   UNL     1      31.606 -11.565 -21.147  0.00  0.00    -0.000 C 
ATOM     34  C   UNL     1      31.930 -12.416 -20.090  0.00  0.00    -0.000 C 
ENDBRANCH  28  29
ENDBRANCH  25  28
ENDBRANCH  23  26
ENDBRANCH   3  23
TORSDOF 9
ENDMDL
MODEL 5
REMARK VINA RESULT:     -11.7      1.611      2.105
REMARK  Name = 23635314
REMARK  9 active torsions:
REMARK  status: ('A' for Active; 'I' for Inactive)
REMARK    1  A    between atoms: C_2  and  C_8
REMARK    2  A    between atoms: C_3  and  C_23
REMARK    3  A    between atoms: C_7  and  O_13
REMARK    4  A    between atoms: O_13  and  C_14
REMARK    5  A    between atoms: C_14  and  C_15
REMARK    6  A    between atoms: C_15  and  N_17
REMARK    7  A    between atoms: C_23  and  C_26
REMARK    8  A    between atoms: N_25  and  C_28
REMARK    9  A    between atoms: C_28  and  C_29
REMARK                            x       y       z     vdW  Elec       q    Type
REMARK                         _______ _______ _______ _____ _____    ______ ____
ROOT
ATOM      1  N   UNL     1      34.902 -16.567 -22.161  0.00  0.00    -0.248 NA
ATOM      2  C   UNL     1      34.721 -18.943 -21.765  0.00  0.00    +0.019 C 
ATOM      3  C   UNL     1      34.847 -16.833 -23.486  0.00  0.00    +0.068 C 
ATOM      4  C   UNL     1      34.669 -19.178 -23.133  0.00  0.00    +0.003 C 
ATOM      5  C   UNL     1      34.836 -17.633 -21.332  0.00  0.00    +0.098 C 
ATOM      6  C   UNL     1      34.733 -18.107 -24.017  0.00  0.00    +0.015 C 
ENDROOT
BRANCH   2   8
ATOM      7  C   UNL     1      34.535 -22.136 -19.000  0.00  0.00    +0.138 C 
ATOM      8  C   UNL     1      34.657 -20.036 -20.819  0.00  0.00    +0.002 C 
ATOM      9  C   UNL     1      33.359 -21.549 -19.455  0.00  0.00    +0.037 C 
ATOM     10  C   UNL     1      35.772 -21.682 -19.446  0.00  0.00    +0.037 C 
ATOM     11  C   UNL     1      33.420 -20.496 -20.367  0.00  0.00    +0.003 C 
ATOM     12  C   UNL     1      35.832 -20.629 -20.358  0.00  0.00    +0.003 C 
BRANCH   7  13
ATOM     13  O   UNL     1      34.475 -23.170 -18.103  0.00  0.00    -0.478 OA
BRANCH  13  14
ATOM     14  C   UNL     1      33.382 -23.167 -17.194  0.00  0.00    +0.183 C 
BRANCH  14  15
ATOM     15  C   UNL     1      33.926 -23.198 -15.776  0.00  0.00    -0.029 C 
BRANCH  15  17
ATOM     16  O   UNL     1      37.598 -24.687 -14.391  0.00  0.00    -0.358 OA
ATOM     17  N   UNL     1      35.244 -23.827 -15.742  0.00  0.00    +0.393 N 
ATOM     18  C   UNL     1      36.268 -22.872 -15.298  0.00  0.00    -0.044 C 
ATOM     19  C   UNL     1      35.239 -25.005 -14.862  0.00  0.00    -0.044 C 
ATOM     20  C   UNL     1      37.632 -23.554 -15.260  0.00  0.00    +0.119 C 
ATOM     21  C   UNL     1      36.627 -25.637 -14.834  0.00  0.00    +0.119 C 
ATOM     22  H   UNL     1      35.470 -24.130 -16.689  0.00  0.00    -0.079 HD
ENDBRANCH  15  17
ENDBRANCH  14  15
ENDBRANCH  13  14
ENDBRANCH   7  13
ENDBRANCH   2   8
BRANCH   3  23
ATOM     23  C   UNL     1      34.919 -15.660 -24.406  0.00  0.00    +0.131 C 
BRANCH  23  26
ATOM     24  O   UNL     1      32.844 -14.816 -25.327  0.00  0.00    -0.275 OA
ATOM     25  N   UNL     1      33.562 -14.023 -23.266  0.00  0.00    -0.300 N 
ATOM     26  C   UNL     1      33.661 -14.805 -24.409  0.00  0.00    +0.229 C 
ATOM     27  H   UNL     1      34.272 -14.087 -22.587  0.00  0.00    +0.150 HD
BRANCH  25  28
ATOM     28  C   UNL     1      32.459 -13.120 -23.034  0.00  0.00    +0.116 C 
BRANCH  28  29
ATOM     29  C   UNL     1      32.858 -11.685 -23.224  0.00  0.00    -0.003 C 
ATOM     30  C   UNL     1      32.187 -10.687 -22.527  0.00  0.00    -0.003 C 
ATOM     31  C   UNL     1      33.895 -11.370 -24.094  0.00  0.00    -0.003 C 
ATOM     32  C   UNL     1      32.557  -9.354 -22.703  0.00  0.00    -0.000 C 
ATOM     33  C   UNL     1      34.265 -10.036 -24.270  0.00  0.00    -0.000 C 
ATOM     34  C   UNL     1      33.596  -9.028 -23.575  0.00  0.00    -0.000 C 
ENDBRANCH  28  29
ENDBRANCH  25  28
ENDBRANCH  23  26
ENDBRANCH   3  23
TORSDOF 9
ENDMDL
MODEL 6
REMARK VINA RESULT:     -11.5      3.431     11.067
REMARK  Name = 23635314
REMARK  9 active torsions:
REMARK  status: ('A' for Active; 'I' for Inactive)
REMARK    1  A    between atoms: C_2  and  C_8
REMARK    2  A    between atoms: C_3  and  C_23
REMARK    3  A    between atoms: C_7  and  O_13
REMARK    4  A    between atoms: O_13  and  C_14
REMARK    5  A    between atoms: C_14  and  C_15
REMARK    6  A    between atoms: C_15  and  N_17
REMARK    7  A    between atoms: C_23  and  C_26
REMARK    8  A    between atoms: N_25  and  C_28
REMARK    9  A    between atoms: C_28  and  C_29
REMARK                            x       y       z     vdW  Elec       q    Type
REMARK                         _______ _______ _______ _____ _____    ______ ____
ROOT
ATOM      1  N   UNL     1      34.136 -23.791 -16.610  0.00  0.00    -0.248 NA
ATOM      2  C   UNL     1      35.041 -22.095 -18.073  0.00  0.00    +0.019 C 
ATOM      3  C   UNL     1      35.274 -23.706 -15.886  0.00  0.00    +0.068 C 
ATOM      4  C   UNL     1      36.197 -22.036 -17.304  0.00  0.00    +0.003 C 
ATOM      5  C   UNL     1      34.048 -22.980 -17.688  0.00  0.00    +0.098 C 
ATOM      6  C   UNL     1      36.324 -22.854 -16.188  0.00  0.00    +0.015 C 
ENDROOT
BRANCH   2   8
ATOM      7  C   UNL     1      34.569 -19.645 -21.485  0.00  0.00    +0.138 C 
ATOM      8  C   UNL     1      34.880 -21.257 -19.240  0.00  0.00    +0.002 C 
ATOM      9  C   UNL     1      33.446 -20.122 -20.819  0.00  0.00    +0.037 C 
ATOM     10  C   UNL     1      35.847 -19.967 -21.039  0.00  0.00    +0.037 C 
ATOM     11  C   UNL     1      33.601 -20.930 -19.693  0.00  0.00    +0.003 C 
ATOM     12  C   UNL     1      36.002 -20.775 -19.913  0.00  0.00    +0.003 C 
BRANCH   7  13
ATOM     13  O   UNL     1      34.417 -18.851 -22.592  0.00  0.00    -0.478 OA
BRANCH  13  14
ATOM     14  C   UNL     1      35.183 -17.655 -22.633  0.00  0.00    +0.183 C 
BRANCH  14  15
ATOM     15  C   UNL     1      34.848 -16.817 -21.410  0.00  0.00    -0.029 C 
BRANCH  15  17
ATOM     16  O   UNL     1      32.627 -13.807 -23.315  0.00  0.00    -0.358 OA
ATOM     17  N   UNL     1      34.345 -15.503 -21.806  0.00  0.00    +0.393 N 
ATOM     18  C   UNL     1      34.560 -15.272 -23.241  0.00  0.00    -0.044 C 
ATOM     19  C   UNL     1      32.917 -15.372 -21.483  0.00  0.00    -0.044 C 
ATOM     20  C   UNL     1      34.017 -13.901 -23.632  0.00  0.00    +0.119 C 
ATOM     21  C   UNL     1      32.412 -13.999 -21.916  0.00  0.00    +0.119 C 
ATOM     22  H   UNL     1      34.864 -14.799 -21.282  0.00  0.00    -0.079 HD
ENDBRANCH  15  17
ENDBRANCH  14  15
ENDBRANCH  13  14
ENDBRANCH   7  13
ENDBRANCH   2   8
BRANCH   3  23
ATOM     23  C   UNL     1      35.376 -24.600 -14.694  0.00  0.00    +0.131 C 
BRANCH  23  26
ATOM     24  O   UNL     1      34.294 -23.930 -12.634  0.00  0.00    -0.275 OA
ATOM     25  N   UNL     1      33.049 -25.048 -14.243  0.00  0.00    -0.300 N 
ATOM     26  C   UNL     1      34.205 -24.474 -13.731  0.00  0.00    +0.229 C 
ATOM     27  H   UNL     1      33.081 -25.461 -15.136  0.00  0.00    +0.150 HD
BRANCH  25  28
ATOM     28  C   UNL     1      31.800 -25.062 -13.517  0.00  0.00    +0.116 C 
BRANCH  28  29
ATOM     29  C   UNL     1      30.690 -24.419 -14.297  0.00  0.00    -0.003 C 
ATOM     30  C   UNL     1      29.662 -25.204 -14.804  0.00  0.00    -0.003 C 
ATOM     31  C   UNL     1      30.702 -23.044 -14.504  0.00  0.00    -0.003 C 
ATOM     32  C   UNL     1      28.630 -24.607 -15.529  0.00  0.00    -0.000 C 
ATOM     33  C   UNL     1      29.671 -22.447 -15.228  0.00  0.00    -0.000 C 
ATOM     34  C   UNL     1      28.635 -23.229 -15.742  0.00  0.00    -0.000 C 
ENDBRANCH  28  29
ENDBRANCH  25  28
ENDBRANCH  23  26
ENDBRANCH   3  23
TORSDOF 9
ENDMDL
MODEL 7
REMARK VINA RESULT:     -11.5      2.594      3.354
REMARK  Name = 23635314
REMARK  9 active torsions:
REMARK  status: ('A' for Active; 'I' for Inactive)
REMARK    1  A    between atoms: C_2  and  C_8
REMARK    2  A    between atoms: C_3  and  C_23
REMARK    3  A    between atoms: C_7  and  O_13
REMARK    4  A    between atoms: O_13  and  C_14
REMARK    5  A    between atoms: C_14  and  C_15
REMARK    6  A    between atoms: C_15  and  N_17
REMARK    7  A    between atoms: C_23  and  C_26
REMARK    8  A    between atoms: N_25  and  C_28
REMARK    9  A    between atoms: C_28  and  C_29
REMARK                            x       y       z     vdW  Elec       q    Type
REMARK                         _______ _______ _______ _____ _____    ______ ____
ROOT
ATOM      1  N   UNL     1      34.121 -15.982 -21.601  0.00  0.00    -0.248 NA
ATOM      2  C   UNL     1      34.435 -18.377 -21.554  0.00  0.00    +0.019 C 
ATOM      3  C   UNL     1      34.562 -15.998 -22.878  0.00  0.00    +0.068 C 
ATOM      4  C   UNL     1      34.884 -18.354 -22.869  0.00  0.00    +0.003 C 
ATOM      5  C   UNL     1      34.068 -17.176 -20.969  0.00  0.00    +0.098 C 
ATOM      6  C   UNL     1      34.952 -17.144 -23.551  0.00  0.00    +0.015 C 
ENDROOT
BRANCH   2   8
ATOM      7  C   UNL     1      34.196 -22.007 -19.401  0.00  0.00    +0.138 C 
ATOM      8  C   UNL     1      34.353 -19.619 -20.817  0.00  0.00    +0.002 C 
ATOM      9  C   UNL     1      33.030 -21.335 -19.750  0.00  0.00    +0.037 C 
ATOM     10  C   UNL     1      35.441 -21.495 -19.753  0.00  0.00    +0.037 C 
ATOM     11  C   UNL     1      33.108 -20.138 -20.460  0.00  0.00    +0.003 C 
ATOM     12  C   UNL     1      35.519 -20.298 -20.463  0.00  0.00    +0.003 C 
BRANCH   7  13
ATOM     13  O   UNL     1      34.119 -23.183 -18.702  0.00  0.00    -0.478 OA
BRANCH  13  14
ATOM     14  C   UNL     1      33.951 -23.081 -17.293  0.00  0.00    +0.183 C 
BRANCH  14  15
ATOM     15  C   UNL     1      32.466 -23.125 -16.974  0.00  0.00    -0.029 C 
BRANCH  15  17
ATOM     16  O   UNL     1      32.094 -24.996 -13.236  0.00  0.00    -0.358 OA
ATOM     17  N   UNL     1      32.251 -23.339 -15.545  0.00  0.00    +0.393 N 
ATOM     18  C   UNL     1      31.107 -24.233 -15.316  0.00  0.00    -0.044 C 
ATOM     19  C   UNL     1      33.456 -23.893 -14.912  0.00  0.00    -0.044 C 
ATOM     20  C   UNL     1      30.910 -24.450 -13.819  0.00  0.00    +0.119 C 
ATOM     21  C   UNL     1      33.204 -24.118 -13.425  0.00  0.00    +0.119 C 
ATOM     22  H   UNL     1      32.046 -22.435 -15.121  0.00  0.00    -0.079 HD
ENDBRANCH  15  17
ENDBRANCH  14  15
ENDBRANCH  13  14
ENDBRANCH   7  13
ENDBRANCH   2   8
BRANCH   3  23
ATOM     23  C   UNL     1      34.623 -14.682 -23.580  0.00  0.00    +0.131 C 
BRANCH  23  26
ATOM     24  O   UNL     1      32.601 -14.067 -24.764  0.00  0.00    -0.275 OA
ATOM     25  N   UNL     1      32.897 -13.320 -22.586  0.00  0.00    -0.300 N 
ATOM     26  C   UNL     1      33.268 -14.005 -23.734  0.00  0.00    +0.229 C 
ATOM     27  H   UNL     1      33.504 -13.332 -21.811  0.00  0.00    +0.150 HD
BRANCH  25  28
ATOM     28  C   UNL     1      31.654 -12.592 -22.482  0.00  0.00    +0.116 C 
BRANCH  28  29
ATOM     29  C   UNL     1      31.746 -11.462 -21.497  0.00  0.00    -0.003 C 
ATOM     30  C   UNL     1      31.631 -11.725 -20.137  0.00  0.00    -0.003 C 
ATOM     31  C   UNL     1      31.946 -10.165 -21.955  0.00  0.00    -0.003 C 
ATOM     32  C   UNL     1      31.717 -10.675 -19.222  0.00  0.00    -0.000 C 
ATOM     33  C   UNL     1      32.032  -9.116 -21.040  0.00  0.00    -0.000 C 
ATOM     34  C   UNL     1      31.916  -9.371 -19.673  0.00  0.00    -0.000 C 
ENDBRANCH  28  29
ENDBRANCH  25  28
ENDBRANCH  23  26
ENDBRANCH   3  23
TORSDOF 9
ENDMDL
MODEL 8
REMARK VINA RESULT:     -11.4      2.096      2.786
REMARK  Name = 23635314
REMARK  9 active torsions:
REMARK  status: ('A' for Active; 'I' for Inactive)
REMARK    1  A    between atoms: C_2  and  C_8
REMARK    2  A    between atoms: C_3  and  C_23
REMARK    3  A    between atoms: C_7  and  O_13
REMARK    4  A    between atoms: O_13  and  C_14
REMARK    5  A    between atoms: C_14  and  C_15
REMARK    6  A    between atoms: C_15  and  N_17
REMARK    7  A    between atoms: C_23  and  C_26
REMARK    8  A    between atoms: N_25  and  C_28
REMARK    9  A    between atoms: C_28  and  C_29
REMARK                            x       y       z     vdW  Elec       q    Type
REMARK                         _______ _______ _______ _____ _____    ______ ____
ROOT
ATOM      1  N   UNL     1      33.964 -15.874 -21.721  0.00  0.00    -0.248 NA
ATOM      2  C   UNL     1      34.500 -18.228 -21.632  0.00  0.00    +0.019 C 
ATOM      3  C   UNL     1      34.513 -15.845 -22.956  0.00  0.00    +0.068 C 
ATOM      4  C   UNL     1      35.057 -18.159 -22.904  0.00  0.00    +0.003 C 
ATOM      5  C   UNL     1      33.971 -17.069 -21.089  0.00  0.00    +0.098 C 
ATOM      6  C   UNL     1      35.067 -16.947 -23.585  0.00  0.00    +0.015 C 
ENDROOT
BRANCH   2   8
ATOM      7  C   UNL     1      34.423 -21.868 -19.485  0.00  0.00    +0.138 C 
ATOM      8  C   UNL     1      34.474 -19.473 -20.897  0.00  0.00    +0.002 C 
ATOM      9  C   UNL     1      35.642 -21.324 -19.874  0.00  0.00    +0.037 C 
ATOM     10  C   UNL     1      33.228 -21.227 -19.797  0.00  0.00    +0.037 C 
ATOM     11  C   UNL     1      35.667 -20.122 -20.581  0.00  0.00    +0.003 C 
ATOM     12  C   UNL     1      33.255 -20.026 -20.505  0.00  0.00    +0.003 C 
BRANCH   7  13
ATOM     13  O   UNL     1      34.397 -23.049 -18.790  0.00  0.00    -0.478 OA
BRANCH  13  14
ATOM     14  C   UNL     1      33.848 -23.009 -17.479  0.00  0.00    +0.183 C 
BRANCH  14  15
ATOM     15  C   UNL     1      34.983 -23.089 -16.471  0.00  0.00    -0.029 C 
BRANCH  15  17
ATOM     16  O   UNL     1      33.515 -24.211 -12.702  0.00  0.00    -0.358 OA
ATOM     17  N   UNL     1      34.593 -23.898 -15.318  0.00  0.00    +0.393 N 
ATOM     18  C   UNL     1      35.349 -23.502 -14.122  0.00  0.00    -0.044 C 
ATOM     19  C   UNL     1      33.150 -23.782 -15.062  0.00  0.00    -0.044 C 
ATOM     20  C   UNL     1      34.917 -24.352 -12.931  0.00  0.00    +0.119 C 
ATOM     21  C   UNL     1      32.770 -24.625 -13.849  0.00  0.00    +0.119 C 
ATOM     22  H   UNL     1      34.809 -24.871 -15.532  0.00  0.00    -0.079 HD
ENDBRANCH  15  17
ENDBRANCH  14  15
ENDBRANCH  13  14
ENDBRANCH   7  13
ENDBRANCH   2   8
BRANCH   3  23
ATOM     23  C   UNL     1      34.508 -14.527 -23.658  0.00  0.00    +0.131 C 
BRANCH  23  26
ATOM     24  O   UNL     1      32.339 -14.147 -24.666  0.00  0.00    -0.275 OA
ATOM     25  N   UNL     1      32.888 -13.002 -22.723  0.00  0.00    -0.300 N 
ATOM     26  C   UNL     1      33.129 -13.892 -23.761  0.00  0.00    +0.229 C 
ATOM     27  H   UNL     1      33.589 -12.868 -22.044  0.00  0.00    +0.150 HD
BRANCH  25  28
ATOM     28  C   UNL     1      31.651 -12.268 -22.598  0.00  0.00    +0.116 C 
BRANCH  28  29
ATOM     29  C   UNL     1      31.707 -11.257 -21.489  0.00  0.00    -0.003 C 
ATOM     30  C   UNL     1      31.941  -9.920 -21.789  0.00  0.00    -0.003 C 
ATOM     31  C   UNL     1      31.525 -11.669 -20.174  0.00  0.00    -0.003 C 
ATOM     32  C   UNL     1      31.993  -8.981 -20.758  0.00  0.00    -0.000 C 
ATOM     33  C   UNL     1      31.578 -10.730 -19.144  0.00  0.00    -0.000 C 
ATOM     34  C   UNL     1      31.813  -9.386 -19.436  0.00  0.00    -0.000 C 
ENDBRANCH  28  29
ENDBRANCH  25  28
ENDBRANCH  23  26
ENDBRANCH   3  23
TORSDOF 9
ENDMDL
MODEL 9
REMARK VINA RESULT:     -11.4      1.137      1.927
REMARK  Name = 23635314
REMARK  9 active torsions:
REMARK  status: ('A' for Active; 'I' for Inactive)
REMARK    1  A    between atoms: C_2  and  C_8
REMARK    2  A    between atoms: C_3  and  C_23
REMARK    3  A    between atoms: C_7  and  O_13
REMARK    4  A    between atoms: O_13  and  C_14
REMARK    5  A    between atoms: C_14  and  C_15
REMARK    6  A    between atoms: C_15  and  N_17
REMARK    7  A    between atoms: C_23  and  C_26
REMARK    8  A    between atoms: N_25  and  C_28
REMARK    9  A    between atoms: C_28  and  C_29
REMARK                            x       y       z     vdW  Elec       q    Type
REMARK                         _______ _______ _______ _____ _____    ______ ____
ROOT
ATOM      1  N   UNL     1      34.639 -18.801 -24.204  0.00  0.00    -0.248 NA
ATOM      2  C   UNL     1      34.832 -19.273 -21.843  0.00  0.00    +0.019 C 
ATOM      3  C   UNL     1      34.981 -17.522 -23.927  0.00  0.00    +0.068 C 
ATOM      4  C   UNL     1      35.180 -17.951 -21.597  0.00  0.00    +0.003 C 
ATOM      5  C   UNL     1      34.574 -19.646 -23.152  0.00  0.00    +0.098 C 
ATOM      6  C   UNL     1      35.257 -17.052 -22.654  0.00  0.00    +0.015 C 
ENDROOT
BRANCH   2   8
ATOM      7  C   UNL     1      34.570 -22.078 -18.692  0.00  0.00    +0.138 C 
ATOM      8  C   UNL     1      34.743 -20.233 -20.765  0.00  0.00    +0.002 C 
ATOM      9  C   UNL     1      35.818 -21.662 -19.141  0.00  0.00    +0.037 C 
ATOM     10  C   UNL     1      33.407 -21.581 -19.270  0.00  0.00    +0.037 C 
ATOM     11  C   UNL     1      35.905 -20.736 -20.180  0.00  0.00    +0.003 C 
ATOM     12  C   UNL     1      33.494 -20.655 -20.309  0.00  0.00    +0.003 C 
BRANCH   7  13
ATOM     13  O   UNL     1      34.485 -22.988 -17.671  0.00  0.00    -0.478 OA
BRANCH  13  14
ATOM     14  C   UNL     1      35.349 -22.787 -16.560  0.00  0.00    +0.183 C 
BRANCH  14  15
ATOM     15  C   UNL     1      34.634 -23.236 -15.296  0.00  0.00    -0.029 C 
BRANCH  15  17
ATOM     16  O   UNL     1      36.759 -25.730 -12.673  0.00  0.00    -0.358 OA
ATOM     17  N   UNL     1      35.593 -23.705 -14.298  0.00  0.00    +0.393 N 
ATOM     18  C   UNL     1      34.900 -24.236 -13.116  0.00  0.00    -0.044 C 
ATOM     19  C   UNL     1      36.478 -24.731 -14.866  0.00  0.00    -0.044 C 
ATOM     20  C   UNL     1      35.921 -24.728 -12.095  0.00  0.00    +0.119 C 
ATOM     21  C   UNL     1      37.462 -25.212 -13.804  0.00  0.00    +0.119 C 
ATOM     22  H   UNL     1      36.160 -22.907 -14.012  0.00  0.00    -0.079 HD
ENDBRANCH  15  17
ENDBRANCH  14  15
ENDBRANCH  13  14
ENDBRANCH   7  13
ENDBRANCH   2   8
BRANCH   3  23
ATOM     23  C   UNL     1      35.054 -16.584 -25.086  0.00  0.00    +0.131 C 
BRANCH  23  26
ATOM     24  O   UNL     1      32.985 -15.896 -26.142  0.00  0.00    -0.275 OA
ATOM     25  N   UNL     1      33.747 -14.717 -24.292  0.00  0.00    -0.300 N 
ATOM     26  C   UNL     1      33.814 -15.717 -25.253  0.00  0.00    +0.229 C 
ATOM     27  H   UNL     1      34.464 -14.658 -23.620  0.00  0.00    +0.150 HD
BRANCH  25  28
ATOM     28  C   UNL     1      32.666 -13.760 -24.239  0.00  0.00    +0.116 C 
BRANCH  28  29
ATOM     29  C   UNL     1      32.396 -13.296 -22.837  0.00  0.00    -0.003 C 
ATOM     30  C   UNL     1      32.701 -14.129 -21.767  0.00  0.00    -0.003 C 
ATOM     31  C   UNL     1      31.845 -12.038 -22.624  0.00  0.00    -0.003 C 
ATOM     32  C   UNL     1      32.451 -13.697 -20.464  0.00  0.00    -0.000 C 
ATOM     33  C   UNL     1      31.595 -11.607 -21.321  0.00  0.00    -0.000 C 
ATOM     34  C   UNL     1      31.897 -12.437 -20.241  0.00  0.00    -0.000 C 
ENDBRANCH  28  29
ENDBRANCH  25  28
ENDBRANCH  23  26
ENDBRANCH   3  23
TORSDOF 9
ENDMDL
