MODEL 1
REMARK VINA RESULT:      -9.7      0.000      0.000
REMARK  Name = 6857724
REMARK  8 active torsions:
REMARK  status: ('A' for Active; 'I' for Inactive)
REMARK    1  A    between atoms: C_1  and  C_4
REMARK    2  A    between atoms: C_1  and  C_20
REMARK    3  A    between atoms: N_3  and  C_6
REMARK    4  A    between atoms: C_7  and  O_12
REMARK    5  A    between atoms: C_8  and  O_14
REMARK    6  A    between atoms: C_9  and  C_17
REMARK    7  A    between atoms: C_17  and  O_18
REMARK    8  A    between atoms: C_20  and  C_31
REMARK                            x       y       z     vdW  Elec       q    Type
REMARK                         _______ _______ _______ _____ _____    ______ ____
ROOT
ATOM      1  C   UNL     1      32.326 -13.037 -21.559  0.00  0.00    +0.086 C 
ENDROOT
BRANCH   1   4
ATOM      2  O   UNL     1      30.454 -11.528 -21.384  0.00  0.00    -0.275 OA
ATOM      3  N   UNL     1      32.623 -10.659 -21.604  0.00  0.00    -0.279 N 
ATOM      4  C   UNL     1      31.666 -11.664 -21.510  0.00  0.00    +0.226 C 
ATOM      5  H   UNL     1      33.559 -10.955 -21.683  0.00  0.00    +0.155 HD
BRANCH   3   6
ATOM      6  C   UNL     1      32.408  -9.260 -21.595  0.00  0.00    +0.119 C 
ATOM      7  C   UNL     1      32.251  -8.585 -22.796  0.00  0.00    +0.156 C 
ATOM      8  C   UNL     1      32.356  -8.589 -20.382  0.00  0.00    +0.150 C 
ATOM      9  C   UNL     1      32.036  -7.206 -22.784  0.00  0.00    +0.110 C 
ATOM     10  C   UNL     1      32.142  -7.210 -20.370  0.00  0.00    +0.038 C 
ATOM     11  C   UNL     1      31.982  -6.519 -21.571  0.00  0.00    +0.013 C 
BRANCH   7  12
ATOM     12  O   UNL     1      32.304  -9.255 -23.984  0.00  0.00    -0.504 OA
ATOM     13  H   UNL     1      32.072 -10.162 -24.021  0.00  0.00    +0.292 HD
ENDBRANCH   7  12
BRANCH   8  14
ATOM     14  O   UNL     1      32.508  -9.244 -19.196  0.00  0.00    -0.504 OA
ATOM     15  H   UNL     1      31.755  -9.543 -18.726  0.00  0.00    +0.292 HD
ENDBRANCH   8  14
BRANCH   9  17
ATOM     16  O   UNL     1      30.806  -5.984 -24.433  0.00  0.00    -0.245 OA
ATOM     17  C   UNL     1      31.868  -6.463 -24.025  0.00  0.00    +0.341 C 
BRANCH  17  18
ATOM     18  O   UNL     1      33.034  -6.339 -24.716  0.00  0.00    -0.477 OA
ATOM     19  H   UNL     1      33.051  -6.505 -25.638  0.00  0.00    +0.295 HD
ENDBRANCH  17  18
ENDBRANCH   9  17
ENDBRANCH   3   6
ENDBRANCH   1   4
BRANCH   1  20
ATOM     20  C   UNL     1      32.066 -13.807 -22.842  0.00  0.00    +0.017 C 
BRANCH  20  31
ATOM     21  O   UNL     1      33.052 -17.561 -20.952  0.00  0.00    -0.361 OA
ATOM     22  O   UNL     1      32.731 -13.769 -25.556  0.00  0.00    -0.291 OA
ATOM     23  C   UNL     1      34.377 -16.967 -23.410  0.00  0.00    +0.024 C 
ATOM     24  C   UNL     1      33.329 -15.994 -22.752  0.00  0.00    +0.038 C 
ATOM     25  C   UNL     1      35.400 -17.322 -21.286  0.00  0.00    +0.028 C 
ATOM     26  C   UNL     1      34.198 -18.293 -21.457  0.00  0.00    +0.093 C 
ATOM     27  C   UNL     1      33.375 -16.165 -21.201  0.00  0.00    +0.116 C 
ATOM     28  C   UNL     1      35.751 -16.902 -22.718  0.00  0.00    +0.007 C 
ATOM     29  C   UNL     1      33.988 -18.402 -22.976  0.00  0.00    +0.031 C 
ATOM     30  C   UNL     1      34.764 -16.129 -20.589  0.00  0.00    +0.032 C 
ATOM     31  C   UNL     1      33.331 -14.550 -23.329  0.00  0.00    +0.059 C 
ATOM     32  C   UNL     1      34.464 -16.795 -24.892  0.00  0.00    -0.024 C 
ATOM     33  C   UNL     1      34.320 -19.619 -20.743  0.00  0.00    +0.030 C 
ATOM     34  C   UNL     1      33.270 -14.637 -24.867  0.00  0.00    +0.172 C 
ATOM     35  C   UNL     1      34.542 -13.678 -22.982  0.00  0.00    +0.008 C 
ATOM     36  C   UNL     1      33.951 -15.760 -25.563  0.00  0.00    +0.033 C 
ENDBRANCH  20  31
ENDBRANCH   1  20
TORSDOF 8
ENDMDL
MODEL 2
REMARK VINA RESULT:      -9.4      1.597      2.197
REMARK  Name = 6857724
REMARK  8 active torsions:
REMARK  status: ('A' for Active; 'I' for Inactive)
REMARK    1  A    between atoms: C_1  and  C_4
REMARK    2  A    between atoms: C_1  and  C_20
REMARK    3  A    between atoms: N_3  and  C_6
REMARK    4  A    between atoms: C_7  and  O_12
REMARK    5  A    between atoms: C_8  and  O_14
REMARK    6  A    between atoms: C_9  and  C_17
REMARK    7  A    between atoms: C_17  and  O_18
REMARK    8  A    between atoms: C_20  and  C_31
REMARK                            x       y       z     vdW  Elec       q    Type
REMARK                         _______ _______ _______ _____ _____    ______ ____
ROOT
ATOM      1  C   UNL     1      33.108 -13.369 -22.696  0.00  0.00    +0.086 C 
ENDROOT
BRANCH   1   4
ATOM      2  O   UNL     1      33.379 -12.246 -24.812  0.00  0.00    -0.275 OA
ATOM      3  N   UNL     1      33.210 -10.979 -22.843  0.00  0.00    -0.279 N 
ATOM      4  C   UNL     1      33.258 -12.148 -23.595  0.00  0.00    +0.226 C 
ATOM      5  H   UNL     1      33.089 -11.090 -21.872  0.00  0.00    +0.155 HD
BRANCH   3   6
ATOM      6  C   UNL     1      33.311  -9.647 -23.312  0.00  0.00    +0.119 C 
ATOM      7  C   UNL     1      32.237  -8.784 -23.157  0.00  0.00    +0.156 C 
ATOM      8  C   UNL     1      34.487  -9.228 -23.917  0.00  0.00    +0.150 C 
ATOM      9  C   UNL     1      32.340  -7.471 -23.618  0.00  0.00    +0.110 C 
ATOM     10  C   UNL     1      34.590  -7.915 -24.378  0.00  0.00    +0.038 C 
ATOM     11  C   UNL     1      33.517  -7.037 -24.229  0.00  0.00    +0.013 C 
BRANCH   7  12
ATOM     12  O   UNL     1      31.084  -9.206 -22.560  0.00  0.00    -0.504 OA
ATOM     13  H   UNL     1      31.065 -10.026 -22.106  0.00  0.00    +0.292 HD
ENDBRANCH   7  12
BRANCH   8  14
ATOM     14  O   UNL     1      35.549 -10.069 -24.072  0.00  0.00    -0.504 OA
ATOM     15  H   UNL     1      36.040 -10.061 -24.869  0.00  0.00    +0.292 HD
ENDBRANCH   8  14
BRANCH   9  17
ATOM     16  O   UNL     1      30.603  -6.330 -22.434  0.00  0.00    -0.245 OA
ATOM     17  C   UNL     1      31.233  -6.537 -23.475  0.00  0.00    +0.341 C 
BRANCH  17  18
ATOM     18  O   UNL     1      30.949  -5.888 -24.637  0.00  0.00    -0.477 OA
ATOM     19  H   UNL     1      30.965  -6.355 -25.449  0.00  0.00    +0.295 HD
ENDBRANCH  17  18
ENDBRANCH   9  17
ENDBRANCH   3   6
ENDBRANCH   1   4
BRANCH   1  20
ATOM     20  C   UNL     1      32.679 -14.630 -23.425  0.00  0.00    +0.017 C 
BRANCH  20  31
ATOM     21  O   UNL     1      33.201 -18.075 -20.877  0.00  0.00    -0.361 OA
ATOM     22  O   UNL     1      33.444 -15.126 -26.067  0.00  0.00    -0.291 OA
ATOM     23  C   UNL     1      34.671 -18.045 -23.325  0.00  0.00    +0.024 C 
ATOM     24  C   UNL     1      33.705 -16.878 -22.899  0.00  0.00    +0.038 C 
ATOM     25  C   UNL     1      35.572 -18.123 -21.119  0.00  0.00    +0.028 C 
ATOM     26  C   UNL     1      34.284 -18.989 -21.189  0.00  0.00    +0.093 C 
ATOM     27  C   UNL     1      33.675 -16.781 -21.341  0.00  0.00    +0.116 C 
ATOM     28  C   UNL     1      36.018 -17.992 -22.579  0.00  0.00    +0.007 C 
ATOM     29  C   UNL     1      34.120 -19.340 -22.676  0.00  0.00    +0.031 C 
ATOM     30  C   UNL     1      35.037 -16.771 -20.669  0.00  0.00    +0.032 C 
ATOM     31  C   UNL     1      33.878 -15.563 -23.711  0.00  0.00    +0.059 C 
ATOM     32  C   UNL     1      34.830 -18.143 -24.808  0.00  0.00    -0.024 C 
ATOM     33  C   UNL     1      34.241 -20.177 -20.255  0.00  0.00    +0.030 C 
ATOM     34  C   UNL     1      33.866 -15.909 -25.213  0.00  0.00    +0.172 C 
ATOM     35  C   UNL     1      35.158 -14.763 -23.451  0.00  0.00    +0.008 C 
ATOM     36  C   UNL     1      34.452 -17.196 -25.670  0.00  0.00    +0.033 C 
ENDBRANCH  20  31
ENDBRANCH   1  20
TORSDOF 8
ENDMDL
MODEL 3
REMARK VINA RESULT:      -9.1     12.570     14.817
REMARK  Name = 6857724
REMARK  8 active torsions:
REMARK  status: ('A' for Active; 'I' for Inactive)
REMARK    1  A    between atoms: C_1  and  C_4
REMARK    2  A    between atoms: C_1  and  C_20
REMARK    3  A    between atoms: N_3  and  C_6
REMARK    4  A    between atoms: C_7  and  O_12
REMARK    5  A    between atoms: C_8  and  O_14
REMARK    6  A    between atoms: C_9  and  C_17
REMARK    7  A    between atoms: C_17  and  O_18
REMARK    8  A    between atoms: C_20  and  C_31
REMARK                            x       y       z     vdW  Elec       q    Type
REMARK                         _______ _______ _______ _____ _____    ______ ____
ROOT
ATOM      1  C   UNL     1      34.748 -23.081 -16.474  0.00  0.00    +0.086 C 
ENDROOT
BRANCH   1   4
ATOM      2  O   UNL     1      32.998 -23.832 -17.952  0.00  0.00    -0.275 OA
ATOM      3  N   UNL     1      32.517 -23.466 -15.684  0.00  0.00    -0.279 N 
ATOM      4  C   UNL     1      33.323 -23.500 -16.818  0.00  0.00    +0.226 C 
ATOM      5  H   UNL     1      32.955 -23.189 -14.847  0.00  0.00    +0.155 HD
BRANCH   3   6
ATOM      6  C   UNL     1      31.141 -23.786 -15.594  0.00  0.00    +0.119 C 
ATOM      7  C   UNL     1      30.225 -23.086 -16.365  0.00  0.00    +0.156 C 
ATOM      8  C   UNL     1      30.734 -24.797 -14.737  0.00  0.00    +0.150 C 
ATOM      9  C   UNL     1      28.870 -23.405 -16.277  0.00  0.00    +0.110 C 
ATOM     10  C   UNL     1      29.378 -25.115 -14.649  0.00  0.00    +0.038 C 
ATOM     11  C   UNL     1      28.446 -24.419 -15.418  0.00  0.00    +0.013 C 
BRANCH   7  12
ATOM     12  O   UNL     1      30.637 -22.092 -17.206  0.00  0.00    -0.504 OA
ATOM     13  H   UNL     1      30.067 -21.787 -17.885  0.00  0.00    +0.292 HD
ENDBRANCH   7  12
BRANCH   8  14
ATOM     14  O   UNL     1      31.627 -25.491 -13.976  0.00  0.00    -0.504 OA
ATOM     15  H   UNL     1      31.762 -25.255 -13.080  0.00  0.00    +0.292 HD
ENDBRANCH   8  14
BRANCH   9  17
ATOM     16  O   UNL     1      27.547 -21.513 -16.906  0.00  0.00    -0.245 OA
ATOM     17  C   UNL     1      27.879 -22.691 -17.069  0.00  0.00    +0.341 C 
BRANCH  17  18
ATOM     18  O   UNL     1      27.334 -23.470 -18.043  0.00  0.00    -0.477 OA
ATOM     19  H   UNL     1      27.376 -23.198 -18.938  0.00  0.00    +0.295 HD
ENDBRANCH  17  18
ENDBRANCH   9  17
ENDBRANCH   3   6
ENDBRANCH   1   4
BRANCH   1  20
ATOM     20  C   UNL     1      34.964 -22.760 -15.005  0.00  0.00    +0.017 C 
BRANCH  20  31
ATOM     21  O   UNL     1      39.055 -24.105 -14.702  0.00  0.00    -0.361 OA
ATOM     22  O   UNL     1      33.504 -23.240 -12.671  0.00  0.00    -0.291 OA
ATOM     23  C   UNL     1      37.188 -25.224 -12.854  0.00  0.00    +0.024 C 
ATOM     24  C   UNL     1      36.777 -24.162 -13.941  0.00  0.00    +0.038 C 
ATOM     25  C   UNL     1      38.474 -26.406 -14.477  0.00  0.00    +0.028 C 
ATOM     26  C   UNL     1      39.327 -25.260 -13.866  0.00  0.00    +0.093 C 
ATOM     27  C   UNL     1      37.702 -24.321 -15.188  0.00  0.00    +0.116 C 
ATOM     28  C   UNL     1      37.360 -26.634 -13.449  0.00  0.00    +0.007 C 
ATOM     29  C   UNL     1      38.675 -24.957 -12.508  0.00  0.00    +0.031 C 
ATOM     30  C   UNL     1      37.856 -25.743 -15.700  0.00  0.00    +0.032 C 
ATOM     31  C   UNL     1      35.245 -24.035 -14.177  0.00  0.00    +0.059 C 
ATOM     32  C   UNL     1      36.286 -25.202 -11.663  0.00  0.00    -0.024 C 
ATOM     33  C   UNL     1      40.817 -25.512 -13.805  0.00  0.00    +0.030 C 
ATOM     34  C   UNL     1      34.549 -23.878 -12.810  0.00  0.00    +0.172 C 
ATOM     35  C   UNL     1      34.564 -25.208 -14.889  0.00  0.00    +0.008 C 
ATOM     36  C   UNL     1      35.104 -24.581 -11.624  0.00  0.00    +0.033 C 
ENDBRANCH  20  31
ENDBRANCH   1  20
TORSDOF 8
ENDMDL
MODEL 4
REMARK VINA RESULT:      -8.9      1.616      1.864
REMARK  Name = 6857724
REMARK  8 active torsions:
REMARK  status: ('A' for Active; 'I' for Inactive)
REMARK    1  A    between atoms: C_1  and  C_4
REMARK    2  A    between atoms: C_1  and  C_20
REMARK    3  A    between atoms: N_3  and  C_6
REMARK    4  A    between atoms: C_7  and  O_12
REMARK    5  A    between atoms: C_8  and  O_14
REMARK    6  A    between atoms: C_9  and  C_17
REMARK    7  A    between atoms: C_17  and  O_18
REMARK    8  A    between atoms: C_20  and  C_31
REMARK                            x       y       z     vdW  Elec       q    Type
REMARK                         _______ _______ _______ _____ _____    ______ ____
ROOT
ATOM      1  C   UNL     1      32.666 -13.955 -21.522  0.00  0.00    +0.086 C 
ENDROOT
BRANCH   1   4
ATOM      2  O   UNL     1      31.740 -12.007 -20.445  0.00  0.00    -0.275 OA
ATOM      3  N   UNL     1      32.633 -11.818 -22.608  0.00  0.00    -0.279 N 
ATOM      4  C   UNL     1      32.275 -12.484 -21.440  0.00  0.00    +0.226 C 
ATOM      5  H   UNL     1      33.073 -12.361 -23.301  0.00  0.00    +0.155 HD
BRANCH   3   6
ATOM      6  C   UNL     1      32.440 -10.449 -22.914  0.00  0.00    +0.119 C 
ATOM      7  C   UNL     1      33.514  -9.688 -23.350  0.00  0.00    +0.156 C 
ATOM      8  C   UNL     1      31.176  -9.895 -22.774  0.00  0.00    +0.150 C 
ATOM      9  C   UNL     1      33.320  -8.340 -23.653  0.00  0.00    +0.110 C 
ATOM     10  C   UNL     1      30.983  -8.547 -23.077  0.00  0.00    +0.038 C 
ATOM     11  C   UNL     1      32.054  -7.769 -23.516  0.00  0.00    +0.013 C 
BRANCH   7  12
ATOM     12  O   UNL     1      34.753 -10.244 -23.484  0.00  0.00    -0.504 OA
ATOM     13  H   UNL     1      35.007 -10.961 -22.937  0.00  0.00    +0.292 HD
ENDBRANCH   7  12
BRANCH   8  14
ATOM     14  O   UNL     1      30.114 -10.636 -22.347  0.00  0.00    -0.504 OA
ATOM     15  H   UNL     1      29.548 -10.302 -21.679  0.00  0.00    +0.292 HD
ENDBRANCH   8  14
BRANCH   9  17
ATOM     16  O   UNL     1      34.443  -6.864 -25.164  0.00  0.00    -0.245 OA
ATOM     17  C   UNL     1      34.423  -7.509 -24.112  0.00  0.00    +0.341 C 
BRANCH  17  18
ATOM     18  O   UNL     1      35.468  -7.507 -23.240  0.00  0.00    -0.477 OA
ATOM     19  H   UNL     1      35.688  -6.724 -22.775  0.00  0.00    +0.295 HD
ENDBRANCH  17  18
ENDBRANCH   9  17
ENDBRANCH   3   6
ENDBRANCH   1   4
BRANCH   1  20
ATOM     20  C   UNL     1      32.452 -14.580 -22.889  0.00  0.00    +0.017 C 
BRANCH  20  31
ATOM     21  O   UNL     1      33.398 -18.292 -20.899  0.00  0.00    -0.361 OA
ATOM     22  O   UNL     1      33.093 -14.630 -25.609  0.00  0.00    -0.291 OA
ATOM     23  C   UNL     1      34.709 -17.790 -23.385  0.00  0.00    +0.024 C 
ATOM     24  C   UNL     1      33.682 -16.783 -22.746  0.00  0.00    +0.038 C 
ATOM     25  C   UNL     1      35.745 -18.100 -21.260  0.00  0.00    +0.028 C 
ATOM     26  C   UNL     1      34.528 -19.056 -21.393  0.00  0.00    +0.093 C 
ATOM     27  C   UNL     1      33.739 -16.909 -21.191  0.00  0.00    +0.116 C 
ATOM     28  C   UNL     1      36.090 -17.726 -22.706  0.00  0.00    +0.007 C 
ATOM     29  C   UNL     1      34.302 -19.206 -22.905  0.00  0.00    +0.031 C 
ATOM     30  C   UNL     1      35.134 -16.876 -20.592  0.00  0.00    +0.032 C 
ATOM     31  C   UNL     1      33.701 -15.356 -23.366  0.00  0.00    +0.059 C 
ATOM     32  C   UNL     1      34.785 -17.663 -24.872  0.00  0.00    -0.024 C 
ATOM     33  C   UNL     1      34.635 -20.363 -20.641  0.00  0.00    +0.030 C 
ATOM     34  C   UNL     1      33.625 -15.487 -24.900  0.00  0.00    +0.172 C 
ATOM     35  C   UNL     1      34.928 -14.493 -23.055  0.00  0.00    +0.008 C 
ATOM     36  C   UNL     1      34.282 -16.640 -25.568  0.00  0.00    +0.033 C 
ENDBRANCH  20  31
ENDBRANCH   1  20
TORSDOF 8
ENDMDL
MODEL 5
REMARK VINA RESULT:      -8.9      1.700      9.543
REMARK  Name = 6857724
REMARK  8 active torsions:
REMARK  status: ('A' for Active; 'I' for Inactive)
REMARK    1  A    between atoms: C_1  and  C_4
REMARK    2  A    between atoms: C_1  and  C_20
REMARK    3  A    between atoms: N_3  and  C_6
REMARK    4  A    between atoms: C_7  and  O_12
REMARK    5  A    between atoms: C_8  and  O_14
REMARK    6  A    between atoms: C_9  and  C_17
REMARK    7  A    between atoms: C_17  and  O_18
REMARK    8  A    between atoms: C_20  and  C_31
REMARK                            x       y       z     vdW  Elec       q    Type
REMARK                         _______ _______ _______ _____ _____    ______ ____
ROOT
ATOM      1  C   UNL     1      32.630 -11.257 -23.578  0.00  0.00    +0.086 C 
ENDROOT
BRANCH   1   4
ATOM      2  O   UNL     1      31.951 -13.224 -22.359  0.00  0.00    -0.275 OA
ATOM      3  N   UNL     1      33.646 -13.392 -23.975  0.00  0.00    -0.279 N 
ATOM      4  C   UNL     1      32.688 -12.735 -23.209  0.00  0.00    +0.226 C 
ATOM      5  H   UNL     1      34.136 -12.840 -24.626  0.00  0.00    +0.155 HD
BRANCH   3   6
ATOM      6  C   UNL     1      33.996 -14.763 -23.928  0.00  0.00    +0.119 C 
ATOM      7  C   UNL     1      34.487 -15.303 -22.749  0.00  0.00    +0.156 C 
ATOM      8  C   UNL     1      33.838 -15.543 -25.064  0.00  0.00    +0.150 C 
ATOM      9  C   UNL     1      34.828 -16.655 -22.705  0.00  0.00    +0.110 C 
ATOM     10  C   UNL     1      34.180 -16.894 -25.020  0.00  0.00    +0.038 C 
ATOM     11  C   UNL     1      34.675 -17.451 -23.841  0.00  0.00    +0.013 C 
BRANCH   7  12
ATOM     12  O   UNL     1      34.638 -14.527 -21.636  0.00  0.00    -0.504 OA
ATOM     13  H   UNL     1      35.417 -14.597 -21.119  0.00  0.00    +0.292 HD
ENDBRANCH   7  12
BRANCH   8  14
ATOM     14  O   UNL     1      33.355 -15.020 -26.227  0.00  0.00    -0.504 OA
ATOM     15  H   UNL     1      33.129 -14.112 -26.275  0.00  0.00    +0.292 HD
ENDBRANCH   8  14
BRANCH   9  17
ATOM     16  O   UNL     1      35.241 -16.782 -20.352  0.00  0.00    -0.245 OA
ATOM     17  C   UNL     1      35.348 -17.258 -21.486  0.00  0.00    +0.341 C 
BRANCH  17  18
ATOM     18  O   UNL     1      35.985 -18.437 -21.722  0.00  0.00    -0.477 OA
ATOM     19  H   UNL     1      35.535 -19.133 -22.159  0.00  0.00    +0.295 HD
ENDBRANCH  17  18
ENDBRANCH   9  17
ENDBRANCH   3   6
ENDBRANCH   1   4
BRANCH   1  20
ATOM     20  C   UNL     1      31.627 -10.454 -22.768  0.00  0.00    +0.017 C 
BRANCH  20  31
ATOM     21  O   UNL     1      30.508  -6.692 -24.566  0.00  0.00    -0.361 OA
ATOM     22  O   UNL     1      32.064 -10.237 -20.016  0.00  0.00    -0.291 OA
ATOM     23  C   UNL     1      31.813  -6.572 -22.030  0.00  0.00    +0.024 C 
ATOM     24  C   UNL     1      31.499  -7.930 -22.761  0.00  0.00    +0.038 C 
ATOM     25  C   UNL     1      32.586  -5.632 -24.080  0.00  0.00    +0.028 C 
ATOM     26  C   UNL     1      31.044  -5.477 -23.982  0.00  0.00    +0.093 C 
ATOM     27  C   UNL     1      31.524  -7.698 -24.305  0.00  0.00    +0.116 C 
ATOM     28  C   UNL     1      33.035  -5.853 -22.631  0.00  0.00    +0.007 C 
ATOM     29  C   UNL     1      30.729  -5.561 -22.480  0.00  0.00    +0.031 C 
ATOM     30  C   UNL     1      32.740  -6.950 -24.825  0.00  0.00    +0.032 C 
ATOM     31  C   UNL     1      32.257  -9.164 -22.194  0.00  0.00    +0.059 C 
ATOM     32  C   UNL     1      31.903  -6.730 -20.546  0.00  0.00    -0.024 C 
ATOM     33  C   UNL     1      30.461  -4.269 -24.679  0.00  0.00    +0.030 C 
ATOM     34  C   UNL     1      32.079  -9.187 -20.663  0.00  0.00    +0.172 C 
ATOM     35  C   UNL     1      33.763  -9.225 -22.466  0.00  0.00    +0.008 C 
ATOM     36  C   UNL     1      32.001  -7.904 -19.917  0.00  0.00    +0.033 C 
ENDBRANCH  20  31
ENDBRANCH   1  20
TORSDOF 8
ENDMDL
MODEL 6
REMARK VINA RESULT:      -8.8      2.355      8.952
REMARK  Name = 6857724
REMARK  8 active torsions:
REMARK  status: ('A' for Active; 'I' for Inactive)
REMARK    1  A    between atoms: C_1  and  C_4
REMARK    2  A    between atoms: C_1  and  C_20
REMARK    3  A    between atoms: N_3  and  C_6
REMARK    4  A    between atoms: C_7  and  O_12
REMARK    5  A    between atoms: C_8  and  O_14
REMARK    6  A    between atoms: C_9  and  C_17
REMARK    7  A    between atoms: C_17  and  O_18
REMARK    8  A    between atoms: C_20  and  C_31
REMARK                            x       y       z     vdW  Elec       q    Type
REMARK                         _______ _______ _______ _____ _____    ______ ____
ROOT
ATOM      1  C   UNL     1      32.722 -12.575 -23.290  0.00  0.00    +0.086 C 
ENDROOT
BRANCH   1   4
ATOM      2  O   UNL     1      32.216 -14.655 -22.181  0.00  0.00    -0.275 OA
ATOM      3  N   UNL     1      33.884 -14.601 -23.832  0.00  0.00    -0.279 N 
ATOM      4  C   UNL     1      32.897 -14.063 -23.012  0.00  0.00    +0.226 C 
ATOM      5  H   UNL     1      34.318 -13.977 -24.457  0.00  0.00    +0.155 HD
BRANCH   3   6
ATOM      6  C   UNL     1      34.334 -15.942 -23.873  0.00  0.00    +0.119 C 
ATOM      7  C   UNL     1      34.872 -16.518 -22.732  0.00  0.00    +0.156 C 
ATOM      8  C   UNL     1      34.226 -16.659 -25.056  0.00  0.00    +0.150 C 
ATOM      9  C   UNL     1      35.312 -17.841 -22.775  0.00  0.00    +0.110 C 
ATOM     10  C   UNL     1      34.667 -17.981 -25.099  0.00  0.00    +0.038 C 
ATOM     11  C   UNL     1      35.211 -18.573 -23.959  0.00  0.00    +0.013 C 
BRANCH   7  12
ATOM     12  O   UNL     1      34.974 -15.805 -21.573  0.00  0.00    -0.504 OA
ATOM     13  H   UNL     1      35.795 -15.754 -21.125  0.00  0.00    +0.292 HD
ENDBRANCH   7  12
BRANCH   8  14
ATOM     14  O   UNL     1      33.698 -16.101 -26.183  0.00  0.00    -0.504 OA
ATOM     15  H   UNL     1      33.329 -15.240 -26.151  0.00  0.00    +0.292 HD
ENDBRANCH   8  14
BRANCH   9  17
ATOM     16  O   UNL     1      35.264 -18.775 -20.573  0.00  0.00    -0.245 OA
ATOM     17  C   UNL     1      35.885 -18.480 -21.598  0.00  0.00    +0.341 C 
BRANCH  17  18
ATOM     18  O   UNL     1      37.214 -18.731 -21.740  0.00  0.00    -0.477 OA
ATOM     19  H   UNL     1      37.591 -19.492 -21.344  0.00  0.00    +0.295 HD
ENDBRANCH  17  18
ENDBRANCH   9  17
ENDBRANCH   3   6
ENDBRANCH   1   4
BRANCH   1  20
ATOM     20  C   UNL     1      34.004 -11.862 -23.686  0.00  0.00    +0.017 C 
BRANCH  20  31
ATOM     21  O   UNL     1      32.419  -8.897 -20.978  0.00  0.00    -0.361 OA
ATOM     22  O   UNL     1      35.733 -10.761 -25.585  0.00  0.00    -0.291 OA
ATOM     23  C   UNL     1      33.476  -7.949 -23.455  0.00  0.00    +0.024 C 
ATOM     24  C   UNL     1      33.461  -9.474 -23.064  0.00  0.00    +0.038 C 
ATOM     25  C   UNL     1      31.235  -7.714 -22.674  0.00  0.00    +0.028 C 
ATOM     26  C   UNL     1      32.223  -7.552 -21.486  0.00  0.00    +0.093 C 
ATOM     27  C   UNL     1      32.236  -9.753 -22.138  0.00  0.00    +0.116 C 
ATOM     28  C   UNL     1      32.094  -7.450 -23.916  0.00  0.00    +0.007 C 
ATOM     29  C   UNL     1      33.559  -7.149 -22.130  0.00  0.00    +0.031 C 
ATOM     30  C   UNL     1      30.912  -9.201 -22.635  0.00  0.00    +0.032 C 
ATOM     31  C   UNL     1      33.723 -10.449 -24.247  0.00  0.00    +0.059 C 
ATOM     32  C   UNL     1      34.567  -7.617 -24.421  0.00  0.00    -0.024 C 
ATOM     33  C   UNL     1      31.764  -6.641 -20.371  0.00  0.00    +0.030 C 
ATOM     34  C   UNL     1      34.981  -9.978 -25.003  0.00  0.00    +0.172 C 
ATOM     35  C   UNL     1      32.604 -10.578 -25.286  0.00  0.00    +0.008 C 
ATOM     36  C   UNL     1      35.266  -8.523 -25.109  0.00  0.00    +0.033 C 
ENDBRANCH  20  31
ENDBRANCH   1  20
TORSDOF 8
ENDMDL
MODEL 7
REMARK VINA RESULT:      -8.7      1.890      9.436
REMARK  Name = 6857724
REMARK  8 active torsions:
REMARK  status: ('A' for Active; 'I' for Inactive)
REMARK    1  A    between atoms: C_1  and  C_4
REMARK    2  A    between atoms: C_1  and  C_20
REMARK    3  A    between atoms: N_3  and  C_6
REMARK    4  A    between atoms: C_7  and  O_12
REMARK    5  A    between atoms: C_8  and  O_14
REMARK    6  A    between atoms: C_9  and  C_17
REMARK    7  A    between atoms: C_17  and  O_18
REMARK    8  A    between atoms: C_20  and  C_31
REMARK                            x       y       z     vdW  Elec       q    Type
REMARK                         _______ _______ _______ _____ _____    ______ ____
ROOT
ATOM      1  C   UNL     1      32.631 -11.279 -23.327  0.00  0.00    +0.086 C 
ENDROOT
BRANCH   1   4
ATOM      2  O   UNL     1      31.815 -13.061 -21.923  0.00  0.00    -0.275 OA
ATOM      3  N   UNL     1      33.762 -13.388 -23.194  0.00  0.00    -0.279 N 
ATOM      4  C   UNL     1      32.670 -12.673 -22.712  0.00  0.00    +0.226 C 
ATOM      5  H   UNL     1      34.338 -12.920 -23.841  0.00  0.00    +0.155 HD
BRANCH   3   6
ATOM      6  C   UNL     1      34.139 -14.712 -22.864  0.00  0.00    +0.119 C 
ATOM      7  C   UNL     1      34.187 -15.677 -23.859  0.00  0.00    +0.156 C 
ATOM      8  C   UNL     1      34.455 -15.020 -21.549  0.00  0.00    +0.150 C 
ATOM      9  C   UNL     1      34.561 -16.981 -23.531  0.00  0.00    +0.110 C 
ATOM     10  C   UNL     1      34.829 -16.324 -21.221  0.00  0.00    +0.038 C 
ATOM     11  C   UNL     1      34.882 -17.304 -22.212  0.00  0.00    +0.013 C 
BRANCH   7  12
ATOM     12  O   UNL     1      33.874 -15.364 -25.150  0.00  0.00    -0.504 OA
ATOM     13  H   UNL     1      33.123 -14.833 -25.334  0.00  0.00    +0.292 HD
ENDBRANCH   7  12
BRANCH   8  14
ATOM     14  O   UNL     1      34.411 -14.078 -20.565  0.00  0.00    -0.504 OA
ATOM     15  H   UNL     1      35.175 -13.897 -20.054  0.00  0.00    +0.292 HD
ENDBRANCH   8  14
BRANCH   9  17
ATOM     16  O   UNL     1      34.627 -17.829 -25.767  0.00  0.00    -0.245 OA
ATOM     17  C   UNL     1      34.622 -18.021 -24.548  0.00  0.00    +0.341 C 
BRANCH  17  18
ATOM     18  O   UNL     1      34.679 -19.270 -24.009  0.00  0.00    -0.477 OA
ATOM     19  H   UNL     1      35.436 -19.536 -23.525  0.00  0.00    +0.295 HD
ENDBRANCH  17  18
ENDBRANCH   9  17
ENDBRANCH   3   6
ENDBRANCH   1   4
BRANCH   1  20
ATOM     20  C   UNL     1      31.607 -10.350 -22.697  0.00  0.00    +0.017 C 
BRANCH  20  31
ATOM     21  O   UNL     1      30.459  -6.644 -24.589  0.00  0.00    -0.361 OA
ATOM     22  O   UNL     1      32.117 -10.044 -19.966  0.00  0.00    -0.291 OA
ATOM     23  C   UNL     1      31.831  -6.448 -22.093  0.00  0.00    +0.024 C 
ATOM     24  C   UNL     1      31.491  -7.827 -22.771  0.00  0.00    +0.038 C 
ATOM     25  C   UNL     1      32.554  -5.580 -24.193  0.00  0.00    +0.028 C 
ATOM     26  C   UNL     1      31.015  -5.413 -24.060  0.00  0.00    +0.093 C 
ATOM     27  C   UNL     1      31.477  -7.646 -24.322  0.00  0.00    +0.116 C 
ATOM     28  C   UNL     1      33.040  -5.755 -22.750  0.00  0.00    +0.007 C 
ATOM     29  C   UNL     1      30.739  -5.446 -22.548  0.00  0.00    +0.031 C 
ATOM     30  C   UNL     1      32.681  -6.923 -24.898  0.00  0.00    +0.032 C 
ATOM     31  C   UNL     1      32.258  -9.045 -22.183  0.00  0.00    +0.059 C 
ATOM     32  C   UNL     1      31.958  -6.556 -20.608  0.00  0.00    -0.024 C 
ATOM     33  C   UNL     1      30.419  -4.226 -24.781  0.00  0.00    +0.030 C 
ATOM     34  C   UNL     1      32.120  -9.017 -20.648  0.00  0.00    +0.172 C 
ATOM     35  C   UNL     1      33.756  -9.123 -22.492  0.00  0.00    +0.008 C 
ATOM     36  C   UNL     1      32.069  -7.709 -19.944  0.00  0.00    +0.033 C 
ENDBRANCH  20  31
ENDBRANCH   1  20
TORSDOF 8
ENDMDL
MODEL 8
REMARK VINA RESULT:      -8.7      8.434     13.293
REMARK  Name = 6857724
REMARK  8 active torsions:
REMARK  status: ('A' for Active; 'I' for Inactive)
REMARK    1  A    between atoms: C_1  and  C_4
REMARK    2  A    between atoms: C_1  and  C_20
REMARK    3  A    between atoms: N_3  and  C_6
REMARK    4  A    between atoms: C_7  and  O_12
REMARK    5  A    between atoms: C_8  and  O_14
REMARK    6  A    between atoms: C_9  and  C_17
REMARK    7  A    between atoms: C_17  and  O_18
REMARK    8  A    between atoms: C_20  and  C_31
REMARK                            x       y       z     vdW  Elec       q    Type
REMARK                         _______ _______ _______ _____ _____    ______ ____
ROOT
ATOM      1  C   UNL     1      33.465 -23.851 -16.149  0.00  0.00    +0.086 C 
ENDROOT
BRANCH   1   4
ATOM      2  O   UNL     1      33.454 -24.063 -18.551  0.00  0.00    -0.275 OA
ATOM      3  N   UNL     1      34.587 -22.265 -17.553  0.00  0.00    -0.279 N 
ATOM      4  C   UNL     1      33.828 -23.431 -17.568  0.00  0.00    +0.226 C 
ATOM      5  H   UNL     1      34.779 -21.882 -16.667  0.00  0.00    +0.155 HD
BRANCH   3   6
ATOM      6  C   UNL     1      35.113 -21.564 -18.665  0.00  0.00    +0.119 C 
ATOM      7  C   UNL     1      34.246 -20.972 -19.572  0.00  0.00    +0.156 C 
ATOM      8  C   UNL     1      36.488 -21.480 -18.827  0.00  0.00    +0.150 C 
ATOM      9  C   UNL     1      34.767 -20.279 -20.665  0.00  0.00    +0.110 C 
ATOM     10  C   UNL     1      37.008 -20.788 -19.920  0.00  0.00    +0.038 C 
ATOM     11  C   UNL     1      36.148 -20.188 -20.840  0.00  0.00    +0.013 C 
BRANCH   7  12
ATOM     12  O   UNL     1      32.894 -21.060 -19.403  0.00  0.00    -0.504 OA
ATOM     13  H   UNL     1      32.400 -21.681 -19.902  0.00  0.00    +0.292 HD
ENDBRANCH   7  12
BRANCH   8  14
ATOM     14  O   UNL     1      37.347 -22.059 -17.940  0.00  0.00    -0.504 OA
ATOM     15  H   UNL     1      37.220 -21.942 -17.019  0.00  0.00    +0.292 HD
ENDBRANCH   8  14
BRANCH   9  17
ATOM     16  O   UNL     1      32.697 -19.381 -21.460  0.00  0.00    -0.245 OA
ATOM     17  C   UNL     1      33.889 -19.646 -21.639  0.00  0.00    +0.341 C 
BRANCH  17  18
ATOM     18  O   UNL     1      34.529 -19.360 -22.805  0.00  0.00    -0.477 OA
ATOM     19  H   UNL     1      34.040 -19.062 -23.546  0.00  0.00    +0.295 HD
ENDBRANCH  17  18
ENDBRANCH   9  17
ENDBRANCH   3   6
ENDBRANCH   1   4
BRANCH   1  20
ATOM     20  C   UNL     1      34.313 -23.198 -15.071  0.00  0.00    +0.017 C 
BRANCH  20  31
ATOM     21  O   UNL     1      38.499 -24.250 -14.997  0.00  0.00    -0.361 OA
ATOM     22  O   UNL     1      33.172 -23.165 -12.521  0.00  0.00    -0.291 OA
ATOM     23  C   UNL     1      36.945 -24.972 -12.712  0.00  0.00    +0.024 C 
ATOM     24  C   UNL     1      36.335 -24.222 -13.954  0.00  0.00    +0.038 C 
ATOM     25  C   UNL     1      38.119 -26.452 -14.167  0.00  0.00    +0.028 C 
ATOM     26  C   UNL     1      38.950 -25.156 -13.957  0.00  0.00    +0.093 C 
ATOM     27  C   UNL     1      37.118 -24.636 -15.239  0.00  0.00    +0.116 C 
ATOM     28  C   UNL     1      37.150 -26.475 -12.979  0.00  0.00    +0.007 C 
ATOM     29  C   UNL     1      38.439 -24.564 -12.634  0.00  0.00    +0.031 C 
ATOM     30  C   UNL     1      37.316 -26.131 -15.420  0.00  0.00    +0.032 C 
ATOM     31  C   UNL     1      34.781 -24.222 -14.012  0.00  0.00    +0.059 C 
ATOM     32  C   UNL     1      36.188 -24.702 -11.452  0.00  0.00    -0.024 C 
ATOM     33  C   UNL     1      40.451 -25.321 -14.032  0.00  0.00    +0.030 C 
ATOM     34  C   UNL     1      34.238 -23.771 -12.641  0.00  0.00    +0.172 C 
ATOM     35  C   UNL     1      34.109 -25.561 -14.335  0.00  0.00    +0.008 C 
ATOM     36  C   UNL     1      34.976 -24.143 -11.406  0.00  0.00    +0.033 C 
ENDBRANCH  20  31
ENDBRANCH   1  20
TORSDOF 8
ENDMDL
MODEL 9
REMARK VINA RESULT:      -8.0      1.885      9.231
REMARK  Name = 6857724
REMARK  8 active torsions:
REMARK  status: ('A' for Active; 'I' for Inactive)
REMARK    1  A    between atoms: C_1  and  C_4
REMARK    2  A    between atoms: C_1  and  C_20
REMARK    3  A    between atoms: N_3  and  C_6
REMARK    4  A    between atoms: C_7  and  O_12
REMARK    5  A    between atoms: C_8  and  O_14
REMARK    6  A    between atoms: C_9  and  C_17
REMARK    7  A    between atoms: C_17  and  O_18
REMARK    8  A    between atoms: C_20  and  C_31
REMARK                            x       y       z     vdW  Elec       q    Type
REMARK                         _______ _______ _______ _____ _____    ______ ____
ROOT
ATOM      1  C   UNL     1      33.737 -12.652 -24.652  0.00  0.00    +0.086 C 
ENDROOT
BRANCH   1   4
ATOM      2  O   UNL     1      32.583 -14.633 -25.397  0.00  0.00    -0.275 OA
ATOM      3  N   UNL     1      34.460 -14.843 -24.003  0.00  0.00    -0.279 N 
ATOM      4  C   UNL     1      33.500 -14.155 -24.737  0.00  0.00    +0.226 C 
ATOM      5  H   UNL     1      35.137 -14.292 -23.547  0.00  0.00    +0.155 HD
BRANCH   3   6
ATOM      6  C   UNL     1      34.579 -16.244 -23.837  0.00  0.00    +0.119 C 
ATOM      7  C   UNL     1      34.644 -16.779 -22.559  0.00  0.00    +0.156 C 
ATOM      8  C   UNL     1      34.626 -17.059 -24.959  0.00  0.00    +0.150 C 
ATOM      9  C   UNL     1      34.757 -18.160 -22.399  0.00  0.00    +0.110 C 
ATOM     10  C   UNL     1      34.741 -18.440 -24.799  0.00  0.00    +0.038 C 
ATOM     11  C   UNL     1      34.807 -18.990 -23.519  0.00  0.00    +0.013 C 
BRANCH   7  12
ATOM     12  O   UNL     1      34.596 -15.968 -21.462  0.00  0.00    -0.504 OA
ATOM     13  H   UNL     1      34.226 -15.110 -21.529  0.00  0.00    +0.292 HD
ENDBRANCH   7  12
BRANCH   8  14
ATOM     14  O   UNL     1      34.562 -16.542 -26.220  0.00  0.00    -0.504 OA
ATOM     15  H   UNL     1      35.339 -16.222 -26.634  0.00  0.00    +0.292 HD
ENDBRANCH   8  14
BRANCH   9  17
ATOM     16  O   UNL     1      33.984 -19.511 -20.582  0.00  0.00    -0.245 OA
ATOM     17  C   UNL     1      34.830 -18.757 -21.073  0.00  0.00    +0.341 C 
BRANCH  17  18
ATOM     18  O   UNL     1      35.958 -18.397 -20.403  0.00  0.00    -0.477 OA
ATOM     19  H   UNL     1      36.209 -17.495 -20.360  0.00  0.00    +0.295 HD
ENDBRANCH  17  18
ENDBRANCH   9  17
ENDBRANCH   3   6
ENDBRANCH   1   4
BRANCH   1  20
ATOM     20  C   UNL     1      32.509 -11.850 -24.256  0.00  0.00    +0.017 C 
BRANCH  20  31
ATOM     21  O   UNL     1      31.902  -7.580 -24.450  0.00  0.00    -0.361 OA
ATOM     22  O   UNL     1      31.794 -12.922 -21.777  0.00  0.00    -0.291 OA
ATOM     23  C   UNL     1      32.074  -8.743 -21.847  0.00  0.00    +0.024 C 
ATOM     24  C   UNL     1      32.187  -9.592 -23.168  0.00  0.00    +0.038 C 
ATOM     25  C   UNL     1      33.522  -7.090 -22.772  0.00  0.00    +0.028 C 
ATOM     26  C   UNL     1      32.061  -6.818 -23.225  0.00  0.00    +0.093 C 
ATOM     27  C   UNL     1      32.807  -8.707 -24.295  0.00  0.00    +0.116 C 
ATOM     28  C   UNL     1      33.372  -7.978 -21.531  0.00  0.00    +0.007 C 
ATOM     29  C   UNL     1      31.181  -7.520 -22.179  0.00  0.00    +0.031 C 
ATOM     30  C   UNL     1      34.065  -7.951 -23.903  0.00  0.00    +0.032 C 
ATOM     31  C   UNL     1      32.752 -11.028 -22.970  0.00  0.00    +0.059 C 
ATOM     32  C   UNL     1      31.577  -9.548 -20.691  0.00  0.00    -0.024 C 
ATOM     33  C   UNL     1      31.709  -5.369 -23.470  0.00  0.00    +0.030 C 
ATOM     34  C   UNL     1      31.981 -11.704 -21.819  0.00  0.00    +0.172 C 
ATOM     35  C   UNL     1      34.242 -11.134 -22.628  0.00  0.00    +0.008 C 
ATOM     36  C   UNL     1      31.511 -10.882 -20.674  0.00  0.00    +0.033 C 
ENDBRANCH  20  31
ENDBRANCH   1  20
TORSDOF 8
ENDMDL
