MODEL 1
REMARK VINA RESULT:     -10.8      0.000      0.000
REMARK  Name = 43815
REMARK  4 active torsions:
REMARK  status: ('A' for Active; 'I' for Inactive)
REMARK    1  A    between atoms: C_2  and  C_10
REMARK    2  A    between atoms: C_3  and  C_16
REMARK    3  A    between atoms: C_16  and  O_17
REMARK    4  A    between atoms: O_17  and  C_20
REMARK                            x       y       z     vdW  Elec       q    Type
REMARK                         _______ _______ _______ _____ _____    ______ ____
ROOT
ATOM      1  N   UNL     1      35.268 -23.230 -14.133  0.00  0.00    +0.384 N 
ATOM      2  C   UNL     1      32.601 -24.026 -15.059  0.00  0.00    +0.022 C 
ATOM      3  C   UNL     1      33.544 -23.154 -15.928  0.00  0.00    +0.026 C 
ATOM      4  C   UNL     1      32.957 -23.871 -13.568  0.00  0.00    -0.019 C 
ATOM      5  C   UNL     1      35.015 -23.427 -15.560  0.00  0.00    -0.078 C 
ATOM      6  C   UNL     1      34.443 -24.120 -13.320  0.00  0.00    -0.081 C 
ATOM      7  H   UNL     1      35.055 -22.262 -13.889  0.00  0.00    -0.085 HD
ATOM      8  H   UNL     1      36.248 -23.440 -13.948  0.00  0.00    -0.085 HD
ENDROOT
BRANCH   2  10
ATOM      9  F   UNL     1      27.118 -22.975 -15.890  0.00  0.00    -0.204 F 
ATOM     10  C   UNL     1      31.124 -23.743 -15.283  0.00  0.00    -0.022 C 
ATOM     11  C   UNL     1      30.298 -24.740 -15.795  0.00  0.00    -0.002 C 
ATOM     12  C   UNL     1      30.606 -22.489 -14.975  0.00  0.00    -0.002 C 
ATOM     13  C   UNL     1      28.944 -24.481 -16.000  0.00  0.00    +0.029 C 
ATOM     14  C   UNL     1      29.251 -22.229 -15.180  0.00  0.00    +0.029 C 
ATOM     15  C   UNL     1      28.419 -23.225 -15.692  0.00  0.00    +0.140 C 
ENDBRANCH   2  10
BRANCH   3  16
ATOM     16  C   UNL     1      33.339 -23.403 -17.426  0.00  0.00    +0.203 C 
BRANCH  16  17
ATOM     17  O   UNL     1      34.551 -23.114 -18.094  0.00  0.00    -0.475 OA
BRANCH  17  20
ATOM     18  O   UNL     1      36.780 -19.589 -20.514  0.00  0.00    -0.435 OA
ATOM     19  O   UNL     1      34.706 -18.808 -21.457  0.00  0.00    -0.435 OA
ATOM     20  C   UNL     1      34.555 -22.033 -18.943  0.00  0.00    +0.142 C 
ATOM     21  C   UNL     1      35.761 -21.408 -19.245  0.00  0.00    +0.077 C 
ATOM     22  C   UNL     1      33.344 -21.587 -19.486  0.00  0.00    +0.040 C 
ATOM     23  C   UNL     1      35.714 -20.328 -20.101  0.00  0.00    +0.179 C 
ATOM     24  C   UNL     1      34.529 -19.881 -20.641  0.00  0.00    +0.177 C 
ATOM     25  C   UNL     1      33.325 -20.491 -20.352  0.00  0.00    +0.043 C 
ATOM     26  C   UNL     1      36.134 -18.628 -21.373  0.00  0.00    +0.429 C 
ENDBRANCH  17  20
ENDBRANCH  16  17
ENDBRANCH   3  16
TORSDOF 4
ENDMDL
MODEL 2
REMARK VINA RESULT:     -10.8      5.618      9.008
REMARK  Name = 43815
REMARK  4 active torsions:
REMARK  status: ('A' for Active; 'I' for Inactive)
REMARK    1  A    between atoms: C_2  and  C_10
REMARK    2  A    between atoms: C_3  and  C_16
REMARK    3  A    between atoms: C_16  and  O_17
REMARK    4  A    between atoms: O_17  and  C_20
REMARK                            x       y       z     vdW  Elec       q    Type
REMARK                         _______ _______ _______ _____ _____    ______ ____
ROOT
ATOM      1  N   UNL     1      35.352 -16.834 -24.852  0.00  0.00    +0.384 N 
ATOM      2  C   UNL     1      34.273 -18.391 -22.611  0.00  0.00    +0.022 C 
ATOM      3  C   UNL     1      35.100 -17.098 -22.389  0.00  0.00    +0.026 C 
ATOM      4  C   UNL     1      34.625 -19.019 -23.973  0.00  0.00    -0.019 C 
ATOM      5  C   UNL     1      34.972 -16.166 -23.608  0.00  0.00    -0.078 C 
ATOM      6  C   UNL     1      34.508 -18.001 -25.104  0.00  0.00    -0.081 C 
ATOM      7  H   UNL     1      36.325 -17.136 -24.784  0.00  0.00    -0.085 HD
ATOM      8  H   UNL     1      35.232 -16.177 -25.621  0.00  0.00    -0.085 HD
ENDROOT
BRANCH   2  10
ATOM      9  F   UNL     1      34.843 -22.199 -18.485  0.00  0.00    -0.204 F 
ATOM     10  C   UNL     1      34.426 -19.417 -21.499  0.00  0.00    -0.022 C 
ATOM     11  C   UNL     1      33.296 -19.937 -20.877  0.00  0.00    -0.002 C 
ATOM     12  C   UNL     1      35.697 -19.830 -21.111  0.00  0.00    -0.002 C 
ATOM     13  C   UNL     1      33.436 -20.877 -19.857  0.00  0.00    +0.029 C 
ATOM     14  C   UNL     1      35.839 -20.771 -20.091  0.00  0.00    +0.029 C 
ATOM     15  C   UNL     1      34.708 -21.295 -19.464  0.00  0.00    +0.140 C 
ENDBRANCH   2  10
BRANCH   3  16
ATOM     16  C   UNL     1      34.664 -16.348 -21.125  0.00  0.00    +0.203 C 
BRANCH  16  17
ATOM     17  O   UNL     1      33.263 -16.167 -21.178  0.00  0.00    -0.475 OA
BRANCH  17  20
ATOM     18  O   UNL     1      31.722 -11.887 -19.580  0.00  0.00    -0.435 OA
ATOM     19  O   UNL     1      31.434 -11.057 -21.823  0.00  0.00    -0.435 OA
ATOM     20  C   UNL     1      32.804 -14.887 -21.374  0.00  0.00    +0.142 C 
ATOM     21  C   UNL     1      32.515 -14.090 -20.272  0.00  0.00    +0.077 C 
ATOM     22  C   UNL     1      32.640 -14.414 -22.682  0.00  0.00    +0.040 C 
ATOM     23  C   UNL     1      32.057 -12.812 -20.520  0.00  0.00    +0.179 C 
ATOM     24  C   UNL     1      31.893 -12.337 -21.802  0.00  0.00    +0.177 C 
ATOM     25  C   UNL     1      32.176 -13.115 -22.905  0.00  0.00    +0.043 C 
ATOM     26  C   UNL     1      31.328 -10.778 -20.413  0.00  0.00    +0.429 C 
ENDBRANCH  17  20
ENDBRANCH  16  17
ENDBRANCH   3  16
TORSDOF 4
ENDMDL
MODEL 3
REMARK VINA RESULT:     -10.5      2.991      4.553
REMARK  Name = 43815
REMARK  4 active torsions:
REMARK  status: ('A' for Active; 'I' for Inactive)
REMARK    1  A    between atoms: C_2  and  C_10
REMARK    2  A    between atoms: C_3  and  C_16
REMARK    3  A    between atoms: C_16  and  O_17
REMARK    4  A    between atoms: O_17  and  C_20
REMARK                            x       y       z     vdW  Elec       q    Type
REMARK                         _______ _______ _______ _____ _____    ______ ____
ROOT
ATOM      1  N   UNL     1      30.729 -23.329 -15.623  0.00  0.00    +0.384 N 
ATOM      2  C   UNL     1      33.645 -23.012 -15.553  0.00  0.00    +0.022 C 
ATOM      3  C   UNL     1      32.911 -23.577 -16.797  0.00  0.00    +0.026 C 
ATOM      4  C   UNL     1      32.798 -23.241 -14.286  0.00  0.00    -0.019 C 
ATOM      5  C   UNL     1      31.467 -23.043 -16.853  0.00  0.00    -0.078 C 
ATOM      6  C   UNL     1      31.376 -22.717 -14.464  0.00  0.00    -0.081 C 
ATOM      7  H   UNL     1      30.689 -24.339 -15.486  0.00  0.00    -0.085 HD
ATOM      8  H   UNL     1      29.791 -22.940 -15.711  0.00  0.00    -0.085 HD
ENDROOT
BRANCH   2  10
ATOM      9  F   UNL     1      38.848 -25.081 -14.842  0.00  0.00    -0.204 F 
ATOM     10  C   UNL     1      35.046 -23.570 -15.361  0.00  0.00    -0.022 C 
ATOM     11  C   UNL     1      35.217 -24.895 -14.971  0.00  0.00    -0.002 C 
ATOM     12  C   UNL     1      36.151 -22.751 -15.577  0.00  0.00    -0.002 C 
ATOM     13  C   UNL     1      36.502 -25.406 -14.795  0.00  0.00    +0.029 C 
ATOM     14  C   UNL     1      37.437 -23.262 -15.402  0.00  0.00    +0.029 C 
ATOM     15  C   UNL     1      37.613 -24.590 -15.011  0.00  0.00    +0.140 C 
ENDBRANCH   2  10
BRANCH   3  16
ATOM     16  C   UNL     1      33.636 -23.224 -18.101  0.00  0.00    +0.203 C 
BRANCH  16  17
ATOM     17  O   UNL     1      32.851 -22.280 -18.802  0.00  0.00    -0.475 OA
BRANCH  17  20
ATOM     18  O   UNL     1      36.883 -20.159 -20.380  0.00  0.00    -0.435 OA
ATOM     19  O   UNL     1      35.635 -18.548 -21.665  0.00  0.00    -0.435 OA
ATOM     20  C   UNL     1      33.521 -21.328 -19.532  0.00  0.00    +0.142 C 
ATOM     21  C   UNL     1      34.911 -21.312 -19.519  0.00  0.00    +0.077 C 
ATOM     22  C   UNL     1      32.786 -20.396 -20.275  0.00  0.00    +0.040 C 
ATOM     23  C   UNL     1      35.539 -20.338 -20.267  0.00  0.00    +0.179 C 
ATOM     24  C   UNL     1      34.826 -19.417 -21.001  0.00  0.00    +0.177 C 
ATOM     25  C   UNL     1      33.447 -19.420 -21.026  0.00  0.00    +0.043 C 
ATOM     26  C   UNL     1      36.937 -19.023 -21.268  0.00  0.00    +0.429 C 
ENDBRANCH  17  20
ENDBRANCH  16  17
ENDBRANCH   3  16
TORSDOF 4
ENDMDL
MODEL 4
REMARK VINA RESULT:     -10.5      2.988      4.759
REMARK  Name = 43815
REMARK  4 active torsions:
REMARK  status: ('A' for Active; 'I' for Inactive)
REMARK    1  A    between atoms: C_2  and  C_10
REMARK    2  A    between atoms: C_3  and  C_16
REMARK    3  A    between atoms: C_16  and  O_17
REMARK    4  A    between atoms: O_17  and  C_20
REMARK                            x       y       z     vdW  Elec       q    Type
REMARK                         _______ _______ _______ _____ _____    ______ ____
ROOT
ATOM      1  N   UNL     1      30.692 -23.289 -15.579  0.00  0.00    +0.384 N 
ATOM      2  C   UNL     1      33.611 -22.999 -15.606  0.00  0.00    +0.022 C 
ATOM      3  C   UNL     1      32.842 -23.661 -16.778  0.00  0.00    +0.026 C 
ATOM      4  C   UNL     1      32.793 -23.108 -14.305  0.00  0.00    -0.019 C 
ATOM      5  C   UNL     1      31.401 -23.119 -16.846  0.00  0.00    -0.078 C 
ATOM      6  C   UNL     1      31.371 -22.585 -14.494  0.00  0.00    -0.081 C 
ATOM      7  H   UNL     1      30.646 -24.283 -15.354  0.00  0.00    -0.085 HD
ATOM      8  H   UNL     1      29.755 -22.899 -15.679  0.00  0.00    -0.085 HD
ENDROOT
BRANCH   2  10
ATOM      9  F   UNL     1      38.809 -25.058 -14.840  0.00  0.00    -0.204 F 
ATOM     10  C   UNL     1      35.012 -23.553 -15.400  0.00  0.00    -0.022 C 
ATOM     11  C   UNL     1      36.118 -22.745 -15.640  0.00  0.00    -0.002 C 
ATOM     12  C   UNL     1      35.178 -24.867 -14.972  0.00  0.00    -0.002 C 
ATOM     13  C   UNL     1      37.403 -23.253 -15.451  0.00  0.00    +0.029 C 
ATOM     14  C   UNL     1      36.463 -25.376 -14.781  0.00  0.00    +0.029 C 
ATOM     15  C   UNL     1      37.576 -24.570 -15.021  0.00  0.00    +0.140 C 
ENDBRANCH   2  10
BRANCH   3  16
ATOM     16  C   UNL     1      33.537 -23.431 -18.125  0.00  0.00    +0.203 C 
BRANCH  16  17
ATOM     17  O   UNL     1      32.952 -22.299 -18.738  0.00  0.00    -0.475 OA
BRANCH  17  20
ATOM     18  O   UNL     1      33.802 -18.532 -21.625  0.00  0.00    -0.435 OA
ATOM     19  O   UNL     1      36.185 -18.864 -21.500  0.00  0.00    -0.435 OA
ATOM     20  C   UNL     1      33.793 -21.453 -19.421  0.00  0.00    +0.142 C 
ATOM     21  C   UNL     1      33.252 -20.416 -20.174  0.00  0.00    +0.077 C 
ATOM     22  C   UNL     1      35.176 -21.655 -19.343  0.00  0.00    +0.040 C 
ATOM     23  C   UNL     1      34.135 -19.594 -20.842  0.00  0.00    +0.179 C 
ATOM     24  C   UNL     1      35.497 -19.783 -20.771  0.00  0.00    +0.177 C 
ATOM     25  C   UNL     1      36.049 -20.806 -20.028  0.00  0.00    +0.043 C 
ATOM     26  C   UNL     1      35.106 -18.074 -22.039  0.00  0.00    +0.429 C 
ENDBRANCH  17  20
ENDBRANCH  16  17
ENDBRANCH   3  16
TORSDOF 4
ENDMDL
MODEL 5
REMARK VINA RESULT:     -10.3      4.785      9.118
REMARK  Name = 43815
REMARK  4 active torsions:
REMARK  status: ('A' for Active; 'I' for Inactive)
REMARK    1  A    between atoms: C_2  and  C_10
REMARK    2  A    between atoms: C_3  and  C_16
REMARK    3  A    between atoms: C_16  and  O_17
REMARK    4  A    between atoms: O_17  and  C_20
REMARK                            x       y       z     vdW  Elec       q    Type
REMARK                         _______ _______ _______ _____ _____    ______ ____
ROOT
ATOM      1  N   UNL     1      34.516 -18.489 -25.141  0.00  0.00    +0.384 N 
ATOM      2  C   UNL     1      34.481 -16.283 -23.207  0.00  0.00    +0.022 C 
ATOM      3  C   UNL     1      34.261 -17.756 -22.775  0.00  0.00    +0.026 C 
ATOM      4  C   UNL     1      34.102 -16.102 -24.689  0.00  0.00    -0.019 C 
ATOM      5  C   UNL     1      34.955 -18.712 -23.764  0.00  0.00    -0.078 C 
ATOM      6  C   UNL     1      34.809 -17.124 -25.575  0.00  0.00    -0.081 C 
ATOM      7  H   UNL     1      33.509 -18.648 -25.198  0.00  0.00    -0.085 HD
ATOM      8  H   UNL     1      35.018 -19.135 -25.748  0.00  0.00    -0.085 HD
ENDROOT
BRANCH   2  10
ATOM      9  F   UNL     1      31.737 -12.533 -20.004  0.00  0.00    -0.204 F 
ATOM     10  C   UNL     1      33.742 -15.273 -22.343  0.00  0.00    -0.022 C 
ATOM     11  C   UNL     1      33.777 -15.390 -20.957  0.00  0.00    -0.002 C 
ATOM     12  C   UNL     1      33.034 -14.237 -22.945  0.00  0.00    -0.002 C 
ATOM     13  C   UNL     1      33.099 -14.464 -20.166  0.00  0.00    +0.029 C 
ATOM     14  C   UNL     1      32.356 -13.309 -22.154  0.00  0.00    +0.029 C 
ATOM     15  C   UNL     1      32.388 -13.423 -20.764  0.00  0.00    +0.140 C 
ENDBRANCH   2  10
BRANCH   3  16
ATOM     16  C   UNL     1      34.783 -18.022 -21.358  0.00  0.00    +0.203 C 
BRANCH  16  17
ATOM     17  O   UNL     1      35.625 -19.157 -21.402  0.00  0.00    -0.475 OA
BRANCH  17  20
ATOM     18  O   UNL     1      32.738 -22.090 -18.888  0.00  0.00    -0.435 OA
ATOM     19  O   UNL     1      34.603 -23.053 -17.706  0.00  0.00    -0.435 OA
ATOM     20  C   UNL     1      35.402 -20.138 -20.466  0.00  0.00    +0.142 C 
ATOM     21  C   UNL     1      34.100 -20.561 -20.217  0.00  0.00    +0.077 C 
ATOM     22  C   UNL     1      36.493 -20.692 -19.784  0.00  0.00    +0.040 C 
ATOM     23  C   UNL     1      33.927 -21.548 -19.269  0.00  0.00    +0.179 C 
ATOM     24  C   UNL     1      34.992 -22.099 -18.594  0.00  0.00    +0.177 C 
ATOM     25  C   UNL     1      36.289 -21.692 -18.829  0.00  0.00    +0.043 C 
ATOM     26  C   UNL     1      33.174 -23.043 -17.898  0.00  0.00    +0.429 C 
ENDBRANCH  17  20
ENDBRANCH  16  17
ENDBRANCH   3  16
TORSDOF 4
ENDMDL
MODEL 6
REMARK VINA RESULT:     -10.2      1.582      2.370
REMARK  Name = 43815
REMARK  4 active torsions:
REMARK  status: ('A' for Active; 'I' for Inactive)
REMARK    1  A    between atoms: C_2  and  C_10
REMARK    2  A    between atoms: C_3  and  C_16
REMARK    3  A    between atoms: C_16  and  O_17
REMARK    4  A    between atoms: O_17  and  C_20
REMARK                            x       y       z     vdW  Elec       q    Type
REMARK                         _______ _______ _______ _____ _____    ______ ____
ROOT
ATOM      1  N   UNL     1      37.934 -24.608 -14.714  0.00  0.00    +0.384 N 
ATOM      2  C   UNL     1      35.235 -24.094 -15.743  0.00  0.00    +0.022 C 
ATOM      3  C   UNL     1      36.261 -22.952 -15.526  0.00  0.00    +0.026 C 
ATOM      4  C   UNL     1      35.568 -25.288 -14.829  0.00  0.00    -0.019 C 
ATOM      5  C   UNL     1      37.698 -23.497 -15.635  0.00  0.00    -0.078 C 
ATOM      6  C   UNL     1      37.024 -25.720 -14.982  0.00  0.00    -0.081 C 
ATOM      7  H   UNL     1      37.789 -24.283 -13.757  0.00  0.00    -0.085 HD
ATOM      8  H   UNL     1      38.890 -24.936 -14.842  0.00  0.00    -0.085 HD
ENDROOT
BRANCH   2  10
ATOM      9  F   UNL     1      29.869 -22.502 -15.021  0.00  0.00    -0.204 F 
ATOM     10  C   UNL     1      33.789 -23.665 -15.549  0.00  0.00    -0.022 C 
ATOM     11  C   UNL     1      32.975 -23.453 -16.658  0.00  0.00    -0.002 C 
ATOM     12  C   UNL     1      33.288 -23.487 -14.263  0.00  0.00    -0.002 C 
ATOM     13  C   UNL     1      31.650 -23.059 -16.480  0.00  0.00    +0.029 C 
ATOM     14  C   UNL     1      31.962 -23.094 -14.084  0.00  0.00    +0.029 C 
ATOM     15  C   UNL     1      31.142 -22.880 -15.192  0.00  0.00    +0.140 C 
ENDBRANCH   2  10
BRANCH   3  16
ATOM     16  C   UNL     1      36.072 -21.811 -16.533  0.00  0.00    +0.203 C 
BRANCH  16  17
ATOM     17  O   UNL     1      36.083 -22.362 -17.835  0.00  0.00    -0.475 OA
BRANCH  17  20
ATOM     18  O   UNL     1      36.656 -19.029 -21.272  0.00  0.00    -0.435 OA
ATOM     19  O   UNL     1      34.335 -19.159 -21.904  0.00  0.00    -0.435 OA
ATOM     20  C   UNL     1      35.611 -21.569 -18.853  0.00  0.00    +0.142 C 
ATOM     21  C   UNL     1      36.485 -20.705 -19.505  0.00  0.00    +0.077 C 
ATOM     22  C   UNL     1      34.260 -21.651 -19.213  0.00  0.00    +0.040 C 
ATOM     23  C   UNL     1      35.965 -19.930 -20.521  0.00  0.00    +0.179 C 
ATOM     24  C   UNL     1      34.639 -20.004 -20.883  0.00  0.00    +0.177 C 
ATOM     25  C   UNL     1      33.760 -20.856 -20.247  0.00  0.00    +0.043 C 
ATOM     26  C   UNL     1      35.617 -18.544 -22.147  0.00  0.00    +0.429 C 
ENDBRANCH  17  20
ENDBRANCH  16  17
ENDBRANCH   3  16
TORSDOF 4
ENDMDL
MODEL 7
REMARK VINA RESULT:     -10.0      3.123      4.860
REMARK  Name = 43815
REMARK  4 active torsions:
REMARK  status: ('A' for Active; 'I' for Inactive)
REMARK    1  A    between atoms: C_2  and  C_10
REMARK    2  A    between atoms: C_3  and  C_16
REMARK    3  A    between atoms: C_16  and  O_17
REMARK    4  A    between atoms: O_17  and  C_20
REMARK                            x       y       z     vdW  Elec       q    Type
REMARK                         _______ _______ _______ _____ _____    ______ ____
ROOT
ATOM      1  N   UNL     1      31.261 -23.921 -15.701  0.00  0.00    +0.384 N 
ATOM      2  C   UNL     1      33.979 -23.657 -14.631  0.00  0.00    +0.022 C 
ATOM      3  C   UNL     1      33.697 -23.680 -16.156  0.00  0.00    +0.026 C 
ATOM      4  C   UNL     1      32.847 -24.371 -13.869  0.00  0.00    -0.019 C 
ATOM      5  C   UNL     1      32.272 -23.169 -16.443  0.00  0.00    -0.078 C 
ATOM      6  C   UNL     1      31.478 -23.820 -14.259  0.00  0.00    -0.081 C 
ATOM      7  H   UNL     1      31.307 -24.902 -15.977  0.00  0.00    -0.085 HD
ATOM      8  H   UNL     1      30.344 -23.529 -15.917  0.00  0.00    -0.085 HD
ENDROOT
BRANCH   2  10
ATOM      9  F   UNL     1      38.987 -25.835 -13.207  0.00  0.00    -0.204 F 
ATOM     10  C   UNL     1      35.328 -24.244 -14.248  0.00  0.00    -0.022 C 
ATOM     11  C   UNL     1      35.793 -25.388 -14.890  0.00  0.00    -0.002 C 
ATOM     12  C   UNL     1      36.091 -23.634 -13.257  0.00  0.00    -0.002 C 
ATOM     13  C   UNL     1      37.030 -25.927 -14.538  0.00  0.00    +0.029 C 
ATOM     14  C   UNL     1      37.329 -24.171 -12.904  0.00  0.00    +0.029 C 
ATOM     15  C   UNL     1      37.799 -25.318 -13.545  0.00  0.00    +0.140 C 
ENDBRANCH   2  10
BRANCH   3  16
ATOM     16  C   UNL     1      34.708 -22.837 -16.940  0.00  0.00    +0.203 C 
BRANCH  16  17
ATOM     17  O   UNL     1      34.395 -22.935 -18.316  0.00  0.00    -0.475 OA
BRANCH  17  20
ATOM     18  O   UNL     1      33.492 -19.292 -21.342  0.00  0.00    -0.435 OA
ATOM     19  O   UNL     1      35.836 -18.777 -21.557  0.00  0.00    -0.435 OA
ATOM     20  C   UNL     1      34.790 -21.896 -19.123  0.00  0.00    +0.142 C 
ATOM     21  C   UNL     1      33.828 -21.157 -19.803  0.00  0.00    +0.077 C 
ATOM     22  C   UNL     1      36.155 -21.605 -19.242  0.00  0.00    +0.040 C 
ATOM     23  C   UNL     1      34.274 -20.124 -20.602  0.00  0.00    +0.179 C 
ATOM     24  C   UNL     1      35.613 -19.829 -20.724  0.00  0.00    +0.177 C 
ATOM     25  C   UNL     1      36.580 -20.552 -20.056  0.00  0.00    +0.043 C 
ATOM     26  C   UNL     1      34.488 -18.441 -21.945  0.00  0.00    +0.429 C 
ENDBRANCH  17  20
ENDBRANCH  16  17
ENDBRANCH   3  16
TORSDOF 4
ENDMDL
MODEL 8
REMARK VINA RESULT:      -9.8      5.841     10.042
REMARK  Name = 43815
REMARK  4 active torsions:
REMARK  status: ('A' for Active; 'I' for Inactive)
REMARK    1  A    between atoms: C_2  and  C_10
REMARK    2  A    between atoms: C_3  and  C_16
REMARK    3  A    between atoms: C_16  and  O_17
REMARK    4  A    between atoms: O_17  and  C_20
REMARK                            x       y       z     vdW  Elec       q    Type
REMARK                         _______ _______ _______ _____ _____    ______ ____
ROOT
ATOM      1  N   UNL     1      33.571 -16.351 -25.847  0.00  0.00    +0.384 N 
ATOM      2  C   UNL     1      33.636 -14.364 -23.690  0.00  0.00    +0.022 C 
ATOM      3  C   UNL     1      33.839 -15.877 -23.417  0.00  0.00    +0.026 C 
ATOM      4  C   UNL     1      32.836 -14.160 -24.990  0.00  0.00    -0.019 C 
ATOM      5  C   UNL     1      34.407 -16.574 -24.668  0.00  0.00    -0.078 C 
ATOM      6  C   UNL     1      33.458 -14.927 -26.154  0.00  0.00    -0.081 C 
ATOM      7  H   UNL     1      32.640 -16.728 -25.670  0.00  0.00    -0.085 HD
ATOM      8  H   UNL     1      34.004 -16.819 -26.643  0.00  0.00    -0.085 HD
ENDROOT
BRANCH   2  10
ATOM      9  F   UNL     1      31.197 -11.586 -19.425  0.00  0.00    -0.204 F 
ATOM     10  C   UNL     1      32.979 -13.616 -22.540  0.00  0.00    -0.022 C 
ATOM     11  C   UNL     1      32.941 -14.189 -21.273  0.00  0.00    -0.002 C 
ATOM     12  C   UNL     1      32.420 -12.362 -22.763  0.00  0.00    -0.002 C 
ATOM     13  C   UNL     1      32.338 -13.504 -20.219  0.00  0.00    +0.029 C 
ATOM     14  C   UNL     1      31.817 -11.674 -21.710  0.00  0.00    +0.029 C 
ATOM     15  C   UNL     1      31.776 -12.245 -20.437  0.00  0.00    +0.140 C 
ENDBRANCH   2  10
BRANCH   3  16
ATOM     16  C   UNL     1      34.772 -16.127 -22.227  0.00  0.00    +0.203 C 
BRANCH  16  17
ATOM     17  O   UNL     1      35.568 -17.258 -22.517  0.00  0.00    -0.475 OA
BRANCH  17  20
ATOM     18  O   UNL     1      32.853 -20.554 -20.278  0.00  0.00    -0.435 OA
ATOM     19  O   UNL     1      34.789 -21.634 -19.335  0.00  0.00    -0.435 OA
ATOM     20  C   UNL     1      35.406 -18.360 -21.712  0.00  0.00    +0.142 C 
ATOM     21  C   UNL     1      34.124 -18.836 -21.456  0.00  0.00    +0.077 C 
ATOM     22  C   UNL     1      36.538 -18.980 -21.168  0.00  0.00    +0.040 C 
ATOM     23  C   UNL     1      34.013 -19.945 -20.643  0.00  0.00    +0.179 C 
ATOM     24  C   UNL     1      35.120 -20.562 -20.104  0.00  0.00    +0.177 C 
ATOM     25  C   UNL     1      36.397 -20.103 -20.348  0.00  0.00    +0.043 C 
ATOM     26  C   UNL     1      33.352 -21.624 -19.449  0.00  0.00    +0.429 C 
ENDBRANCH  17  20
ENDBRANCH  16  17
ENDBRANCH   3  16
TORSDOF 4
ENDMDL
MODEL 9
REMARK VINA RESULT:      -9.6      8.583     11.942
REMARK  Name = 43815
REMARK  4 active torsions:
REMARK  status: ('A' for Active; 'I' for Inactive)
REMARK    1  A    between atoms: C_2  and  C_10
REMARK    2  A    between atoms: C_3  and  C_16
REMARK    3  A    between atoms: C_16  and  O_17
REMARK    4  A    between atoms: O_17  and  C_20
REMARK                            x       y       z     vdW  Elec       q    Type
REMARK                         _______ _______ _______ _____ _____    ______ ____
ROOT
ATOM      1  N   UNL     1      33.372 -13.402 -26.095  0.00  0.00    +0.384 N 
ATOM      2  C   UNL     1      33.528 -15.497 -24.048  0.00  0.00    +0.022 C 
ATOM      3  C   UNL     1      33.708 -13.996 -23.701  0.00  0.00    +0.026 C 
ATOM      4  C   UNL     1      33.877 -15.746 -25.528  0.00  0.00    -0.019 C 
ATOM      5  C   UNL     1      32.959 -13.118 -24.721  0.00  0.00    -0.078 C 
ATOM      6  C   UNL     1      33.116 -14.796 -26.449  0.00  0.00    -0.081 C 
ATOM      7  H   UNL     1      34.371 -13.213 -26.188  0.00  0.00    -0.085 HD
ATOM      8  H   UNL     1      32.834 -12.806 -26.723  0.00  0.00    -0.085 HD
ENDROOT
BRANCH   2  10
ATOM      9  F   UNL     1      36.475 -18.976 -20.722  0.00  0.00    -0.204 F 
ATOM     10  C   UNL     1      34.322 -16.434 -23.152  0.00  0.00    -0.022 C 
ATOM     11  C   UNL     1      34.295 -16.260 -21.771  0.00  0.00    -0.002 C 
ATOM     12  C   UNL     1      35.072 -17.461 -23.717  0.00  0.00    -0.002 C 
ATOM     13  C   UNL     1      35.023 -17.119 -20.949  0.00  0.00    +0.029 C 
ATOM     14  C   UNL     1      35.800 -18.321 -22.896  0.00  0.00    +0.029 C 
ATOM     15  C   UNL     1      35.776 -18.151 -21.511  0.00  0.00    +0.140 C 
ENDBRANCH   2  10
BRANCH   3  16
ATOM     16  C   UNL     1      33.212 -13.670 -22.287  0.00  0.00    +0.203 C 
BRANCH  16  17
ATOM     17  O   UNL     1      32.057 -12.863 -22.398  0.00  0.00    -0.475 OA
BRANCH  17  20
ATOM     18  O   UNL     1      32.226  -8.097 -21.684  0.00  0.00    -0.435 OA
ATOM     19  O   UNL     1      31.826  -8.351 -19.322  0.00  0.00    -0.435 OA
ATOM     20  C   UNL     1      31.994 -11.748 -21.597  0.00  0.00    +0.142 C 
ATOM     21  C   UNL     1      32.161 -10.490 -22.165  0.00  0.00    +0.077 C 
ATOM     22  C   UNL     1      31.761 -11.906 -20.225  0.00  0.00    +0.040 C 
ATOM     23  C   UNL     1      32.089  -9.401 -21.320  0.00  0.00    +0.179 C 
ATOM     24  C   UNL     1      31.860  -9.546 -19.970  0.00  0.00    +0.177 C 
ATOM     25  C   UNL     1      31.692 -10.787 -19.392  0.00  0.00    +0.043 C 
ATOM     26  C   UNL     1      32.058  -7.437 -20.413  0.00  0.00    +0.429 C 
ENDBRANCH  17  20
ENDBRANCH  16  17
ENDBRANCH   3  16
TORSDOF 4
ENDMDL
