MODEL 1
REMARK VINA RESULT:     -10.8      0.000      0.000
REMARK  Name = 62307
REMARK  5 active torsions:
REMARK  status: ('A' for Active; 'I' for Inactive)
REMARK    1  A    between atoms: N_1  and  C_18
REMARK    2  A    between atoms: C_2  and  N_9
REMARK    3  A    between atoms: N_9  and  C_12
REMARK    4  A    between atoms: C_18  and  C_20
REMARK    5  A    between atoms: C_20  and  C_21
REMARK                            x       y       z     vdW  Elec       q    Type
REMARK                         _______ _______ _______ _____ _____    ______ ____
ROOT
ATOM      1  N   UNL     1      33.011 -13.780 -22.342  0.00  0.00    +0.389 N 
ATOM      2  C   UNL     1      34.673 -16.140 -22.821  0.00  0.00    +0.076 C 
ATOM      3  C   UNL     1      33.814 -15.987 -21.564  0.00  0.00    -0.003 C 
ATOM      4  C   UNL     1      34.092 -15.306 -23.962  0.00  0.00    -0.003 C 
ATOM      5  C   UNL     1      33.602 -14.514 -21.214  0.00  0.00    -0.076 C 
ATOM      6  C   UNL     1      33.869 -13.854 -23.532  0.00  0.00    -0.076 C 
ATOM      7  H   UNL     1      32.119 -14.220 -22.570  0.00  0.00    -0.080 HD
ENDROOT
BRANCH   2   9
ATOM      8  O   UNL     1      34.269 -17.283 -25.509  0.00  0.00    -0.275 OA
ATOM      9  N   UNL     1      34.789 -17.525 -23.204  0.00  0.00    -0.260 N 
ATOM     10  C   UNL     1      34.573 -17.977 -24.536  0.00  0.00    +0.230 C 
ATOM     11  C   UNL     1      34.786 -19.456 -24.763  0.00  0.00    +0.095 C 
BRANCH   9  12
ATOM     12  C   UNL     1      35.049 -18.498 -22.145  0.00  0.00    +0.054 C 
ATOM     13  C   UNL     1      33.991 -19.223 -21.681  0.00  0.00    +0.015 C 
ATOM     14  C   UNL     1      36.330 -18.613 -21.693  0.00  0.00    +0.015 C 
ATOM     15  C   UNL     1      34.239 -20.152 -20.670  0.00  0.00    +0.001 C 
ATOM     16  C   UNL     1      36.577 -19.542 -20.683  0.00  0.00    +0.001 C 
ATOM     17  C   UNL     1      35.532 -20.312 -20.172  0.00  0.00    +0.000 C 
ENDBRANCH   9  12
ENDBRANCH   2   9
BRANCH   1  18
ATOM     18  C   UNL     1      32.768 -12.385 -21.974  0.00  0.00    -0.054 C 
ATOM     19  C   UNL     1      31.646 -12.350 -20.936  0.00  0.00    -0.023 C 
BRANCH  18  20
ATOM     20  C   UNL     1      32.428 -11.572 -23.236  0.00  0.00    +0.006 C 
BRANCH  20  21
ATOM     21  C   UNL     1      33.158 -10.254 -23.321  0.00  0.00    -0.024 C 
ATOM     22  C   UNL     1      34.270 -10.145 -24.143  0.00  0.00    -0.004 C 
ATOM     23  C   UNL     1      32.707  -9.177 -22.575  0.00  0.00    -0.004 C 
ATOM     24  C   UNL     1      34.945  -8.928 -24.221  0.00  0.00    -0.000 C 
ATOM     25  C   UNL     1      33.382  -7.960 -22.654  0.00  0.00    -0.000 C 
ATOM     26  C   UNL     1      34.501  -7.834 -23.476  0.00  0.00    -0.000 C 
ENDBRANCH  20  21
ENDBRANCH  18  20
ENDBRANCH   1  18
TORSDOF 5
ENDMDL
MODEL 2
REMARK VINA RESULT:     -10.6      2.749      9.322
REMARK  Name = 62307
REMARK  5 active torsions:
REMARK  status: ('A' for Active; 'I' for Inactive)
REMARK    1  A    between atoms: N_1  and  C_18
REMARK    2  A    between atoms: C_2  and  N_9
REMARK    3  A    between atoms: N_9  and  C_12
REMARK    4  A    between atoms: C_18  and  C_20
REMARK    5  A    between atoms: C_20  and  C_21
REMARK                            x       y       z     vdW  Elec       q    Type
REMARK                         _______ _______ _______ _____ _____    ______ ____
ROOT
ATOM      1  N   UNL     1      33.135 -13.004 -22.455  0.00  0.00    +0.389 N 
ATOM      2  C   UNL     1      32.135 -10.255 -22.440  0.00  0.00    +0.076 C 
ATOM      3  C   UNL     1      31.918 -11.209 -21.265  0.00  0.00    -0.003 C 
ATOM      4  C   UNL     1      33.373 -10.668 -23.234  0.00  0.00    -0.003 C 
ATOM      5  C   UNL     1      31.902 -12.666 -21.729  0.00  0.00    -0.076 C 
ATOM      6  C   UNL     1      33.310 -12.144 -23.633  0.00  0.00    -0.076 C 
ATOM      7  H   UNL     1      33.923 -12.843 -21.827  0.00  0.00    -0.080 HD
ENDROOT
BRANCH   2   9
ATOM      8  O   UNL     1      32.248  -9.310 -19.648  0.00  0.00    -0.275 OA
ATOM      9  N   UNL     1      32.246  -8.890 -21.987  0.00  0.00    -0.260 N 
ATOM     10  C   UNL     1      32.293  -8.537 -20.609  0.00  0.00    +0.230 C 
ATOM     11  C   UNL     1      32.460  -7.063 -20.322  0.00  0.00    +0.095 C 
BRANCH   9  12
ATOM     12  C   UNL     1      32.213  -7.839 -23.001  0.00  0.00    +0.054 C 
ATOM     13  C   UNL     1      33.407  -7.359 -23.451  0.00  0.00    +0.015 C 
ATOM     14  C   UNL     1      30.991  -7.409 -23.425  0.00  0.00    +0.015 C 
ATOM     15  C   UNL     1      33.375  -6.355 -24.419  0.00  0.00    +0.001 C 
ATOM     16  C   UNL     1      30.960  -6.406 -24.393  0.00  0.00    +0.001 C 
ATOM     17  C   UNL     1      32.152  -5.878 -24.890  0.00  0.00    +0.000 C 
ENDBRANCH   9  12
ENDBRANCH   2   9
BRANCH   1  18
ATOM     18  C   UNL     1      33.127 -14.414 -22.847  0.00  0.00    -0.054 C 
ATOM     19  C   UNL     1      32.615 -15.239 -21.667  0.00  0.00    -0.023 C 
BRANCH  18  20
ATOM     20  C   UNL     1      34.541 -14.833 -23.289  0.00  0.00    +0.006 C 
BRANCH  20  21
ATOM     21  C   UNL     1      34.666 -16.304 -23.600  0.00  0.00    -0.024 C 
ATOM     22  C   UNL     1      34.217 -16.781 -24.823  0.00  0.00    -0.004 C 
ATOM     23  C   UNL     1      35.225 -17.153 -22.658  0.00  0.00    -0.004 C 
ATOM     24  C   UNL     1      34.332 -18.141 -25.109  0.00  0.00    -0.000 C 
ATOM     25  C   UNL     1      35.341 -18.512 -22.946  0.00  0.00    -0.000 C 
ATOM     26  C   UNL     1      34.894 -19.007 -24.171  0.00  0.00    -0.000 C 
ENDBRANCH  20  21
ENDBRANCH  18  20
ENDBRANCH   1  18
TORSDOF 5
ENDMDL
MODEL 3
REMARK VINA RESULT:     -10.5      1.661      8.295
REMARK  Name = 62307
REMARK  5 active torsions:
REMARK  status: ('A' for Active; 'I' for Inactive)
REMARK    1  A    between atoms: N_1  and  C_18
REMARK    2  A    between atoms: C_2  and  N_9
REMARK    3  A    between atoms: N_9  and  C_12
REMARK    4  A    between atoms: C_18  and  C_20
REMARK    5  A    between atoms: C_20  and  C_21
REMARK                            x       y       z     vdW  Elec       q    Type
REMARK                         _______ _______ _______ _____ _____    ______ ____
ROOT
ATOM      1  N   UNL     1      35.539 -17.276 -23.503  0.00  0.00    +0.389 N 
ATOM      2  C   UNL     1      33.609 -15.256 -24.372  0.00  0.00    +0.076 C 
ATOM      3  C   UNL     1      34.602 -15.002 -23.237  0.00  0.00    -0.003 C 
ATOM      4  C   UNL     1      34.152 -16.327 -25.318  0.00  0.00    -0.003 C 
ATOM      5  C   UNL     1      34.995 -16.306 -22.542  0.00  0.00    -0.076 C 
ATOM      6  C   UNL     1      34.561 -17.588 -24.553  0.00  0.00    -0.076 C 
ATOM      7  H   UNL     1      36.355 -16.855 -23.947  0.00  0.00    -0.080 HD
ENDROOT
BRANCH   2   9
ATOM      8  O   UNL     1      33.469 -14.901 -27.297  0.00  0.00    -0.275 OA
ATOM      9  N   UNL     1      33.316 -14.039 -25.088  0.00  0.00    -0.260 N 
ATOM     10  C   UNL     1      33.272 -13.972 -26.509  0.00  0.00    +0.230 C 
ATOM     11  C   UNL     1      32.903 -12.625 -27.085  0.00  0.00    +0.095 C 
BRANCH   9  12
ATOM     12  C   UNL     1      33.154 -12.818 -24.303  0.00  0.00    +0.054 C 
ATOM     13  C   UNL     1      33.926 -11.745 -24.638  0.00  0.00    +0.015 C 
ATOM     14  C   UNL     1      32.243 -12.835 -23.289  0.00  0.00    +0.015 C 
ATOM     15  C   UNL     1      33.771 -10.579 -23.888  0.00  0.00    +0.001 C 
ATOM     16  C   UNL     1      32.089 -11.669 -22.540  0.00  0.00    +0.001 C 
ATOM     17  C   UNL     1      32.852 -10.541 -22.840  0.00  0.00    +0.000 C 
ENDBRANCH   9  12
ENDBRANCH   2   9
BRANCH   1  18
ATOM     18  C   UNL     1      35.957 -18.498 -22.814  0.00  0.00    -0.054 C 
ATOM     19  C   UNL     1      35.209 -19.679 -23.434  0.00  0.00    -0.023 C 
BRANCH  18  20
ATOM     20  C   UNL     1      35.686 -18.356 -21.305  0.00  0.00    +0.006 C 
BRANCH  20  21
ATOM     21  C   UNL     1      35.077 -19.588 -20.682  0.00  0.00    -0.024 C 
ATOM     22  C   UNL     1      33.698 -19.717 -20.639  0.00  0.00    -0.004 C 
ATOM     23  C   UNL     1      35.908 -20.567 -20.161  0.00  0.00    -0.004 C 
ATOM     24  C   UNL     1      33.136 -20.855 -20.062  0.00  0.00    -0.000 C 
ATOM     25  C   UNL     1      35.345 -21.705 -19.585  0.00  0.00    -0.000 C 
ATOM     26  C   UNL     1      33.959 -21.850 -19.535  0.00  0.00    -0.000 C 
ENDBRANCH  20  21
ENDBRANCH  18  20
ENDBRANCH   1  18
TORSDOF 5
ENDMDL
MODEL 4
REMARK VINA RESULT:     -10.5      2.302      8.609
REMARK  Name = 62307
REMARK  5 active torsions:
REMARK  status: ('A' for Active; 'I' for Inactive)
REMARK    1  A    between atoms: N_1  and  C_18
REMARK    2  A    between atoms: C_2  and  N_9
REMARK    3  A    between atoms: N_9  and  C_12
REMARK    4  A    between atoms: C_18  and  C_20
REMARK    5  A    between atoms: C_20  and  C_21
REMARK                            x       y       z     vdW  Elec       q    Type
REMARK                         _______ _______ _______ _____ _____    ______ ____
ROOT
ATOM      1  N   UNL     1      35.395 -17.057 -21.649  0.00  0.00    +0.389 N 
ATOM      2  C   UNL     1      33.412 -15.193 -22.721  0.00  0.00    +0.076 C 
ATOM      3  C   UNL     1      33.636 -15.371 -21.219  0.00  0.00    -0.003 C 
ATOM      4  C   UNL     1      34.675 -15.573 -23.492  0.00  0.00    -0.003 C 
ATOM      5  C   UNL     1      34.163 -16.771 -20.899  0.00  0.00    -0.076 C 
ATOM      6  C   UNL     1      35.168 -16.967 -23.097  0.00  0.00    -0.076 C 
ATOM      7  H   UNL     1      36.088 -16.354 -21.394  0.00  0.00    -0.080 HD
ENDROOT
BRANCH   2   9
ATOM      8  O   UNL     1      32.033 -13.295 -20.933  0.00  0.00    -0.275 OA
ATOM      9  N   UNL     1      33.009 -13.843 -23.029  0.00  0.00    -0.260 N 
ATOM     10  C   UNL     1      32.345 -13.004 -22.090  0.00  0.00    +0.230 C 
ATOM     11  C   UNL     1      32.041 -11.603 -22.572  0.00  0.00    +0.095 C 
BRANCH   9  12
ATOM     12  C   UNL     1      33.218 -13.372 -24.396  0.00  0.00    +0.054 C 
ATOM     13  C   UNL     1      32.727 -14.139 -25.410  0.00  0.00    +0.015 C 
ATOM     14  C   UNL     1      33.891 -12.198 -24.564  0.00  0.00    +0.015 C 
ATOM     15  C   UNL     1      32.926 -13.690 -26.715  0.00  0.00    +0.001 C 
ATOM     16  C   UNL     1      34.090 -11.749 -25.869  0.00  0.00    +0.001 C 
ATOM     17  C   UNL     1      33.608 -12.495 -26.944  0.00  0.00    +0.000 C 
ENDBRANCH   9  12
ENDBRANCH   2   9
BRANCH   1  18
ATOM     18  C   UNL     1      35.913 -18.379 -21.294  0.00  0.00    -0.054 C 
ATOM     19  C   UNL     1      37.230 -18.595 -22.040  0.00  0.00    -0.023 C 
BRANCH  18  20
ATOM     20  C   UNL     1      34.861 -19.451 -21.632  0.00  0.00    +0.006 C 
BRANCH  20  21
ATOM     21  C   UNL     1      34.646 -20.456 -20.527  0.00  0.00    -0.024 C 
ATOM     22  C   UNL     1      33.352 -20.775 -20.141  0.00  0.00    -0.004 C 
ATOM     23  C   UNL     1      35.744 -21.041 -19.917  0.00  0.00    -0.004 C 
ATOM     24  C   UNL     1      33.154 -21.702 -19.120  0.00  0.00    -0.000 C 
ATOM     25  C   UNL     1      35.544 -21.970 -18.896  0.00  0.00    -0.000 C 
ATOM     26  C   UNL     1      34.249 -22.301 -18.497  0.00  0.00    -0.000 C 
ENDBRANCH  20  21
ENDBRANCH  18  20
ENDBRANCH   1  18
TORSDOF 5
ENDMDL
MODEL 5
REMARK VINA RESULT:     -10.3      1.734      8.529
REMARK  Name = 62307
REMARK  5 active torsions:
REMARK  status: ('A' for Active; 'I' for Inactive)
REMARK    1  A    between atoms: N_1  and  C_18
REMARK    2  A    between atoms: C_2  and  N_9
REMARK    3  A    between atoms: N_9  and  C_12
REMARK    4  A    between atoms: C_18  and  C_20
REMARK    5  A    between atoms: C_20  and  C_21
REMARK                            x       y       z     vdW  Elec       q    Type
REMARK                         _______ _______ _______ _____ _____    ______ ____
ROOT
ATOM      1  N   UNL     1      33.791 -16.604 -22.347  0.00  0.00    +0.389 N 
ATOM      2  C   UNL     1      34.002 -14.023 -23.709  0.00  0.00    +0.076 C 
ATOM      3  C   UNL     1      34.741 -15.268 -24.200  0.00  0.00    -0.003 C 
ATOM      4  C   UNL     1      32.763 -14.425 -22.910  0.00  0.00    -0.003 C 
ATOM      5  C   UNL     1      35.028 -16.233 -23.049  0.00  0.00    -0.076 C 
ATOM      6  C   UNL     1      33.115 -15.419 -21.801  0.00  0.00    -0.076 C 
ATOM      7  H   UNL     1      33.165 -17.040 -23.023  0.00  0.00    -0.080 HD
ENDROOT
BRANCH   2   9
ATOM      8  O   UNL     1      32.849 -14.832 -26.300  0.00  0.00    -0.275 OA
ATOM      9  N   UNL     1      33.646 -13.162 -24.810  0.00  0.00    -0.260 N 
ATOM     10  C   UNL     1      33.093 -13.654 -26.025  0.00  0.00    +0.230 C 
ATOM     11  C   UNL     1      32.738 -12.602 -27.050  0.00  0.00    +0.095 C 
BRANCH   9  12
ATOM     12  C   UNL     1      33.964 -11.742 -24.684  0.00  0.00    +0.054 C 
ATOM     13  C   UNL     1      33.284 -11.023 -23.746  0.00  0.00    +0.015 C 
ATOM     14  C   UNL     1      34.917 -11.232 -25.516  0.00  0.00    +0.015 C 
ATOM     15  C   UNL     1      33.588  -9.667 -23.626  0.00  0.00    +0.001 C 
ATOM     16  C   UNL     1      35.220  -9.876 -25.395  0.00  0.00    +0.001 C 
ATOM     17  C   UNL     1      34.555  -9.094 -24.451  0.00  0.00    +0.000 C 
ENDBRANCH   9  12
ENDBRANCH   2   9
BRANCH   1  18
ATOM     18  C   UNL     1      34.077 -17.565 -21.281  0.00  0.00    -0.054 C 
ATOM     19  C   UNL     1      35.324 -17.096 -20.532  0.00  0.00    -0.023 C 
BRANCH  18  20
ATOM     20  C   UNL     1      34.248 -18.970 -21.889  0.00  0.00    +0.006 C 
BRANCH  20  21
ATOM     21  C   UNL     1      34.373 -20.064 -20.857  0.00  0.00    -0.024 C 
ATOM     22  C   UNL     1      35.630 -20.550 -20.530  0.00  0.00    -0.004 C 
ATOM     23  C   UNL     1      33.229 -20.565 -20.256  0.00  0.00    -0.004 C 
ATOM     24  C   UNL     1      35.745 -21.561 -19.577  0.00  0.00    -0.000 C 
ATOM     25  C   UNL     1      33.345 -21.575 -19.302  0.00  0.00    -0.000 C 
ATOM     26  C   UNL     1      34.603 -22.074 -18.962  0.00  0.00    -0.000 C 
ENDBRANCH  20  21
ENDBRANCH  18  20
ENDBRANCH   1  18
TORSDOF 5
ENDMDL
MODEL 6
REMARK VINA RESULT:     -10.3      1.350      2.045
REMARK  Name = 62307
REMARK  5 active torsions:
REMARK  status: ('A' for Active; 'I' for Inactive)
REMARK    1  A    between atoms: N_1  and  C_18
REMARK    2  A    between atoms: C_2  and  N_9
REMARK    3  A    between atoms: N_9  and  C_12
REMARK    4  A    between atoms: C_18  and  C_20
REMARK    5  A    between atoms: C_20  and  C_21
REMARK                            x       y       z     vdW  Elec       q    Type
REMARK                         _______ _______ _______ _____ _____    ______ ____
ROOT
ATOM      1  N   UNL     1      32.497 -12.839 -22.514  0.00  0.00    +0.389 N 
ATOM      2  C   UNL     1      34.155 -15.235 -22.781  0.00  0.00    +0.076 C 
ATOM      3  C   UNL     1      32.888 -15.209 -21.925  0.00  0.00    -0.003 C 
ATOM      4  C   UNL     1      34.073 -14.174 -23.877  0.00  0.00    -0.003 C 
ATOM      5  C   UNL     1      32.596 -13.800 -21.407  0.00  0.00    -0.076 C 
ATOM      6  C   UNL     1      33.741 -12.798 -23.295  0.00  0.00    -0.076 C 
ATOM      7  H   UNL     1      31.748 -13.148 -23.133  0.00  0.00    -0.080 HD
ENDROOT
BRANCH   2   9
ATOM      8  O   UNL     1      33.746 -16.050 -25.585  0.00  0.00    -0.275 OA
ATOM      9  N   UNL     1      34.372 -16.543 -23.347  0.00  0.00    -0.260 N 
ATOM     10  C   UNL     1      34.143 -16.836 -24.721  0.00  0.00    +0.230 C 
ATOM     11  C   UNL     1      34.470 -18.249 -25.147  0.00  0.00    +0.095 C 
BRANCH   9  12
ATOM     12  C   UNL     1      34.752 -17.618 -22.434  0.00  0.00    +0.054 C 
ATOM     13  C   UNL     1      36.080 -17.788 -22.176  0.00  0.00    +0.015 C 
ATOM     14  C   UNL     1      33.752 -18.379 -21.903  0.00  0.00    +0.015 C 
ATOM     15  C   UNL     1      36.442 -18.815 -21.304  0.00  0.00    +0.001 C 
ATOM     16  C   UNL     1      34.116 -19.405 -21.031  0.00  0.00    +0.001 C 
ATOM     17  C   UNL     1      35.460 -19.623 -20.731  0.00  0.00    +0.000 C 
ENDBRANCH   9  12
ENDBRANCH   2   9
BRANCH   1  18
ATOM     18  C   UNL     1      32.169 -11.506 -22.006  0.00  0.00    -0.054 C 
ATOM     19  C   UNL     1      30.705 -11.506 -21.568  0.00  0.00    -0.023 C 
BRANCH  18  20
ATOM     20  C   UNL     1      32.458 -10.456 -23.094  0.00  0.00    +0.006 C 
BRANCH  20  21
ATOM     21  C   UNL     1      32.136  -9.043 -22.671  0.00  0.00    -0.024 C 
ATOM     22  C   UNL     1      32.685  -8.542 -21.501  0.00  0.00    -0.004 C 
ATOM     23  C   UNL     1      31.294  -8.273 -23.459  0.00  0.00    -0.004 C 
ATOM     24  C   UNL     1      32.386  -7.237 -21.110  0.00  0.00    -0.000 C 
ATOM     25  C   UNL     1      30.997  -6.968 -23.068  0.00  0.00    -0.000 C 
ATOM     26  C   UNL     1      31.542  -6.449 -21.894  0.00  0.00    -0.000 C 
ENDBRANCH  20  21
ENDBRANCH  18  20
ENDBRANCH   1  18
TORSDOF 5
ENDMDL
MODEL 7
REMARK VINA RESULT:     -10.3      1.970      8.489
REMARK  Name = 62307
REMARK  5 active torsions:
REMARK  status: ('A' for Active; 'I' for Inactive)
REMARK    1  A    between atoms: N_1  and  C_18
REMARK    2  A    between atoms: C_2  and  N_9
REMARK    3  A    between atoms: N_9  and  C_12
REMARK    4  A    between atoms: C_18  and  C_20
REMARK    5  A    between atoms: C_20  and  C_21
REMARK                            x       y       z     vdW  Elec       q    Type
REMARK                         _______ _______ _______ _____ _____    ______ ____
ROOT
ATOM      1  N   UNL     1      34.882 -16.009 -23.113  0.00  0.00    +0.389 N 
ATOM      2  C   UNL     1      33.182 -13.629 -23.084  0.00  0.00    +0.076 C 
ATOM      3  C   UNL     1      34.223 -13.902 -21.998  0.00  0.00    -0.003 C 
ATOM      4  C   UNL     1      33.573 -14.335 -24.381  0.00  0.00    -0.003 C 
ATOM      5  C   UNL     1      34.478 -15.401 -21.838  0.00  0.00    -0.076 C 
ATOM      6  C   UNL     1      33.851 -15.822 -24.142  0.00  0.00    -0.076 C 
ATOM      7  H   UNL     1      35.731 -15.540 -23.430  0.00  0.00    -0.080 HD
ENDROOT
BRANCH   2   9
ATOM      8  O   UNL     1      31.218 -11.848 -21.790  0.00  0.00    -0.275 OA
ATOM      9  N   UNL     1      33.016 -12.213 -23.300  0.00  0.00    -0.260 N 
ATOM     10  C   UNL     1      32.033 -11.439 -22.622  0.00  0.00    +0.230 C 
ATOM     11  C   UNL     1      32.036  -9.961 -22.939  0.00  0.00    +0.095 C 
BRANCH   9  12
ATOM     12  C   UNL     1      33.841 -11.587 -24.331  0.00  0.00    +0.054 C 
ATOM     13  C   UNL     1      34.656 -10.562 -23.952  0.00  0.00    +0.015 C 
ATOM     14  C   UNL     1      33.739 -12.071 -25.602  0.00  0.00    +0.015 C 
ATOM     15  C   UNL     1      35.444  -9.965 -24.936  0.00  0.00    +0.001 C 
ATOM     16  C   UNL     1      34.527 -11.474 -26.585  0.00  0.00    +0.001 C 
ATOM     17  C   UNL     1      35.379 -10.421 -26.252  0.00  0.00    +0.000 C 
ENDBRANCH   9  12
ENDBRANCH   2   9
BRANCH   1  18
ATOM     18  C   UNL     1      35.170 -17.432 -22.932  0.00  0.00    -0.054 C 
ATOM     19  C   UNL     1      35.001 -18.133 -24.281  0.00  0.00    -0.023 C 
BRANCH  18  20
ATOM     20  C   UNL     1      34.243 -18.011 -21.847  0.00  0.00    +0.006 C 
BRANCH  20  21
ATOM     21  C   UNL     1      34.862 -19.143 -21.065  0.00  0.00    -0.024 C 
ATOM     22  C   UNL     1      36.237 -19.176 -20.887  0.00  0.00    -0.004 C 
ATOM     23  C   UNL     1      34.045 -20.132 -20.540  0.00  0.00    -0.004 C 
ATOM     24  C   UNL     1      36.807 -20.223 -20.165  0.00  0.00    -0.000 C 
ATOM     25  C   UNL     1      34.616 -21.178 -19.817  0.00  0.00    -0.000 C 
ATOM     26  C   UNL     1      35.998 -21.225 -19.629  0.00  0.00    -0.000 C 
ENDBRANCH  20  21
ENDBRANCH  18  20
ENDBRANCH   1  18
TORSDOF 5
ENDMDL
MODEL 8
REMARK VINA RESULT:     -10.3      2.780      9.364
REMARK  Name = 62307
REMARK  5 active torsions:
REMARK  status: ('A' for Active; 'I' for Inactive)
REMARK    1  A    between atoms: N_1  and  C_18
REMARK    2  A    between atoms: C_2  and  N_9
REMARK    3  A    between atoms: N_9  and  C_12
REMARK    4  A    between atoms: C_18  and  C_20
REMARK    5  A    between atoms: C_20  and  C_21
REMARK                            x       y       z     vdW  Elec       q    Type
REMARK                         _______ _______ _______ _____ _____    ______ ____
ROOT
ATOM      1  N   UNL     1      33.639 -12.674 -23.343  0.00  0.00    +0.389 N 
ATOM      2  C   UNL     1      32.474  -9.994 -23.191  0.00  0.00    +0.076 C 
ATOM      3  C   UNL     1      32.174 -11.076 -22.153  0.00  0.00    -0.003 C 
ATOM      4  C   UNL     1      33.825 -10.260 -23.854  0.00  0.00    -0.003 C 
ATOM      5  C   UNL     1      32.307 -12.475 -22.754  0.00  0.00    -0.076 C 
ATOM      6  C   UNL     1      33.905 -11.688 -24.399  0.00  0.00    -0.076 C 
ATOM      7  H   UNL     1      34.332 -12.540 -22.607  0.00  0.00    -0.080 HD
ENDROOT
BRANCH   2   9
ATOM      8  O   UNL     1      32.326  -9.344 -20.318  0.00  0.00    -0.275 OA
ATOM      9  N   UNL     1      32.443  -8.681 -22.596  0.00  0.00    -0.260 N 
ATOM     10  C   UNL     1      32.371  -8.473 -21.191  0.00  0.00    +0.230 C 
ATOM     11  C   UNL     1      32.396  -7.029 -20.745  0.00  0.00    +0.095 C 
BRANCH   9  12
ATOM     12  C   UNL     1      32.391  -7.533 -23.499  0.00  0.00    +0.054 C 
ATOM     13  C   UNL     1      31.166  -7.004 -23.776  0.00  0.00    +0.015 C 
ATOM     14  C   UNL     1      33.571  -7.072 -24.004  0.00  0.00    +0.015 C 
ATOM     15  C   UNL     1      31.115  -5.907 -24.637  0.00  0.00    +0.001 C 
ATOM     16  C   UNL     1      33.520  -5.977 -24.865  0.00  0.00    +0.001 C 
ATOM     17  C   UNL     1      32.293  -5.395 -25.182  0.00  0.00    +0.000 C 
ENDBRANCH   9  12
ENDBRANCH   2   9
BRANCH   1  18
ATOM     18  C   UNL     1      33.768 -14.033 -23.869  0.00  0.00    -0.054 C 
ATOM     19  C   UNL     1      33.000 -14.113 -25.189  0.00  0.00    -0.023 C 
BRANCH  18  20
ATOM     20  C   UNL     1      33.250 -15.039 -22.826  0.00  0.00    +0.006 C 
BRANCH  20  21
ATOM     21  C   UNL     1      34.165 -16.222 -22.620  0.00  0.00    -0.024 C 
ATOM     22  C   UNL     1      34.601 -16.944 -23.721  0.00  0.00    -0.004 C 
ATOM     23  C   UNL     1      34.553 -16.566 -21.334  0.00  0.00    -0.004 C 
ATOM     24  C   UNL     1      35.445 -18.037 -23.530  0.00  0.00    -0.000 C 
ATOM     25  C   UNL     1      35.398 -17.659 -21.145  0.00  0.00    -0.000 C 
ATOM     26  C   UNL     1      35.845 -18.395 -22.242  0.00  0.00    -0.000 C 
ENDBRANCH  20  21
ENDBRANCH  18  20
ENDBRANCH   1  18
TORSDOF 5
ENDMDL
MODEL 9
REMARK VINA RESULT:     -10.2      1.770      8.698
REMARK  Name = 62307
REMARK  5 active torsions:
REMARK  status: ('A' for Active; 'I' for Inactive)
REMARK    1  A    between atoms: N_1  and  C_18
REMARK    2  A    between atoms: C_2  and  N_9
REMARK    3  A    between atoms: N_9  and  C_12
REMARK    4  A    between atoms: C_18  and  C_20
REMARK    5  A    between atoms: C_20  and  C_21
REMARK                            x       y       z     vdW  Elec       q    Type
REMARK                         _______ _______ _______ _____ _____    ______ ____
ROOT
ATOM      1  N   UNL     1      34.644 -17.917 -21.912  0.00  0.00    +0.389 N 
ATOM      2  C   UNL     1      34.459 -15.437 -23.454  0.00  0.00    +0.076 C 
ATOM      3  C   UNL     1      34.782 -16.782 -24.106  0.00  0.00    -0.003 C 
ATOM      4  C   UNL     1      33.677 -15.653 -22.158  0.00  0.00    -0.003 C 
ATOM      5  C   UNL     1      35.464 -17.728 -23.118  0.00  0.00    -0.076 C 
ATOM      6  C   UNL     1      34.396 -16.638 -21.234  0.00  0.00    -0.076 C 
ATOM      7  H   UNL     1      33.744 -18.300 -22.201  0.00  0.00    -0.080 HD
ENDROOT
BRANCH   2   9
ATOM      8  O   UNL     1      33.749 -16.009 -26.259  0.00  0.00    -0.275 OA
ATOM      9  N   UNL     1      33.729 -14.584 -24.358  0.00  0.00    -0.260 N 
ATOM     10  C   UNL     1      33.436 -14.954 -25.701  0.00  0.00    +0.230 C 
ATOM     11  C   UNL     1      32.621 -13.954 -26.488  0.00  0.00    +0.095 C 
BRANCH   9  12
ATOM     12  C   UNL     1      33.368 -13.250 -23.883  0.00  0.00    +0.054 C 
ATOM     13  C   UNL     1      34.041 -12.188 -24.410  0.00  0.00    +0.015 C 
ATOM     14  C   UNL     1      32.382 -13.160 -22.944  0.00  0.00    +0.015 C 
ATOM     15  C   UNL     1      33.695 -10.915 -23.956  0.00  0.00    +0.001 C 
ATOM     16  C   UNL     1      32.038 -11.887 -22.491  0.00  0.00    +0.001 C 
ATOM     17  C   UNL     1      32.694 -10.765 -22.997  0.00  0.00    +0.000 C 
ENDBRANCH   9  12
ENDBRANCH   2   9
BRANCH   1  18
ATOM     18  C   UNL     1      35.287 -18.863 -21.000  0.00  0.00    -0.054 C 
ATOM     19  C   UNL     1      36.791 -18.847 -21.271  0.00  0.00    -0.023 C 
BRANCH  18  20
ATOM     20  C   UNL     1      34.669 -20.261 -21.190  0.00  0.00    +0.006 C 
BRANCH  20  21
ATOM     21  C   UNL     1      34.651 -21.090 -19.930  0.00  0.00    -0.024 C 
ATOM     22  C   UNL     1      35.830 -21.284 -19.226  0.00  0.00    -0.004 C 
ATOM     23  C   UNL     1      33.457 -21.646 -19.499  0.00  0.00    -0.004 C 
ATOM     24  C   UNL     1      35.813 -22.051 -18.062  0.00  0.00    -0.000 C 
ATOM     25  C   UNL     1      33.440 -22.412 -18.334  0.00  0.00    -0.000 C 
ATOM     26  C   UNL     1      34.618 -22.616 -17.615  0.00  0.00    -0.000 C 
ENDBRANCH  20  21
ENDBRANCH  18  20
ENDBRANCH   1  18
TORSDOF 5
ENDMDL
