MODEL 1
REMARK VINA RESULT:      -8.9      0.000      0.000
REMARK  Name = 53232
REMARK  8 active torsions:
REMARK  status: ('A' for Active; 'I' for Inactive)
REMARK    1  A    between atoms: C_2  and  C_20
REMARK    2  A    between atoms: C_3  and  O_13
REMARK    3  A    between atoms: O_13  and  C_15
REMARK    4  A    between atoms: C_15  and  C_16
REMARK    5  A    between atoms: C_16  and  C_18
REMARK    6  A    between atoms: C_20  and  C_21
REMARK    7  A    between atoms: C_21  and  C_24
REMARK    8  A    between atoms: C_26  and  O_29
REMARK                            x       y       z     vdW  Elec       q    Type
REMARK                         _______ _______ _______ _____ _____    ______ ____
ROOT
ATOM      1  C   UNL     1      35.059 -23.244 -17.157  0.00  0.00    +0.062 C 
ATOM      2  C   UNL     1      35.293 -23.164 -15.619  0.00  0.00    +0.012 C 
ATOM      3  C   UNL     1      33.570 -23.408 -17.543  0.00  0.00    +0.173 C 
ATOM      4  C   UNL     1      36.807 -23.020 -15.285  0.00  0.00    +0.022 C 
ATOM      5  C   UNL     1      35.699 -22.053 -17.863  0.00  0.00    -0.024 C 
ATOM      6  C   UNL     1      33.373 -23.286 -19.056  0.00  0.00    +0.048 C 
ATOM      7  C   UNL     1      33.902 -21.962 -19.637  0.00  0.00    +0.025 C 
ATOM      8  C   UNL     1      35.167 -21.496 -18.967  0.00  0.00    -0.030 C 
ATOM      9  C   UNL     1      37.452 -21.967 -16.147  0.00  0.00    -0.027 C 
ATOM     10  C   UNL     1      36.931 -21.529 -17.300  0.00  0.00    -0.009 C 
ATOM     11  C   UNL     1      37.610 -24.320 -15.399  0.00  0.00    +0.005 C 
ATOM     12  C   UNL     1      32.850 -20.851 -19.596  0.00  0.00    +0.005 C 
ENDROOT
BRANCH   3  13
ATOM     13  O   UNL     1      32.771 -22.447 -16.860  0.00  0.00    -0.452 OA
BRANCH  13  15
ATOM     14  O   UNL     1      30.519 -22.330 -17.343  0.00  0.00    -0.250 OA
ATOM     15  C   UNL     1      31.453 -22.779 -16.693  0.00  0.00    +0.316 C 
BRANCH  15  16
ATOM     16  C   UNL     1      31.312 -23.772 -15.552  0.00  0.00    +0.099 C 
ATOM     17  C   UNL     1      30.902 -23.006 -14.297  0.00  0.00    +0.012 C 
BRANCH  16  18
ATOM     18  C   UNL     1      30.290 -24.869 -15.884  0.00  0.00    +0.011 C 
ATOM     19  C   UNL     1      28.972 -24.682 -15.142  0.00  0.00    +0.001 C 
ENDBRANCH  16  18
ENDBRANCH  15  16
ENDBRANCH  13  15
ENDBRANCH   3  13
BRANCH   2  20
ATOM     20  C   UNL     1      34.654 -24.331 -14.857  0.00  0.00    +0.004 C 
BRANCH  20  21
ATOM     21  C   UNL     1      34.121 -23.877 -13.505  0.00  0.00    +0.044 C 
BRANCH  21  24
ATOM     22  O   UNL     1      35.802 -25.425 -12.799  0.00  0.00    -0.452 OA
ATOM     23  O   UNL     1      37.386 -26.958 -12.346  0.00  0.00    -0.250 OA
ATOM     24  C   UNL     1      35.088 -24.241 -12.385  0.00  0.00    +0.171 C 
ATOM     25  C   UNL     1      36.023 -23.083 -12.068  0.00  0.00    +0.073 C 
ATOM     26  C   UNL     1      37.061 -23.539 -11.060  0.00  0.00    +0.125 C 
ATOM     27  C   UNL     1      37.824 -24.733 -11.600  0.00  0.00    +0.139 C 
ATOM     28  C   UNL     1      36.974 -25.805 -12.238  0.00  0.00    +0.319 C 
BRANCH  26  29
ATOM     29  O   UNL     1      36.442 -23.902  -9.829  0.00  0.00    -0.384 OA
ATOM     30  H   UNL     1      35.586 -24.319 -10.007  0.00  0.00    +0.210 HD
ENDBRANCH  26  29
ENDBRANCH  21  24
ENDBRANCH  20  21
ENDBRANCH   2  20
TORSDOF 8
ENDMDL
MODEL 2
REMARK VINA RESULT:      -8.6      8.028     12.484
REMARK  Name = 53232
REMARK  8 active torsions:
REMARK  status: ('A' for Active; 'I' for Inactive)
REMARK    1  A    between atoms: C_2  and  C_20
REMARK    2  A    between atoms: C_3  and  O_13
REMARK    3  A    between atoms: O_13  and  C_15
REMARK    4  A    between atoms: C_15  and  C_16
REMARK    5  A    between atoms: C_16  and  C_18
REMARK    6  A    between atoms: C_20  and  C_21
REMARK    7  A    between atoms: C_21  and  C_24
REMARK    8  A    between atoms: C_26  and  O_29
REMARK                            x       y       z     vdW  Elec       q    Type
REMARK                         _______ _______ _______ _____ _____    ______ ____
ROOT
ATOM      1  C   UNL     1      34.459 -15.550 -24.203  0.00  0.00    +0.062 C 
ATOM      2  C   UNL     1      33.353 -14.570 -23.708  0.00  0.00    +0.012 C 
ATOM      3  C   UNL     1      34.993 -16.483 -23.092  0.00  0.00    +0.173 C 
ATOM      4  C   UNL     1      32.866 -13.641 -24.858  0.00  0.00    +0.022 C 
ATOM      5  C   UNL     1      33.978 -16.335 -25.419  0.00  0.00    -0.024 C 
ATOM      6  C   UNL     1      35.928 -17.552 -23.666  0.00  0.00    +0.048 C 
ATOM      7  C   UNL     1      35.277 -18.403 -24.771  0.00  0.00    +0.025 C 
ATOM      8  C   UNL     1      34.354 -17.606 -25.654  0.00  0.00    -0.030 C 
ATOM      9  C   UNL     1      32.592 -14.432 -26.111  0.00  0.00    -0.027 C 
ATOM     10  C   UNL     1      33.087 -15.654 -26.342  0.00  0.00    -0.009 C 
ATOM     11  C   UNL     1      33.820 -12.490 -25.194  0.00  0.00    +0.005 C 
ATOM     12  C   UNL     1      34.538 -19.618 -24.206  0.00  0.00    +0.005 C 
ENDROOT
BRANCH   3  13
ATOM     13  O   UNL     1      33.912 -17.094 -22.394  0.00  0.00    -0.452 OA
BRANCH  13  15
ATOM     14  O   UNL     1      34.604 -17.039 -20.194  0.00  0.00    -0.250 OA
ATOM     15  C   UNL     1      34.224 -17.652 -21.183  0.00  0.00    +0.316 C 
BRANCH  15  16
ATOM     16  C   UNL     1      34.057 -19.160 -21.251  0.00  0.00    +0.099 C 
ATOM     17  C   UNL     1      35.306 -19.809 -20.661  0.00  0.00    +0.012 C 
BRANCH  16  18
ATOM     18  C   UNL     1      32.796 -19.620 -20.506  0.00  0.00    +0.011 C 
ATOM     19  C   UNL     1      33.024 -20.897 -19.705  0.00  0.00    +0.001 C 
ENDBRANCH  16  18
ENDBRANCH  15  16
ENDBRANCH  13  15
ENDBRANCH   3  13
BRANCH   2  20
ATOM     20  C   UNL     1      33.780 -13.766 -22.474  0.00  0.00    +0.004 C 
BRANCH  20  21
ATOM     21  C   UNL     1      32.719 -13.833 -21.384  0.00  0.00    +0.044 C 
BRANCH  21  24
ATOM     22  O   UNL     1      31.804 -12.168 -19.931  0.00  0.00    -0.452 OA
ATOM     23  O   UNL     1      31.070 -10.690 -18.401  0.00  0.00    -0.250 OA
ATOM     24  C   UNL     1      31.914 -12.541 -21.321  0.00  0.00    +0.171 C 
ATOM     25  C   UNL     1      32.561 -11.450 -22.163  0.00  0.00    +0.073 C 
ATOM     26  C   UNL     1      31.816 -10.146 -21.950  0.00  0.00    +0.125 C 
ATOM     27  C   UNL     1      31.814  -9.779 -20.479  0.00  0.00    +0.139 C 
ATOM     28  C   UNL     1      31.492 -10.912 -19.534  0.00  0.00    +0.319 C 
BRANCH  26  29
ATOM     29  O   UNL     1      30.469 -10.255 -22.403  0.00  0.00    -0.384 OA
ATOM     30  H   UNL     1      29.923 -10.643 -21.704  0.00  0.00    +0.210 HD
ENDBRANCH  26  29
ENDBRANCH  21  24
ENDBRANCH  20  21
ENDBRANCH   2  20
TORSDOF 8
ENDMDL
MODEL 3
REMARK VINA RESULT:      -8.5      8.348     12.655
REMARK  Name = 53232
REMARK  8 active torsions:
REMARK  status: ('A' for Active; 'I' for Inactive)
REMARK    1  A    between atoms: C_2  and  C_20
REMARK    2  A    between atoms: C_3  and  O_13
REMARK    3  A    between atoms: O_13  and  C_15
REMARK    4  A    between atoms: C_15  and  C_16
REMARK    5  A    between atoms: C_16  and  C_18
REMARK    6  A    between atoms: C_20  and  C_21
REMARK    7  A    between atoms: C_21  and  C_24
REMARK    8  A    between atoms: C_26  and  O_29
REMARK                            x       y       z     vdW  Elec       q    Type
REMARK                         _______ _______ _______ _____ _____    ______ ____
ROOT
ATOM      1  C   UNL     1      34.391 -15.478 -24.027  0.00  0.00    +0.062 C 
ATOM      2  C   UNL     1      33.244 -14.558 -23.513  0.00  0.00    +0.012 C 
ATOM      3  C   UNL     1      34.884 -16.491 -22.969  0.00  0.00    +0.173 C 
ATOM      4  C   UNL     1      32.800 -13.544 -24.608  0.00  0.00    +0.022 C 
ATOM      5  C   UNL     1      33.990 -16.166 -25.327  0.00  0.00    -0.024 C 
ATOM      6  C   UNL     1      35.868 -17.495 -23.577  0.00  0.00    +0.048 C 
ATOM      7  C   UNL     1      35.292 -18.261 -24.782  0.00  0.00    +0.025 C 
ATOM      8  C   UNL     1      34.401 -17.408 -25.645  0.00  0.00    -0.030 C 
ATOM      9  C   UNL     1      32.606 -14.232 -25.934  0.00  0.00    -0.027 C 
ATOM     10  C   UNL     1      33.136 -15.424 -26.238  0.00  0.00    -0.009 C 
ATOM     11  C   UNL     1      33.748 -12.355 -24.797  0.00  0.00    +0.005 C 
ATOM     12  C   UNL     1      34.547 -19.529 -24.358  0.00  0.00    +0.005 C 
ENDROOT
BRANCH   3  13
ATOM     13  O   UNL     1      33.780 -17.174 -22.382  0.00  0.00    -0.452 OA
BRANCH  13  15
ATOM     14  O   UNL     1      34.268 -17.118 -20.129  0.00  0.00    -0.250 OA
ATOM     15  C   UNL     1      34.010 -17.734 -21.154  0.00  0.00    +0.316 C 
BRANCH  15  16
ATOM     16  C   UNL     1      33.927 -19.248 -21.254  0.00  0.00    +0.099 C 
ATOM     17  C   UNL     1      35.233 -19.836 -20.726  0.00  0.00    +0.012 C 
BRANCH  16  18
ATOM     18  C   UNL     1      32.724 -19.797 -20.475  0.00  0.00    +0.011 C 
ATOM     19  C   UNL     1      33.082 -21.014 -19.629  0.00  0.00    +0.001 C 
ENDBRANCH  16  18
ENDBRANCH  15  16
ENDBRANCH  13  15
ENDBRANCH   3  13
BRANCH   2  20
ATOM     20  C   UNL     1      33.590 -13.852 -22.197  0.00  0.00    +0.004 C 
BRANCH  20  21
ATOM     21  C   UNL     1      32.332 -13.369 -21.488  0.00  0.00    +0.044 C 
BRANCH  21  24
ATOM     22  O   UNL     1      32.462 -11.085 -22.188  0.00  0.00    -0.452 OA
ATOM     23  O   UNL     1      32.515  -9.007 -23.049  0.00  0.00    -0.250 OA
ATOM     24  C   UNL     1      32.488 -11.928 -21.016  0.00  0.00    +0.171 C 
ATOM     25  C   UNL     1      31.404 -11.558 -20.014  0.00  0.00    +0.073 C 
ATOM     26  C   UNL     1      31.506 -10.079 -19.690  0.00  0.00    +0.125 C 
ATOM     27  C   UNL     1      31.389  -9.258 -20.959  0.00  0.00    +0.139 C 
ATOM     28  C   UNL     1      32.202  -9.758 -22.128  0.00  0.00    +0.319 C 
BRANCH  26  29
ATOM     29  O   UNL     1      32.750  -9.786 -19.061  0.00  0.00    -0.384 OA
ATOM     30  H   UNL     1      33.186  -9.058 -19.529  0.00  0.00    +0.210 HD
ENDBRANCH  26  29
ENDBRANCH  21  24
ENDBRANCH  20  21
ENDBRANCH   2  20
TORSDOF 8
ENDMDL
MODEL 4
REMARK VINA RESULT:      -8.5     13.815     18.139
REMARK  Name = 53232
REMARK  8 active torsions:
REMARK  status: ('A' for Active; 'I' for Inactive)
REMARK    1  A    between atoms: C_2  and  C_20
REMARK    2  A    between atoms: C_3  and  O_13
REMARK    3  A    between atoms: O_13  and  C_15
REMARK    4  A    between atoms: C_15  and  C_16
REMARK    5  A    between atoms: C_16  and  C_18
REMARK    6  A    between atoms: C_20  and  C_21
REMARK    7  A    between atoms: C_21  and  C_24
REMARK    8  A    between atoms: C_26  and  O_29
REMARK                            x       y       z     vdW  Elec       q    Type
REMARK                         _______ _______ _______ _____ _____    ______ ____
ROOT
ATOM      1  C   UNL     1      31.726  -9.202 -21.847  0.00  0.00    +0.062 C 
ATOM      2  C   UNL     1      32.782  -8.158 -22.317  0.00  0.00    +0.012 C 
ATOM      3  C   UNL     1      31.776 -10.526 -22.646  0.00  0.00    +0.173 C 
ATOM      4  C   UNL     1      32.675  -6.839 -21.496  0.00  0.00    +0.022 C 
ATOM      5  C   UNL     1      31.836  -9.442 -20.345  0.00  0.00    -0.024 C 
ATOM      6  C   UNL     1      30.861 -11.584 -22.024  0.00  0.00    +0.048 C 
ATOM      7  C   UNL     1      31.176 -11.873 -20.545  0.00  0.00    +0.025 C 
ATOM      8  C   UNL     1      31.587 -10.641 -19.785  0.00  0.00    -0.030 C 
ATOM      9  C   UNL     1      32.583  -7.127 -20.021  0.00  0.00    -0.027 C 
ATOM     10  C   UNL     1      32.219  -8.313 -19.516  0.00  0.00    -0.009 C 
ATOM     11  C   UNL     1      31.510  -5.930 -21.901  0.00  0.00    +0.005 C 
ATOM     12  C   UNL     1      32.238 -12.963 -20.383  0.00  0.00    +0.005 C 
ENDROOT
BRANCH   3  13
ATOM     13  O   UNL     1      33.113 -11.010 -22.720  0.00  0.00    -0.452 OA
BRANCH  13  15
ATOM     14  O   UNL     1      33.953 -10.937 -24.867  0.00  0.00    -0.250 OA
ATOM     15  C   UNL     1      33.484 -11.555 -23.920  0.00  0.00    +0.316 C 
BRANCH  15  16
ATOM     16  C   UNL     1      33.198 -13.047 -23.920  0.00  0.00    +0.099 C 
ATOM     17  C   UNL     1      33.197 -13.536 -25.366  0.00  0.00    +0.012 C 
BRANCH  16  18
ATOM     18  C   UNL     1      34.228 -13.817 -23.081  0.00  0.00    +0.011 C 
ATOM     19  C   UNL     1      34.310 -15.289 -23.465  0.00  0.00    +0.001 C 
ENDBRANCH  16  18
ENDBRANCH  15  16
ENDBRANCH  13  15
ENDBRANCH   3  13
BRANCH   2  20
ATOM     20  C   UNL     1      32.727  -7.891 -23.825  0.00  0.00    +0.004 C 
BRANCH  20  21
ATOM     21  C   UNL     1      34.028  -7.275 -24.321  0.00  0.00    +0.044 C 
BRANCH  21  24
ATOM     22  O   UNL     1      34.661  -5.792 -26.087  0.00  0.00    -0.452 OA
ATOM     23  O   UNL     1      35.363  -4.571 -27.843  0.00  0.00    -0.250 OA
ATOM     24  C   UNL     1      33.784  -5.907 -24.946  0.00  0.00    +0.171 C 
ATOM     25  C   UNL     1      32.320  -5.728 -25.321  0.00  0.00    +0.073 C 
ATOM     26  C   UNL     1      32.153  -4.422 -26.075  0.00  0.00    +0.125 C 
ATOM     27  C   UNL     1      33.043  -4.410 -27.302  0.00  0.00    +0.139 C 
ATOM     28  C   UNL     1      34.455  -4.893 -27.079  0.00  0.00    +0.319 C 
BRANCH  26  29
ATOM     29  O   UNL     1      32.491  -3.314 -25.245  0.00  0.00    -0.384 OA
ATOM     30  H   UNL     1      32.532  -3.603 -24.321  0.00  0.00    +0.210 HD
ENDBRANCH  26  29
ENDBRANCH  21  24
ENDBRANCH  20  21
ENDBRANCH   2  20
TORSDOF 8
ENDMDL
MODEL 5
REMARK VINA RESULT:      -8.5     14.467     18.948
REMARK  Name = 53232
REMARK  8 active torsions:
REMARK  status: ('A' for Active; 'I' for Inactive)
REMARK    1  A    between atoms: C_2  and  C_20
REMARK    2  A    between atoms: C_3  and  O_13
REMARK    3  A    between atoms: O_13  and  C_15
REMARK    4  A    between atoms: C_15  and  C_16
REMARK    5  A    between atoms: C_16  and  C_18
REMARK    6  A    between atoms: C_20  and  C_21
REMARK    7  A    between atoms: C_21  and  C_24
REMARK    8  A    between atoms: C_26  and  O_29
REMARK                            x       y       z     vdW  Elec       q    Type
REMARK                         _______ _______ _______ _____ _____    ______ ____
ROOT
ATOM      1  C   UNL     1      31.584  -8.857 -21.855  0.00  0.00    +0.062 C 
ATOM      2  C   UNL     1      32.551  -7.747 -22.364  0.00  0.00    +0.012 C 
ATOM      3  C   UNL     1      31.693 -10.177 -22.652  0.00  0.00    +0.173 C 
ATOM      4  C   UNL     1      32.387  -6.434 -21.543  0.00  0.00    +0.022 C 
ATOM      5  C   UNL     1      31.764  -9.083 -20.357  0.00  0.00    -0.024 C 
ATOM      6  C   UNL     1      30.872 -11.291 -21.996  0.00  0.00    +0.048 C 
ATOM      7  C   UNL     1      31.259 -11.553 -20.529  0.00  0.00    +0.025 C 
ATOM      8  C   UNL     1      31.615 -10.293 -19.786  0.00  0.00    -0.030 C 
ATOM      9  C   UNL     1      32.368  -6.722 -20.064  0.00  0.00    -0.027 C 
ATOM     10  C   UNL     1      32.101  -7.927 -19.545  0.00  0.00    -0.009 C 
ATOM     11  C   UNL     1      31.150  -5.606 -21.906  0.00  0.00    +0.005 C 
ATOM     12  C   UNL     1      32.396 -12.570 -20.404  0.00  0.00    +0.005 C 
ENDROOT
BRANCH   3  13
ATOM     13  O   UNL     1      33.055 -10.573 -22.774  0.00  0.00    -0.452 OA
BRANCH  13  15
ATOM     14  O   UNL     1      33.160 -12.595 -23.880  0.00  0.00    -0.250 OA
ATOM     15  C   UNL     1      33.347 -11.386 -23.837  0.00  0.00    +0.316 C 
BRANCH  15  16
ATOM     16  C   UNL     1      33.970 -10.569 -24.956  0.00  0.00    +0.099 C 
ATOM     17  C   UNL     1      35.099  -9.729 -24.365  0.00  0.00    +0.012 C 
BRANCH  16  18
ATOM     18  C   UNL     1      34.488 -11.468 -26.087  0.00  0.00    +0.011 C 
ATOM     19  C   UNL     1      35.626 -10.824 -26.870  0.00  0.00    +0.001 C 
ENDBRANCH  16  18
ENDBRANCH  15  16
ENDBRANCH  13  15
ENDBRANCH   3  13
BRANCH   2  20
ATOM     20  C   UNL     1      32.424  -7.490 -23.870  0.00  0.00    +0.004 C 
BRANCH  20  21
ATOM     21  C   UNL     1      33.560  -6.610 -24.374  0.00  0.00    +0.044 C 
BRANCH  21  24
ATOM     22  O   UNL     1      32.343  -4.635 -24.958  0.00  0.00    -0.452 OA
ATOM     23  O   UNL     1      31.201  -2.724 -25.288  0.00  0.00    -0.250 OA
ATOM     24  C   UNL     1      33.098  -5.727 -25.526  0.00  0.00    +0.171 C 
ATOM     25  C   UNL     1      34.280  -5.242 -26.354  0.00  0.00    +0.073 C 
ATOM     26  C   UNL     1      33.791  -4.248 -27.391  0.00  0.00    +0.125 C 
ATOM     27  C   UNL     1      33.082  -3.093 -26.713  0.00  0.00    +0.139 C 
ATOM     28  C   UNL     1      32.108  -3.483 -25.628  0.00  0.00    +0.319 C 
BRANCH  26  29
ATOM     29  O   UNL     1      32.893  -4.873 -28.304  0.00  0.00    -0.384 OA
ATOM     30  H   UNL     1      33.392  -5.434 -28.916  0.00  0.00    +0.210 HD
ENDBRANCH  26  29
ENDBRANCH  21  24
ENDBRANCH  20  21
ENDBRANCH   2  20
TORSDOF 8
ENDMDL
MODEL 6
REMARK VINA RESULT:      -8.1     11.032     14.771
REMARK  Name = 53232
REMARK  8 active torsions:
REMARK  status: ('A' for Active; 'I' for Inactive)
REMARK    1  A    between atoms: C_2  and  C_20
REMARK    2  A    between atoms: C_3  and  O_13
REMARK    3  A    between atoms: O_13  and  C_15
REMARK    4  A    between atoms: C_15  and  C_16
REMARK    5  A    between atoms: C_16  and  C_18
REMARK    6  A    between atoms: C_20  and  C_21
REMARK    7  A    between atoms: C_21  and  C_24
REMARK    8  A    between atoms: C_26  and  O_29
REMARK                            x       y       z     vdW  Elec       q    Type
REMARK                         _______ _______ _______ _____ _____    ______ ____
ROOT
ATOM      1  C   UNL     1      32.661  -9.746 -24.086  0.00  0.00    +0.062 C 
ATOM      2  C   UNL     1      33.465 -11.035 -23.739  0.00  0.00    +0.012 C 
ATOM      3  C   UNL     1      31.476  -9.486 -23.127  0.00  0.00    +0.173 C 
ATOM      4  C   UNL     1      34.631 -11.261 -24.745  0.00  0.00    +0.022 C 
ATOM      5  C   UNL     1      33.590  -8.540 -24.178  0.00  0.00    -0.024 C 
ATOM      6  C   UNL     1      30.843  -8.116 -23.387  0.00  0.00    +0.048 C 
ATOM      7  C   UNL     1      31.842  -6.951 -23.282  0.00  0.00    +0.025 C 
ATOM      8  C   UNL     1      33.206  -7.302 -23.814  0.00  0.00    -0.030 C 
ATOM      9  C   UNL     1      35.408  -9.989 -24.965  0.00  0.00    -0.027 C 
ATOM     10  C   UNL     1      34.930  -8.769 -24.688  0.00  0.00    -0.009 C 
ATOM     11  C   UNL     1      34.201 -11.824 -26.103  0.00  0.00    +0.005 C 
ATOM     12  C   UNL     1      31.962  -6.418 -21.852  0.00  0.00    +0.005 C 
ENDROOT
BRANCH   3  13
ATOM     13  O   UNL     1      31.902  -9.585 -21.772  0.00  0.00    -0.452 OA
BRANCH  13  15
ATOM     14  O   UNL     1      30.306 -11.183 -21.303  0.00  0.00    -0.250 OA
ATOM     15  C   UNL     1      31.093 -10.318 -20.945  0.00  0.00    +0.316 C 
BRANCH  15  16
ATOM     16  C   UNL     1      31.292  -9.876 -19.505  0.00  0.00    +0.099 C 
ATOM     17  C   UNL     1      31.406 -11.122 -18.631  0.00  0.00    +0.012 C 
BRANCH  16  18
ATOM     18  C   UNL     1      32.535  -8.986 -19.357  0.00  0.00    +0.011 C 
ATOM     19  C   UNL     1      32.183  -7.510 -19.221  0.00  0.00    +0.001 C 
ENDBRANCH  16  18
ENDBRANCH  15  16
ENDBRANCH  13  15
ENDBRANCH   3  13
BRANCH   2  20
ATOM     20  C   UNL     1      32.574 -12.277 -23.618  0.00  0.00    +0.004 C 
BRANCH  20  21
ATOM     21  C   UNL     1      32.851 -13.024 -22.319  0.00  0.00    +0.044 C 
BRANCH  21  24
ATOM     22  O   UNL     1      34.114 -14.750 -21.249  0.00  0.00    -0.452 OA
ATOM     23  O   UNL     1      35.168 -16.346 -20.063  0.00  0.00    -0.250 OA
ATOM     24  C   UNL     1      33.882 -14.126 -22.530  0.00  0.00    +0.171 C 
ATOM     25  C   UNL     1      33.414 -15.122 -23.582  0.00  0.00    +0.073 C 
ATOM     26  C   UNL     1      34.395 -16.278 -23.648  0.00  0.00    +0.125 C 
ATOM     27  C   UNL     1      34.523 -16.932 -22.286  0.00  0.00    +0.139 C 
ATOM     28  C   UNL     1      34.668 -15.979 -21.125  0.00  0.00    +0.319 C 
BRANCH  26  29
ATOM     29  O   UNL     1      35.679 -15.825 -24.068  0.00  0.00    -0.384 OA
ATOM     30  H   UNL     1      36.346 -16.096 -23.419  0.00  0.00    +0.210 HD
ENDBRANCH  26  29
ENDBRANCH  21  24
ENDBRANCH  20  21
ENDBRANCH   2  20
TORSDOF 8
ENDMDL
MODEL 7
REMARK VINA RESULT:      -8.1     11.193     15.106
REMARK  Name = 53232
REMARK  8 active torsions:
REMARK  status: ('A' for Active; 'I' for Inactive)
REMARK    1  A    between atoms: C_2  and  C_20
REMARK    2  A    between atoms: C_3  and  O_13
REMARK    3  A    between atoms: O_13  and  C_15
REMARK    4  A    between atoms: C_15  and  C_16
REMARK    5  A    between atoms: C_16  and  C_18
REMARK    6  A    between atoms: C_20  and  C_21
REMARK    7  A    between atoms: C_21  and  C_24
REMARK    8  A    between atoms: C_26  and  O_29
REMARK                            x       y       z     vdW  Elec       q    Type
REMARK                         _______ _______ _______ _____ _____    ______ ____
ROOT
ATOM      1  C   UNL     1      32.653  -9.704 -24.080  0.00  0.00    +0.062 C 
ATOM      2  C   UNL     1      33.377 -11.037 -23.725  0.00  0.00    +0.012 C 
ATOM      3  C   UNL     1      31.453  -9.393 -23.155  0.00  0.00    +0.173 C 
ATOM      4  C   UNL     1      34.561 -11.312 -24.697  0.00  0.00    +0.022 C 
ATOM      5  C   UNL     1      33.646  -8.546 -24.128  0.00  0.00    -0.024 C 
ATOM      6  C   UNL     1      30.900  -7.989 -23.416  0.00  0.00    +0.048 C 
ATOM      7  C   UNL     1      31.955  -6.878 -23.266  0.00  0.00    +0.025 C 
ATOM      8  C   UNL     1      33.315  -7.295 -23.760  0.00  0.00    -0.030 C 
ATOM      9  C   UNL     1      35.410 -10.080 -24.877  0.00  0.00    -0.027 C 
ATOM     10  C   UNL     1      34.988  -8.840 -24.599  0.00  0.00    -0.009 C 
ATOM     11  C   UNL     1      34.145 -11.836 -26.075  0.00  0.00    +0.005 C 
ATOM     12  C   UNL     1      32.057  -6.369 -21.826  0.00  0.00    +0.005 C 
ENDROOT
BRANCH   3  13
ATOM     13  O   UNL     1      31.831  -9.530 -21.789  0.00  0.00    -0.452 OA
BRANCH  13  15
ATOM     14  O   UNL     1      30.199 -11.127 -21.459  0.00  0.00    -0.250 OA
ATOM     15  C   UNL     1      31.031 -10.340 -21.028  0.00  0.00    +0.316 C 
BRANCH  15  16
ATOM     16  C   UNL     1      31.307 -10.099 -19.553  0.00  0.00    +0.099 C 
ATOM     17  C   UNL     1      31.551 -11.448 -18.883  0.00  0.00    +0.012 C 
BRANCH  16  18
ATOM     18  C   UNL     1      32.506  -9.161 -19.352  0.00  0.00    +0.011 C 
ATOM     19  C   UNL     1      32.096  -7.694 -19.298  0.00  0.00    +0.001 C 
ENDBRANCH  16  18
ENDBRANCH  15  16
ENDBRANCH  13  15
ENDBRANCH   3  13
BRANCH   2  20
ATOM     20  C   UNL     1      32.420 -12.232 -23.647  0.00  0.00    +0.004 C 
BRANCH  20  21
ATOM     21  C   UNL     1      32.751 -13.121 -22.456  0.00  0.00    +0.044 C 
BRANCH  21  24
ATOM     22  O   UNL     1      32.991 -14.570 -24.344  0.00  0.00    -0.452 OA
ATOM     23  O   UNL     1      33.190 -15.751 -26.249  0.00  0.00    -0.250 OA
ATOM     24  C   UNL     1      33.161 -14.516 -22.911  0.00  0.00    +0.171 C 
ATOM     25  C   UNL     1      34.587 -14.835 -22.486  0.00  0.00    +0.073 C 
ATOM     26  C   UNL     1      35.004 -16.164 -23.088  0.00  0.00    +0.125 C 
ATOM     27  C   UNL     1      34.876 -16.116 -24.598  0.00  0.00    +0.139 C 
ATOM     28  C   UNL     1      33.599 -15.501 -25.117  0.00  0.00    +0.319 C 
BRANCH  26  29
ATOM     29  O   UNL     1      34.191 -17.222 -22.587  0.00  0.00    -0.384 OA
ATOM     30  H   UNL     1      34.626 -17.630 -21.824  0.00  0.00    +0.210 HD
ENDBRANCH  26  29
ENDBRANCH  21  24
ENDBRANCH  20  21
ENDBRANCH   2  20
TORSDOF 8
ENDMDL
MODEL 8
REMARK VINA RESULT:      -8.0      9.743     14.184
REMARK  Name = 53232
REMARK  8 active torsions:
REMARK  status: ('A' for Active; 'I' for Inactive)
REMARK    1  A    between atoms: C_2  and  C_20
REMARK    2  A    between atoms: C_3  and  O_13
REMARK    3  A    between atoms: O_13  and  C_15
REMARK    4  A    between atoms: C_15  and  C_16
REMARK    5  A    between atoms: C_16  and  C_18
REMARK    6  A    between atoms: C_20  and  C_21
REMARK    7  A    between atoms: C_21  and  C_24
REMARK    8  A    between atoms: C_26  and  O_29
REMARK                            x       y       z     vdW  Elec       q    Type
REMARK                         _______ _______ _______ _____ _____    ______ ____
ROOT
ATOM      1  C   UNL     1      34.433 -15.230 -24.549  0.00  0.00    +0.062 C 
ATOM      2  C   UNL     1      33.363 -14.100 -24.476  0.00  0.00    +0.012 C 
ATOM      3  C   UNL     1      34.976 -15.650 -23.163  0.00  0.00    +0.173 C 
ATOM      4  C   UNL     1      32.867 -13.700 -25.897  0.00  0.00    +0.022 C 
ATOM      5  C   UNL     1      33.904 -16.424 -25.337  0.00  0.00    -0.024 C 
ATOM      6  C   UNL     1      35.871 -16.888 -23.270  0.00  0.00    +0.048 C 
ATOM      7  C   UNL     1      35.174 -18.092 -23.927  0.00  0.00    +0.025 C 
ATOM      8  C   UNL     1      34.246 -17.692 -25.042  0.00  0.00    -0.030 C 
ATOM      9  C   UNL     1      32.542 -14.920 -26.718  0.00  0.00    -0.027 C 
ATOM     10  C   UNL     1      33.005 -16.147 -26.443  0.00  0.00    -0.009 C 
ATOM     11  C   UNL     1      33.837 -12.813 -26.684  0.00  0.00    +0.005 C 
ATOM     12  C   UNL     1      34.422 -18.952 -22.907  0.00  0.00    +0.005 C 
ENDROOT
BRANCH   3  13
ATOM     13  O   UNL     1      33.900 -15.894 -22.262  0.00  0.00    -0.452 OA
BRANCH  13  15
ATOM     14  O   UNL     1      34.890 -14.997 -20.382  0.00  0.00    -0.250 OA
ATOM     15  C   UNL     1      33.916 -15.164 -21.104  0.00  0.00    +0.316 C 
BRANCH  15  16
ATOM     16  C   UNL     1      32.529 -14.610 -20.824  0.00  0.00    +0.099 C 
ATOM     17  C   UNL     1      31.740 -15.661 -20.048  0.00  0.00    +0.012 C 
BRANCH  16  18
ATOM     18  C   UNL     1      32.599 -13.289 -20.044  0.00  0.00    +0.011 C 
ATOM     19  C   UNL     1      31.558 -12.280 -20.513  0.00  0.00    +0.001 C 
ENDBRANCH  16  18
ENDBRANCH  15  16
ENDBRANCH  13  15
ENDBRANCH   3  13
BRANCH   2  20
ATOM     20  C   UNL     1      33.839 -12.879 -23.680  0.00  0.00    +0.004 C 
BRANCH  20  21
ATOM     21  C   UNL     1      33.351 -11.586 -24.318  0.00  0.00    +0.044 C 
BRANCH  21  24
ATOM     22  O   UNL     1      34.251  -9.436 -23.778  0.00  0.00    -0.452 OA
ATOM     23  O   UNL     1      35.179  -7.408 -23.480  0.00  0.00    -0.250 OA
ATOM     24  C   UNL     1      33.335 -10.447 -23.305  0.00  0.00    +0.171 C 
ATOM     25  C   UNL     1      31.927  -9.906 -23.109  0.00  0.00    +0.073 C 
ATOM     26  C   UNL     1      31.981  -8.681 -22.214  0.00  0.00    +0.125 C 
ATOM     27  C   UNL     1      32.896  -7.634 -22.817  0.00  0.00    +0.139 C 
ATOM     28  C   UNL     1      34.212  -8.154 -23.343  0.00  0.00    +0.319 C 
BRANCH  26  29
ATOM     29  O   UNL     1      32.461  -9.026 -20.917  0.00  0.00    -0.384 OA
ATOM     30  H   UNL     1      31.928  -8.576 -20.245  0.00  0.00    +0.210 HD
ENDBRANCH  26  29
ENDBRANCH  21  24
ENDBRANCH  20  21
ENDBRANCH   2  20
TORSDOF 8
ENDMDL
MODEL 9
REMARK VINA RESULT:      -7.9      9.609     14.148
REMARK  Name = 53232
REMARK  8 active torsions:
REMARK  status: ('A' for Active; 'I' for Inactive)
REMARK    1  A    between atoms: C_2  and  C_20
REMARK    2  A    between atoms: C_3  and  O_13
REMARK    3  A    between atoms: O_13  and  C_15
REMARK    4  A    between atoms: C_15  and  C_16
REMARK    5  A    between atoms: C_16  and  C_18
REMARK    6  A    between atoms: C_20  and  C_21
REMARK    7  A    between atoms: C_21  and  C_24
REMARK    8  A    between atoms: C_26  and  O_29
REMARK                            x       y       z     vdW  Elec       q    Type
REMARK                         _______ _______ _______ _____ _____    ______ ____
ROOT
ATOM      1  C   UNL     1      34.484 -15.508 -24.518  0.00  0.00    +0.062 C 
ATOM      2  C   UNL     1      33.413 -14.378 -24.487  0.00  0.00    +0.012 C 
ATOM      3  C   UNL     1      35.048 -15.856 -23.121  0.00  0.00    +0.173 C 
ATOM      4  C   UNL     1      32.894 -14.052 -25.919  0.00  0.00    +0.022 C 
ATOM      5  C   UNL     1      33.946 -16.742 -25.235  0.00  0.00    -0.024 C 
ATOM      6  C   UNL     1      35.945 -17.096 -23.177  0.00  0.00    +0.048 C 
ATOM      7  C   UNL     1      35.240 -18.334 -23.761  0.00  0.00    +0.025 C 
ATOM      8  C   UNL     1      34.295 -17.993 -24.881  0.00  0.00    -0.030 C 
ATOM      9  C   UNL     1      32.560 -15.314 -26.672  0.00  0.00    -0.027 C 
ATOM     10  C   UNL     1      33.029 -16.524 -26.340  0.00  0.00    -0.009 C 
ATOM     11  C   UNL     1      33.850 -13.205 -26.765  0.00  0.00    +0.005 C 
ATOM     12  C   UNL     1      34.506 -19.141 -22.687  0.00  0.00    +0.005 C 
ENDROOT
BRANCH   3  13
ATOM     13  O   UNL     1      33.986 -16.055 -22.192  0.00  0.00    -0.452 OA
BRANCH  13  15
ATOM     14  O   UNL     1      34.961 -14.966 -20.408  0.00  0.00    -0.250 OA
ATOM     15  C   UNL     1      33.987 -15.229 -21.100  0.00  0.00    +0.316 C 
BRANCH  15  16
ATOM     16  C   UNL     1      32.584 -14.702 -20.851  0.00  0.00    +0.099 C 
ATOM     17  C   UNL     1      31.743 -15.835 -20.268  0.00  0.00    +0.012 C 
BRANCH  16  18
ATOM     18  C   UNL     1      32.598 -13.489 -19.910  0.00  0.00    +0.011 C 
ATOM     19  C   UNL     1      31.708 -12.355 -20.407  0.00  0.00    +0.001 C 
ENDBRANCH  16  18
ENDBRANCH  15  16
ENDBRANCH  13  15
ENDBRANCH   3  13
BRANCH   2  20
ATOM     20  C   UNL     1      33.897 -13.117 -23.762  0.00  0.00    +0.004 C 
BRANCH  20  21
ATOM     21  C   UNL     1      32.757 -12.127 -23.563  0.00  0.00    +0.044 C 
BRANCH  21  24
ATOM     22  O   UNL     1      32.507  -9.794 -23.101  0.00  0.00    -0.452 OA
ATOM     23  O   UNL     1      32.172  -7.659 -22.473  0.00  0.00    -0.250 OA
ATOM     24  C   UNL     1      33.171 -10.723 -23.984  0.00  0.00    +0.171 C 
ATOM     25  C   UNL     1      34.685 -10.564 -23.956  0.00  0.00    +0.073 C 
ATOM     26  C   UNL     1      35.042  -9.116 -24.232  0.00  0.00    +0.125 C 
ATOM     27  C   UNL     1      34.373  -8.211 -23.216  0.00  0.00    +0.139 C 
ATOM     28  C   UNL     1      32.921  -8.515 -22.939  0.00  0.00    +0.319 C 
BRANCH  26  29
ATOM     29  O   UNL     1      34.624  -8.734 -25.540  0.00  0.00    -0.384 OA
ATOM     30  H   UNL     1      34.686  -7.771 -25.631  0.00  0.00    +0.210 HD
ENDBRANCH  26  29
ENDBRANCH  21  24
ENDBRANCH  20  21
ENDBRANCH   2  20
TORSDOF 8
ENDMDL
