MODEL 1
REMARK VINA RESULT:      -8.7      0.000      0.000
REMARK  Name = 60961
REMARK  5 active torsions:
REMARK  status: ('A' for Active; 'I' for Inactive)
REMARK    1  A    between atoms: N9_1  and  C1*_12
REMARK    2  A    between atoms: C2*_11  and  O2*_15
REMARK    3  A    between atoms: C3*_13  and  O3*_17
REMARK    4  A    between atoms: C4*_14  and  C5*_19
REMARK    5  A    between atoms: C5*_19  and  O5*_20
REMARK                            x       y       z     vdW  Elec       q    Type
REMARK                         _______ _______ _______ _____ _____    ______ ____
ROOT
ATOM      1  N9  A   A   1      34.305 -19.504 -20.850  0.00  0.00    -0.247 N 
ATOM      2  N7  A   A   1      32.736 -20.938 -20.171  0.00  0.00    -0.242 NA
ATOM      3  N3  A   A   1      36.238 -20.437 -19.712  0.00  0.00    -0.228 NA
ATOM      4  N1  A   A   1      35.636 -22.412 -18.411  0.00  0.00    -0.229 NA
ATOM      5  C4  A   A   1      34.938 -20.406 -20.041  0.00  0.00    +0.152 C 
ATOM      6  C8  A   A   1      32.984 -19.866 -20.895  0.00  0.00    +0.223 C 
ATOM      7  C5  A   A   1      33.949 -21.286 -19.632  0.00  0.00    +0.140 C 
ATOM      8  C6  A   A   1      34.336 -22.319 -18.785  0.00  0.00    +0.143 C 
ATOM      9  C2  A   A   1      36.493 -21.478 -18.891  0.00  0.00    +0.253 C 
ATOM     10  N6  A   A   1      33.399 -23.258 -18.321  0.00  0.00    -0.342 N 
ATOM     11  H61 A   A   1      33.685 -23.986 -17.723  0.00  0.00    +0.144 HD
ATOM     12  H62 A   A   1      32.456 -23.189 -18.596  0.00  0.00    +0.144 HD
ENDROOT
BRANCH   1  15
ATOM     13  O4* A   A   1      34.930 -17.223 -20.665  0.00  0.00    -0.333 OA
ATOM     14  C2* A   A   1      34.162 -17.930 -22.790  0.00  0.00    +0.187 C 
ATOM     15  C1* A   A   1      34.910 -18.366 -21.539  0.00  0.00    +0.225 C 
ATOM     16  C3* A   A   1      34.576 -16.476 -22.897  0.00  0.00    +0.171 C 
ATOM     17  C4* A   A   1      34.614 -16.041 -21.435  0.00  0.00    +0.175 C 
BRANCH  14  18
ATOM     18  O2* A   A   1      34.531 -18.696 -23.919  0.00  0.00    -0.378 OA
ATOM     19  H2* A   A   1      35.492 -18.823 -23.922  0.00  0.00    +0.211 HD
ENDBRANCH  14  18
BRANCH  16  20
ATOM     20  O3* A   A   1      35.895 -16.395 -23.435  0.00  0.00    -0.379 OA
ATOM     21  H3* A   A   1      36.516 -16.842 -22.839  0.00  0.00    +0.211 HD
ENDBRANCH  16  20
BRANCH  17  22
ATOM     22  C5* A   A   1      33.283 -15.490 -20.945  0.00  0.00    +0.169 C 
BRANCH  22  23
ATOM     23  O5* A   A   1      32.640 -14.832 -22.023  0.00  0.00    -0.379 OA
ATOM     24  H5* A   A   1      31.685 -14.994 -21.976  0.00  0.00    +0.211 HD
ENDBRANCH  22  23
ENDBRANCH  17  22
ENDBRANCH   1  15
TORSDOF 5
ENDMDL
MODEL 2
REMARK VINA RESULT:      -8.6      7.201      9.590
REMARK  Name = 60961
REMARK  5 active torsions:
REMARK  status: ('A' for Active; 'I' for Inactive)
REMARK    1  A    between atoms: N9_1  and  C1*_12
REMARK    2  A    between atoms: C2*_11  and  O2*_15
REMARK    3  A    between atoms: C3*_13  and  O3*_17
REMARK    4  A    between atoms: C4*_14  and  C5*_19
REMARK    5  A    between atoms: C5*_19  and  O5*_20
REMARK                            x       y       z     vdW  Elec       q    Type
REMARK                         _______ _______ _______ _____ _____    ______ ____
ROOT
ATOM      1  N9  A   A   1      35.617 -23.235 -14.764  0.00  0.00    -0.247 N 
ATOM      2  N7  A   A   1      35.630 -22.854 -16.962  0.00  0.00    -0.242 NA
ATOM      3  N3  A   A   1      33.231 -23.523 -14.408  0.00  0.00    -0.228 NA
ATOM      4  N1  A   A   1      31.986 -23.281 -16.493  0.00  0.00    -0.229 NA
ATOM      5  C4  A   A   1      34.312 -23.290 -15.167  0.00  0.00    +0.152 C 
ATOM      6  C8  A   A   1      36.369 -22.970 -15.878  0.00  0.00    +0.223 C 
ATOM      7  C5  A   A   1      34.342 -23.051 -16.532  0.00  0.00    +0.140 C 
ATOM      8  C6  A   A   1      33.120 -23.052 -17.198  0.00  0.00    +0.143 C 
ATOM      9  C2  A   A   1      32.110 -23.499 -15.162  0.00  0.00    +0.253 C 
ATOM     10  N6  A   A   1      33.057 -22.820 -18.583  0.00  0.00    -0.342 N 
ATOM     11  H61 A   A   1      32.188 -22.823 -19.044  0.00  0.00    +0.144 HD
ATOM     12  H62 A   A   1      33.884 -22.655 -19.092  0.00  0.00    +0.144 HD
ENDROOT
BRANCH   1  15
ATOM     13  O4* A   A   1      37.552 -23.233 -13.391  0.00  0.00    -0.333 OA
ATOM     14  C2* A   A   1      35.876 -24.811 -12.837  0.00  0.00    +0.187 C 
ATOM     15  C1* A   A   1      36.125 -23.422 -13.406  0.00  0.00    +0.225 C 
ATOM     16  C3* A   A   1      36.985 -24.918 -11.810  0.00  0.00    +0.171 C 
ATOM     17  C4* A   A   1      38.143 -24.211 -12.506  0.00  0.00    +0.175 C 
BRANCH  14  18
ATOM     18  O2* A   A   1      34.585 -24.926 -12.274  0.00  0.00    -0.378 OA
ATOM     19  H2* A   A   1      34.282 -24.054 -11.980  0.00  0.00    +0.211 HD
ENDBRANCH  14  18
BRANCH  16  20
ATOM     20  O3* A   A   1      36.627 -24.176 -10.644  0.00  0.00    -0.379 OA
ATOM     21  H3* A   A   1      37.427 -23.818 -10.230  0.00  0.00    +0.211 HD
ENDBRANCH  16  20
BRANCH  17  22
ATOM     22  C5* A   A   1      39.001 -25.154 -13.337  0.00  0.00    +0.169 C 
BRANCH  22  23
ATOM     23  O5* A   A   1      39.291 -24.531 -14.576  0.00  0.00    -0.379 OA
ATOM     24  H5* A   A   1      39.823 -23.735 -14.420  0.00  0.00    +0.211 HD
ENDBRANCH  22  23
ENDBRANCH  17  22
ENDBRANCH   1  15
TORSDOF 5
ENDMDL
MODEL 3
REMARK VINA RESULT:      -8.4      6.507      9.346
REMARK  Name = 60961
REMARK  5 active torsions:
REMARK  status: ('A' for Active; 'I' for Inactive)
REMARK    1  A    between atoms: N9_1  and  C1*_12
REMARK    2  A    between atoms: C2*_11  and  O2*_15
REMARK    3  A    between atoms: C3*_13  and  O3*_17
REMARK    4  A    between atoms: C4*_14  and  C5*_19
REMARK    5  A    between atoms: C5*_19  and  O5*_20
REMARK                            x       y       z     vdW  Elec       q    Type
REMARK                         _______ _______ _______ _____ _____    ______ ____
ROOT
ATOM      1  N9  A   A   1      36.641 -23.321 -15.765  0.00  0.00    -0.247 N 
ATOM      2  N7  A   A   1      37.199 -21.829 -17.328  0.00  0.00    -0.242 NA
ATOM      3  N3  A   A   1      34.350 -23.780 -16.430  0.00  0.00    -0.228 NA
ATOM      4  N1  A   A   1      33.719 -22.480 -18.397  0.00  0.00    -0.229 NA
ATOM      5  C4  A   A   1      35.537 -23.166 -16.556  0.00  0.00    +0.152 C 
ATOM      6  C8  A   A   1      37.612 -22.496 -16.270  0.00  0.00    +0.223 C 
ATOM      7  C5  A   A   1      35.903 -22.239 -17.518  0.00  0.00    +0.140 C 
ATOM      8  C6  A   A   1      34.941 -21.899 -18.463  0.00  0.00    +0.143 C 
ATOM      9  C2  A   A   1      33.503 -23.371 -17.399  0.00  0.00    +0.253 C 
ATOM     10  N6  A   A   1      35.227 -20.968 -19.476  0.00  0.00    -0.342 N 
ATOM     11  H61 A   A   1      34.539 -20.735 -20.140  0.00  0.00    +0.144 HD
ATOM     12  H62 A   A   1      36.117 -20.548 -19.522  0.00  0.00    +0.144 HD
ENDROOT
BRANCH   1  15
ATOM     13  O4* A   A   1      37.995 -23.892 -13.902  0.00  0.00    -0.333 OA
ATOM     14  C2* A   A   1      36.836 -25.676 -14.942  0.00  0.00    +0.187 C 
ATOM     15  C1* A   A   1      36.773 -24.194 -14.601  0.00  0.00    +0.225 C 
ATOM     16  C3* A   A   1      37.578 -26.230 -13.743  0.00  0.00    +0.171 C 
ATOM     17  C4* A   A   1      38.593 -25.128 -13.451  0.00  0.00    +0.175 C 
BRANCH  14  18
ATOM     18  O2* A   A   1      35.548 -26.234 -15.104  0.00  0.00    -0.378 OA
ATOM     19  H2* A   A   1      34.931 -25.806 -14.491  0.00  0.00    +0.211 HD
ENDBRANCH  14  18
BRANCH  16  20
ATOM     20  O3* A   A   1      36.683 -26.334 -12.636  0.00  0.00    -0.379 OA
ATOM     21  H3* A   A   1      36.787 -27.202 -12.216  0.00  0.00    +0.211 HD
ENDBRANCH  16  20
BRANCH  17  22
ATOM     22  C5* A   A   1      39.909 -25.323 -14.190  0.00  0.00    +0.169 C 
BRANCH  22  23
ATOM     23  O5* A   A   1      40.001 -26.676 -14.603  0.00  0.00    -0.379 OA
ATOM     24  H5* A   A   1      39.215 -26.909 -15.122  0.00  0.00    +0.211 HD
ENDBRANCH  22  23
ENDBRANCH  17  22
ENDBRANCH   1  15
TORSDOF 5
ENDMDL
MODEL 4
REMARK VINA RESULT:      -8.4      8.404     10.105
REMARK  Name = 60961
REMARK  5 active torsions:
REMARK  status: ('A' for Active; 'I' for Inactive)
REMARK    1  A    between atoms: N9_1  and  C1*_12
REMARK    2  A    between atoms: C2*_11  and  O2*_15
REMARK    3  A    between atoms: C3*_13  and  O3*_17
REMARK    4  A    between atoms: C4*_14  and  C5*_19
REMARK    5  A    between atoms: C5*_19  and  O5*_20
REMARK                            x       y       z     vdW  Elec       q    Type
REMARK                         _______ _______ _______ _____ _____    ______ ____
ROOT
ATOM      1  N9  A   A   1      34.156 -24.281 -14.178  0.00  0.00    -0.247 N 
ATOM      2  N7  A   A   1      33.606 -23.098 -15.989  0.00  0.00    -0.242 NA
ATOM      3  N3  A   A   1      31.938 -24.882 -13.388  0.00  0.00    -0.228 NA
ATOM      4  N1  A   A   1      30.201 -23.976 -14.843  0.00  0.00    -0.229 NA
ATOM      5  C4  A   A   1      32.790 -24.288 -14.238  0.00  0.00    +0.152 C 
ATOM      6  C8  A   A   1      34.598 -23.553 -15.252  0.00  0.00    +0.223 C 
ATOM      7  C5  A   A   1      32.470 -23.551 -15.367  0.00  0.00    +0.140 C 
ATOM      8  C6  A   A   1      31.118 -23.403 -15.660  0.00  0.00    +0.143 C 
ATOM      9  C2  A   A   1      30.661 -24.669 -13.774  0.00  0.00    +0.253 C 
ATOM     10  N6  A   A   1      30.703 -22.671 -16.786  0.00  0.00    -0.342 N 
ATOM     11  H61 A   A   1      29.744 -22.574 -16.984  0.00  0.00    +0.144 HD
ATOM     12  H62 A   A   1      31.372 -22.257 -17.378  0.00  0.00    +0.144 HD
ENDROOT
BRANCH   1  15
ATOM     13  O4* A   A   1      35.138 -24.052 -12.031  0.00  0.00    -0.333 OA
ATOM     14  C2* A   A   1      36.405 -25.237 -13.643  0.00  0.00    +0.187 C 
ATOM     15  C1* A   A   1      34.994 -24.923 -13.168  0.00  0.00    +0.225 C 
ATOM     16  C3* A   A   1      37.165 -25.262 -12.331  0.00  0.00    +0.171 C 
ATOM     17  C4* A   A   1      36.497 -24.138 -11.546  0.00  0.00    +0.175 C 
BRANCH  14  18
ATOM     18  O2* A   A   1      36.465 -26.462 -14.342  0.00  0.00    -0.378 OA
ATOM     19  H2* A   A   1      37.043 -27.078 -13.867  0.00  0.00    +0.211 HD
ENDBRANCH  14  18
BRANCH  16  20
ATOM     20  O3* A   A   1      36.917 -26.499 -11.662  0.00  0.00    -0.379 OA
ATOM     21  H3* A   A   1      35.983 -26.739 -11.762  0.00  0.00    +0.211 HD
ENDBRANCH  16  20
BRANCH  17  22
ATOM     22  C5* A   A   1      37.168 -22.788 -11.757  0.00  0.00    +0.169 C 
BRANCH  22  23
ATOM     23  O5* A   A   1      38.569 -22.953 -11.627  0.00  0.00    -0.379 OA
ATOM     24  H5* A   A   1      39.021 -22.178 -11.996  0.00  0.00    +0.211 HD
ENDBRANCH  22  23
ENDBRANCH  17  22
ENDBRANCH   1  15
TORSDOF 5
ENDMDL
MODEL 5
REMARK VINA RESULT:      -8.1      6.605      9.141
REMARK  Name = 60961
REMARK  5 active torsions:
REMARK  status: ('A' for Active; 'I' for Inactive)
REMARK    1  A    between atoms: N9_1  and  C1*_12
REMARK    2  A    between atoms: C2*_11  and  O2*_15
REMARK    3  A    between atoms: C3*_13  and  O3*_17
REMARK    4  A    between atoms: C4*_14  and  C5*_19
REMARK    5  A    between atoms: C5*_19  and  O5*_20
REMARK                            x       y       z     vdW  Elec       q    Type
REMARK                         _______ _______ _______ _____ _____    ______ ____
ROOT
ATOM      1  N9  A   A   1      34.459 -24.255 -14.524  0.00  0.00    -0.247 N 
ATOM      2  N7  A   A   1      32.480 -23.784 -13.607  0.00  0.00    -0.242 NA
ATOM      3  N3  A   A   1      34.008 -23.628 -16.827  0.00  0.00    -0.228 NA
ATOM      4  N1  A   A   1      31.724 -22.810 -17.094  0.00  0.00    -0.229 NA
ATOM      5  C4  A   A   1      33.672 -23.783 -15.537  0.00  0.00    +0.152 C 
ATOM      6  C8  A   A   1      33.696 -24.237 -13.385  0.00  0.00    +0.223 C 
ATOM      7  C5  A   A   1      32.451 -23.496 -14.948  0.00  0.00    +0.140 C 
ATOM      8  C6  A   A   1      31.455 -22.992 -15.778  0.00  0.00    +0.143 C 
ATOM      9  C2  A   A   1      32.965 -23.134 -17.530  0.00  0.00    +0.253 C 
ATOM     10  N6  A   A   1      30.186 -22.673 -15.265  0.00  0.00    -0.342 N 
ATOM     11  H61 A   A   1      29.489 -22.316 -15.861  0.00  0.00    +0.144 HD
ATOM     12  H62 A   A   1      29.995 -22.805 -14.309  0.00  0.00    +0.144 HD
ENDROOT
BRANCH   1  15
ATOM     13  O4* A   A   1      36.255 -25.302 -13.381  0.00  0.00    -0.333 OA
ATOM     14  C2* A   A   1      36.838 -23.575 -14.894  0.00  0.00    +0.187 C 
ATOM     15  C1* A   A   1      35.848 -24.698 -14.623  0.00  0.00    +0.225 C 
ATOM     16  C3* A   A   1      38.117 -24.159 -14.326  0.00  0.00    +0.171 C 
ATOM     17  C4* A   A   1      37.615 -24.905 -13.094  0.00  0.00    +0.175 C 
BRANCH  14  18
ATOM     18  O2* A   A   1      36.930 -23.274 -16.271  0.00  0.00    -0.378 OA
ATOM     19  H2* A   A   1      37.860 -23.149 -16.513  0.00  0.00    +0.211 HD
ENDBRANCH  14  18
BRANCH  16  20
ATOM     20  O3* A   A   1      38.657 -25.106 -15.248  0.00  0.00    -0.379 OA
ATOM     21  H3* A   A   1      38.878 -24.658 -16.080  0.00  0.00    +0.211 HD
ENDBRANCH  16  20
BRANCH  17  22
ATOM     22  C5* A   A   1      37.609 -24.042 -11.840  0.00  0.00    +0.169 C 
BRANCH  22  23
ATOM     23  O5* A   A   1      38.848 -23.361 -11.752  0.00  0.00    -0.379 OA
ATOM     24  H5* A   A   1      39.450 -23.859 -11.178  0.00  0.00    +0.211 HD
ENDBRANCH  22  23
ENDBRANCH  17  22
ENDBRANCH   1  15
TORSDOF 5
ENDMDL
MODEL 6
REMARK VINA RESULT:      -7.9      6.950      8.501
REMARK  Name = 60961
REMARK  5 active torsions:
REMARK  status: ('A' for Active; 'I' for Inactive)
REMARK    1  A    between atoms: N9_1  and  C1*_12
REMARK    2  A    between atoms: C2*_11  and  O2*_15
REMARK    3  A    between atoms: C3*_13  and  O3*_17
REMARK    4  A    between atoms: C4*_14  and  C5*_19
REMARK    5  A    between atoms: C5*_19  and  O5*_20
REMARK                            x       y       z     vdW  Elec       q    Type
REMARK                         _______ _______ _______ _____ _____    ______ ____
ROOT
ATOM      1  N9  A   A   1      33.582 -23.598 -15.603  0.00  0.00    -0.247 N 
ATOM      2  N7  A   A   1      34.931 -22.873 -17.226  0.00  0.00    -0.242 NA
ATOM      3  N3  A   A   1      35.173 -23.729 -13.771  0.00  0.00    -0.228 NA
ATOM      4  N1  A   A   1      37.406 -23.047 -14.483  0.00  0.00    -0.229 NA
ATOM      5  C4  A   A   1      34.822 -23.472 -15.040  0.00  0.00    +0.152 C 
ATOM      6  C8  A   A   1      33.701 -23.227 -16.917  0.00  0.00    +0.223 C 
ATOM      7  C5  A   A   1      35.642 -23.021 -16.062  0.00  0.00    +0.140 C 
ATOM      8  C6  A   A   1      36.981 -22.808 -15.747  0.00  0.00    +0.143 C 
ATOM      9  C2  A   A   1      36.489 -23.487 -13.587  0.00  0.00    +0.253 C 
ATOM     10  N6  A   A   1      37.884 -22.351 -16.722  0.00  0.00    -0.342 N 
ATOM     11  H61 A   A   1      38.828 -22.202 -16.488  0.00  0.00    +0.144 HD
ATOM     12  H62 A   A   1      37.571 -22.177 -17.640  0.00  0.00    +0.144 HD
ENDROOT
BRANCH   1  15
ATOM     13  O4* A   A   1      31.359 -24.360 -15.927  0.00  0.00    -0.333 OA
ATOM     14  C2* A   A   1      31.735 -23.000 -14.025  0.00  0.00    +0.187 C 
ATOM     15  C1* A   A   1      32.358 -24.043 -14.940  0.00  0.00    +0.225 C 
ATOM     16  C3* A   A   1      30.284 -23.438 -14.014  0.00  0.00    +0.171 C 
ATOM     17  C4* A   A   1      30.073 -23.901 -15.452  0.00  0.00    +0.175 C 
BRANCH  14  18
ATOM     18  O2* A   A   1      32.325 -23.004 -12.742  0.00  0.00    -0.378 OA
ATOM     19  H2* A   A   1      33.289 -22.957 -12.829  0.00  0.00    +0.211 HD
ENDBRANCH  14  18
BRANCH  16  20
ATOM     20  O3* A   A   1      30.132 -24.559 -13.144  0.00  0.00    -0.379 OA
ATOM     21  H3* A   A   1      30.492 -24.341 -12.270  0.00  0.00    +0.211 HD
ENDBRANCH  16  20
BRANCH  17  22
ATOM     22  C5* A   A   1      29.593 -22.786 -16.370  0.00  0.00    +0.169 C 
BRANCH  22  23
ATOM     23  O5* A   A   1      28.539 -22.091 -15.727  0.00  0.00    -0.379 OA
ATOM     24  H5* A   A   1      28.486 -22.372 -14.800  0.00  0.00    +0.211 HD
ENDBRANCH  22  23
ENDBRANCH  17  22
ENDBRANCH   1  15
TORSDOF 5
ENDMDL
MODEL 7
REMARK VINA RESULT:      -7.8      6.218      8.469
REMARK  Name = 60961
REMARK  5 active torsions:
REMARK  status: ('A' for Active; 'I' for Inactive)
REMARK    1  A    between atoms: N9_1  and  C1*_12
REMARK    2  A    between atoms: C2*_11  and  O2*_15
REMARK    3  A    between atoms: C3*_13  and  O3*_17
REMARK    4  A    between atoms: C4*_14  and  C5*_19
REMARK    5  A    between atoms: C5*_19  and  O5*_20
REMARK                            x       y       z     vdW  Elec       q    Type
REMARK                         _______ _______ _______ _____ _____    ______ ____
ROOT
ATOM      1  N9  A   A   1      33.967 -23.460 -16.286  0.00  0.00    -0.247 N 
ATOM      2  N7  A   A   1      32.355 -22.931 -17.736  0.00  0.00    -0.242 NA
ATOM      3  N3  A   A   1      32.651 -23.643 -14.252  0.00  0.00    -0.228 NA
ATOM      4  N1  A   A   1      30.290 -23.193 -14.679  0.00  0.00    -0.229 NA
ATOM      5  C4  A   A   1      32.806 -23.417 -15.566  0.00  0.00    +0.152 C 
ATOM      6  C8  A   A   1      33.643 -23.161 -17.584  0.00  0.00    +0.223 C 
ATOM      7  C5  A   A   1      31.820 -23.088 -16.482  0.00  0.00    +0.140 C 
ATOM      8  C6  A   A   1      30.521 -22.978 -15.997  0.00  0.00    +0.143 C 
ATOM      9  C2  A   A   1      31.354 -23.507 -13.900  0.00  0.00    +0.253 C 
ATOM     10  N6  A   A   1      29.459 -22.649 -16.856  0.00  0.00    -0.342 N 
ATOM     11  H61 A   A   1      28.543 -22.575 -16.502  0.00  0.00    +0.144 HD
ATOM     12  H62 A   A   1      29.630 -22.494 -17.813  0.00  0.00    +0.144 HD
ENDROOT
BRANCH   1  15
ATOM     13  O4* A   A   1      35.210 -24.712 -14.700  0.00  0.00    -0.333 OA
ATOM     14  C2* A   A   1      36.046 -22.559 -15.224  0.00  0.00    +0.187 C 
ATOM     15  C1* A   A   1      35.304 -23.765 -15.781  0.00  0.00    +0.225 C 
ATOM     16  C3* A   A   1      37.010 -23.219 -14.258  0.00  0.00    +0.171 C 
ATOM     17  C4* A   A   1      36.166 -24.350 -13.678  0.00  0.00    +0.175 C 
BRANCH  14  18
ATOM     18  O2* A   A   1      36.696 -21.826 -16.241  0.00  0.00    -0.378 OA
ATOM     19  H2* A   A   1      37.064 -22.438 -16.897  0.00  0.00    +0.211 HD
ENDBRANCH  14  18
BRANCH  16  20
ATOM     20  O3* A   A   1      38.100 -23.785 -14.985  0.00  0.00    -0.379 OA
ATOM     21  H3* A   A   1      38.887 -23.812 -14.420  0.00  0.00    +0.211 HD
ENDBRANCH  16  20
BRANCH  17  22
ATOM     22  C5* A   A   1      35.401 -23.938 -12.428  0.00  0.00    +0.169 C 
BRANCH  22  23
ATOM     23  O5* A   A   1      34.450 -24.945 -12.126  0.00  0.00    -0.379 OA
ATOM     24  H5* A   A   1      33.949 -24.689 -11.337  0.00  0.00    +0.211 HD
ENDBRANCH  22  23
ENDBRANCH  17  22
ENDBRANCH   1  15
TORSDOF 5
ENDMDL
MODEL 8
REMARK VINA RESULT:      -7.8      7.188      8.911
REMARK  Name = 60961
REMARK  5 active torsions:
REMARK  status: ('A' for Active; 'I' for Inactive)
REMARK    1  A    between atoms: N9_1  and  C1*_12
REMARK    2  A    between atoms: C2*_11  and  O2*_15
REMARK    3  A    between atoms: C3*_13  and  O3*_17
REMARK    4  A    between atoms: C4*_14  and  C5*_19
REMARK    5  A    between atoms: C5*_19  and  O5*_20
REMARK                            x       y       z     vdW  Elec       q    Type
REMARK                         _______ _______ _______ _____ _____    ______ ____
ROOT
ATOM      1  N9  A   A   1      33.800 -23.861 -15.294  0.00  0.00    -0.247 N 
ATOM      2  N7  A   A   1      32.575 -23.165 -17.024  0.00  0.00    -0.242 NA
ATOM      3  N3  A   A   1      32.058 -24.077 -13.614  0.00  0.00    -0.228 NA
ATOM      4  N1  A   A   1      29.873 -23.471 -14.517  0.00  0.00    -0.229 NA
ATOM      5  C4  A   A   1      32.511 -23.790 -14.844  0.00  0.00    +0.152 C 
ATOM      6  C8  A   A   1      33.785 -23.475 -16.609  0.00  0.00    +0.223 C 
ATOM      7  C5  A   A   1      31.768 -23.358 -15.931  0.00  0.00    +0.140 C 
ATOM      8  C6  A   A   1      30.400 -23.199 -15.735  0.00  0.00    +0.143 C 
ATOM      9  C2  A   A   1      30.723 -23.887 -13.546  0.00  0.00    +0.253 C 
ATOM     10  N6  A   A   1      29.570 -22.766 -16.783  0.00  0.00    -0.342 N 
ATOM     11  H61 A   A   1      28.603 -22.658 -16.634  0.00  0.00    +0.144 HD
ATOM     12  H62 A   A   1      29.956 -22.570 -17.668  0.00  0.00    +0.144 HD
ENDROOT
BRANCH   1  15
ATOM     13  O4* A   A   1      35.797 -23.119 -14.250  0.00  0.00    -0.333 OA
ATOM     14  C2* A   A   1      35.872 -25.264 -15.253  0.00  0.00    +0.187 C 
ATOM     15  C1* A   A   1      34.976 -24.269 -14.529  0.00  0.00    +0.225 C 
ATOM     16  C3* A   A   1      37.208 -25.007 -14.585  0.00  0.00    +0.171 C 
ATOM     17  C4* A   A   1      37.187 -23.494 -14.385  0.00  0.00    +0.175 C 
BRANCH  14  18
ATOM     18  O2* A   A   1      35.419 -26.592 -15.094  0.00  0.00    -0.378 OA
ATOM     19  H2* A   A   1      35.614 -26.895 -14.194  0.00  0.00    +0.211 HD
ENDBRANCH  14  18
BRANCH  16  20
ATOM     20  O3* A   A   1      37.229 -25.639 -13.305  0.00  0.00    -0.379 OA
ATOM     21  H3* A   A   1      37.490 -26.567 -13.407  0.00  0.00    +0.211 HD
ENDBRANCH  16  20
BRANCH  17  22
ATOM     22  C5* A   A   1      37.778 -22.733 -15.563  0.00  0.00    +0.169 C 
BRANCH  22  23
ATOM     23  O5* A   A   1      38.912 -23.438 -16.037  0.00  0.00    -0.379 OA
ATOM     24  H5* A   A   1      39.549 -22.810 -16.412  0.00  0.00    +0.211 HD
ENDBRANCH  22  23
ENDBRANCH  17  22
ENDBRANCH   1  15
TORSDOF 5
ENDMDL
MODEL 9
REMARK VINA RESULT:      -7.8      0.906      2.040
REMARK  Name = 60961
REMARK  5 active torsions:
REMARK  status: ('A' for Active; 'I' for Inactive)
REMARK    1  A    between atoms: N9_1  and  C1*_12
REMARK    2  A    between atoms: C2*_11  and  O2*_15
REMARK    3  A    between atoms: C3*_13  and  O3*_17
REMARK    4  A    between atoms: C4*_14  and  C5*_19
REMARK    5  A    between atoms: C5*_19  and  O5*_20
REMARK                            x       y       z     vdW  Elec       q    Type
REMARK                         _______ _______ _______ _____ _____    ______ ____
ROOT
ATOM      1  N9  A   A   1      35.686 -19.058 -20.957  0.00  0.00    -0.247 N 
ATOM      2  N7  A   A   1      36.463 -20.762 -19.744  0.00  0.00    -0.242 NA
ATOM      3  N3  A   A   1      33.312 -19.574 -20.921  0.00  0.00    -0.228 NA
ATOM      4  N1  A   A   1      32.864 -21.608 -19.649  0.00  0.00    -0.229 NA
ATOM      5  C4  A   A   1      34.595 -19.805 -20.607  0.00  0.00    +0.152 C 
ATOM      6  C8  A   A   1      36.783 -19.675 -20.415  0.00  0.00    +0.223 C 
ATOM      7  C5  A   A   1      35.099 -20.855 -19.856  0.00  0.00    +0.140 C 
ATOM      8  C6  A   A   1      34.179 -21.779 -19.369  0.00  0.00    +0.143 C 
ATOM      9  C2  A   A   1      32.518 -20.532 -20.396  0.00  0.00    +0.253 C 
ATOM     10  N6  A   A   1      34.601 -22.874 -18.598  0.00  0.00    -0.342 N 
ATOM     11  H61 A   A   1      33.942 -23.522 -18.258  0.00  0.00    +0.144 HD
ATOM     12  H62 A   A   1      35.557 -22.995 -18.396  0.00  0.00    +0.144 HD
ENDROOT
BRANCH   1  15
ATOM     13  O4* A   A   1      35.264 -16.723 -20.946  0.00  0.00    -0.333 OA
ATOM     14  C2* A   A   1      34.754 -17.872 -22.953  0.00  0.00    +0.187 C 
ATOM     15  C1* A   A   1      35.692 -17.834 -21.756  0.00  0.00    +0.225 C 
ATOM     16  C3* A   A   1      34.486 -16.396 -23.171  0.00  0.00    +0.171 C 
ATOM     17  C4* A   A   1      34.419 -15.863 -21.744  0.00  0.00    +0.175 C 
BRANCH  14  18
ATOM     18  O2* A   A   1      35.351 -18.497 -24.070  0.00  0.00    -0.378 OA
ATOM     19  H2* A   A   1      36.303 -18.311 -24.075  0.00  0.00    +0.211 HD
ENDBRANCH  14  18
BRANCH  16  20
ATOM     20  O3* A   A   1      35.603 -15.802 -23.832  0.00  0.00    -0.379 OA
ATOM     21  H3* A   A   1      35.341 -14.946 -24.205  0.00  0.00    +0.211 HD
ENDBRANCH  16  20
BRANCH  17  22
ATOM     22  C5* A   A   1      33.013 -15.899 -21.162  0.00  0.00    +0.169 C 
BRANCH  22  23
ATOM     23  O5* A   A   1      32.229 -14.911 -21.810  0.00  0.00    -0.379 OA
ATOM     24  H5* A   A   1      32.774 -14.441 -22.460  0.00  0.00    +0.211 HD
ENDBRANCH  22  23
ENDBRANCH  17  22
ENDBRANCH   1  15
TORSDOF 5
ENDMDL
