MODEL 1
REMARK VINA RESULT:      -9.1      0.000      0.000
REMARK  Name = 1587957
REMARK  5 active torsions:
REMARK  status: ('A' for Active; 'I' for Inactive)
REMARK    1  A    between atoms: C_4  and  C_10
REMARK    2  A    between atoms: C_6  and  C_16
REMARK    3  A    between atoms: N_22  and  C_24
REMARK    4  A    between atoms: C_24  and  C_25
REMARK    5  A    between atoms: C_25  and  O_26
REMARK                            x       y       z     vdW  Elec       q    Type
REMARK                         _______ _______ _______ _____ _____    ______ ____
ROOT
ATOM      1  O   UNL     1      32.016 -11.013 -21.842  0.00  0.00    -0.440 OA
ATOM      2  N   UNL     1      31.849 -13.132 -20.755  0.00  0.00    -0.214 NA
ATOM      3  N   UNL     1      33.031 -14.923 -21.907  0.00  0.00    -0.233 NA
ATOM      4  C   UNL     1      33.289 -11.578 -23.612  0.00  0.00    +0.028 C 
ATOM      5  C   UNL     1      33.078 -12.739 -22.830  0.00  0.00    +0.155 C 
ATOM      6  C   UNL     1      32.623 -10.559 -22.970  0.00  0.00    +0.144 C 
ATOM      7  C   UNL     1      32.291 -12.346 -21.753  0.00  0.00    +0.214 C 
ATOM      8  C   UNL     1      33.445 -14.082 -22.882  0.00  0.00    +0.115 C 
ATOM      9  C   UNL     1      32.269 -14.402 -20.918  0.00  0.00    +0.254 C 
ATOM     10  N   UNL     1      34.241 -14.577 -23.931  0.00  0.00    -0.319 N 
ATOM     11  H   UNL     1      34.534 -13.953 -24.634  0.00  0.00    +0.148 HD
ENDROOT
BRANCH   4  12
ATOM     12  C   UNL     1      34.024 -11.395 -24.831  0.00  0.00    -0.000 C 
ATOM     13  C   UNL     1      35.083 -10.489 -24.878  0.00  0.00    -0.000 C 
ATOM     14  C   UNL     1      33.679 -12.123 -25.971  0.00  0.00    -0.000 C 
ATOM     15  C   UNL     1      35.798 -10.310 -26.063  0.00  0.00    -0.000 C 
ATOM     16  C   UNL     1      34.392 -11.945 -27.155  0.00  0.00    -0.000 C 
ATOM     17  C   UNL     1      35.452 -11.038 -27.202  0.00  0.00    -0.000 C 
ENDBRANCH   4  12
BRANCH   6  18
ATOM     18  C   UNL     1      32.438  -9.155 -23.226  0.00  0.00    +0.034 C 
ATOM     19  C   UNL     1      31.201  -8.680 -23.664  0.00  0.00    +0.003 C 
ATOM     20  C   UNL     1      33.496  -8.262 -23.040  0.00  0.00    +0.003 C 
ATOM     21  C   UNL     1      31.021  -7.319 -23.913  0.00  0.00    +0.000 C 
ATOM     22  C   UNL     1      33.316  -6.901 -23.289  0.00  0.00    +0.000 C 
ATOM     23  C   UNL     1      32.078  -6.430 -23.727  0.00  0.00    +0.000 C 
ENDBRANCH   6  18
BRANCH  10  24
ATOM     24  C   UNL     1      34.642 -15.949 -24.026  0.00  0.00    +0.120 C 
BRANCH  24  25
ATOM     25  C   UNL     1      34.022 -16.578 -25.260  0.00  0.00    +0.158 C 
BRANCH  25  26
ATOM     26  O   UNL     1      33.848 -15.583 -26.260  0.00  0.00    -0.380 OA
ATOM     27  H   UNL     1      33.702 -16.009 -27.119  0.00  0.00    +0.211 HD
ENDBRANCH  25  26
ENDBRANCH  24  25
ENDBRANCH  10  24
TORSDOF 5
ENDMDL
MODEL 2
REMARK VINA RESULT:      -9.0     13.200     15.536
REMARK  Name = 1587957
REMARK  5 active torsions:
REMARK  status: ('A' for Active; 'I' for Inactive)
REMARK    1  A    between atoms: C_4  and  C_10
REMARK    2  A    between atoms: C_6  and  C_16
REMARK    3  A    between atoms: N_22  and  C_24
REMARK    4  A    between atoms: C_24  and  C_25
REMARK    5  A    between atoms: C_25  and  O_26
REMARK                            x       y       z     vdW  Elec       q    Type
REMARK                         _______ _______ _______ _____ _____    ______ ____
ROOT
ATOM      1  O   UNL     1      33.435 -24.426 -12.999  0.00  0.00    -0.440 OA
ATOM      2  N   UNL     1      35.364 -25.002 -11.714  0.00  0.00    -0.214 NA
ATOM      3  N   UNL     1      37.465 -24.703 -12.908  0.00  0.00    -0.233 NA
ATOM      4  C   UNL     1      34.419 -23.797 -14.924  0.00  0.00    +0.028 C 
ATOM      5  C   UNL     1      35.433 -24.183 -14.015  0.00  0.00    +0.155 C 
ATOM      6  C   UNL     1      33.226 -23.963 -14.259  0.00  0.00    +0.144 C 
ATOM      7  C   UNL     1      34.784 -24.563 -12.845  0.00  0.00    +0.214 C 
ATOM      8  C   UNL     1      36.824 -24.267 -14.017  0.00  0.00    +0.115 C 
ATOM      9  C   UNL     1      36.705 -25.039 -11.841  0.00  0.00    +0.254 C 
ATOM     10  N   UNL     1      37.571 -23.906 -15.152  0.00  0.00    -0.319 N 
ATOM     11  H   UNL     1      37.091 -23.591 -15.951  0.00  0.00    +0.148 HD
ENDROOT
BRANCH   4  12
ATOM     12  C   UNL     1      34.509 -23.318 -16.274  0.00  0.00    -0.000 C 
ATOM     13  C   UNL     1      35.591 -22.527 -16.663  0.00  0.00    -0.000 C 
ATOM     14  C   UNL     1      33.516 -23.642 -17.199  0.00  0.00    -0.000 C 
ATOM     15  C   UNL     1      35.680 -22.061 -17.975  0.00  0.00    -0.000 C 
ATOM     16  C   UNL     1      33.604 -23.177 -18.510  0.00  0.00    -0.000 C 
ATOM     17  C   UNL     1      34.686 -22.386 -18.898  0.00  0.00    -0.000 C 
ENDBRANCH   4  12
BRANCH   6  18
ATOM     18  C   UNL     1      31.843 -23.757 -14.599  0.00  0.00    +0.034 C 
ATOM     19  C   UNL     1      31.000 -24.851 -14.800  0.00  0.00    +0.003 C 
ATOM     20  C   UNL     1      31.338 -22.460 -14.731  0.00  0.00    +0.003 C 
ATOM     21  C   UNL     1      29.660 -24.652 -15.131  0.00  0.00    +0.000 C 
ATOM     22  C   UNL     1      29.997 -22.261 -15.062  0.00  0.00    +0.000 C 
ATOM     23  C   UNL     1      29.159 -23.358 -15.262  0.00  0.00    +0.000 C 
ENDBRANCH   6  18
BRANCH  10  24
ATOM     24  C   UNL     1      39.001 -23.976 -15.199  0.00  0.00    +0.120 C 
BRANCH  24  25
ATOM     25  C   UNL     1      39.447 -25.417 -15.035  0.00  0.00    +0.158 C 
BRANCH  25  26
ATOM     26  O   UNL     1      40.308 -25.771 -16.110  0.00  0.00    -0.380 OA
ATOM     27  H   UNL     1      40.889 -25.023 -16.318  0.00  0.00    +0.211 HD
ENDBRANCH  25  26
ENDBRANCH  24  25
ENDBRANCH  10  24
TORSDOF 5
ENDMDL
MODEL 3
REMARK VINA RESULT:      -9.0      1.893      5.860
REMARK  Name = 1587957
REMARK  5 active torsions:
REMARK  status: ('A' for Active; 'I' for Inactive)
REMARK    1  A    between atoms: C_4  and  C_10
REMARK    2  A    between atoms: C_6  and  C_16
REMARK    3  A    between atoms: N_22  and  C_24
REMARK    4  A    between atoms: C_24  and  C_25
REMARK    5  A    between atoms: C_25  and  O_26
REMARK                            x       y       z     vdW  Elec       q    Type
REMARK                         _______ _______ _______ _____ _____    ______ ____
ROOT
ATOM      1  O   UNL     1      32.438 -13.625 -22.051  0.00  0.00    -0.440 OA
ATOM      2  N   UNL     1      31.155 -12.112 -20.723  0.00  0.00    -0.214 NA
ATOM      3  N   UNL     1      31.202  -9.814 -21.529  0.00  0.00    -0.233 NA
ATOM      4  C   UNL     1      33.221 -12.207 -23.617  0.00  0.00    +0.028 C 
ATOM      5  C   UNL     1      32.416 -11.470 -22.715  0.00  0.00    +0.155 C 
ATOM      6  C   UNL     1      33.202 -13.508 -23.170  0.00  0.00    +0.144 C 
ATOM      7  C   UNL     1      31.956 -12.380 -21.769  0.00  0.00    +0.214 C 
ATOM      8  C   UNL     1      32.008 -10.146 -22.563  0.00  0.00    +0.115 C 
ATOM      9  C   UNL     1      30.831 -10.804 -20.685  0.00  0.00    +0.254 C 
ATOM     10  N   UNL     1      32.419  -9.151 -23.467  0.00  0.00    -0.319 N 
ATOM     11  H   UNL     1      33.006  -9.408 -24.215  0.00  0.00    +0.148 HD
ENDROOT
BRANCH   4  12
ATOM     12  C   UNL     1      33.945 -11.783 -24.781  0.00  0.00    -0.000 C 
ATOM     13  C   UNL     1      34.911 -10.781 -24.675  0.00  0.00    -0.000 C 
ATOM     14  C   UNL     1      33.684 -12.370 -26.019  0.00  0.00    -0.000 C 
ATOM     15  C   UNL     1      35.615 -10.368 -25.806  0.00  0.00    -0.000 C 
ATOM     16  C   UNL     1      34.387 -11.957 -27.150  0.00  0.00    -0.000 C 
ATOM     17  C   UNL     1      35.353 -10.956 -27.044  0.00  0.00    -0.000 C 
ENDBRANCH   4  12
BRANCH   6  18
ATOM     18  C   UNL     1      33.798 -14.739 -23.618  0.00  0.00    +0.034 C 
ATOM     19  C   UNL     1      34.702 -15.419 -22.800  0.00  0.00    +0.003 C 
ATOM     20  C   UNL     1      33.476 -15.257 -24.875  0.00  0.00    +0.003 C 
ATOM     21  C   UNL     1      35.281 -16.611 -23.235  0.00  0.00    +0.000 C 
ATOM     22  C   UNL     1      34.056 -16.450 -25.310  0.00  0.00    +0.000 C 
ATOM     23  C   UNL     1      34.958 -17.126 -24.489  0.00  0.00    +0.000 C 
ENDBRANCH   6  18
BRANCH  10  24
ATOM     24  C   UNL     1      32.025  -7.779 -23.350  0.00  0.00    +0.120 C 
BRANCH  24  25
ATOM     25  C   UNL     1      33.035  -7.028 -22.503  0.00  0.00    +0.158 C 
BRANCH  25  26
ATOM     26  O   UNL     1      32.612  -7.037 -21.146  0.00  0.00    -0.380 OA
ATOM     27  H   UNL     1      32.895  -7.863 -20.723  0.00  0.00    +0.211 HD
ENDBRANCH  25  26
ENDBRANCH  24  25
ENDBRANCH  10  24
TORSDOF 5
ENDMDL
MODEL 4
REMARK VINA RESULT:      -8.5     12.558     15.569
REMARK  Name = 1587957
REMARK  5 active torsions:
REMARK  status: ('A' for Active; 'I' for Inactive)
REMARK    1  A    between atoms: C_4  and  C_10
REMARK    2  A    between atoms: C_6  and  C_16
REMARK    3  A    between atoms: N_22  and  C_24
REMARK    4  A    between atoms: C_24  and  C_25
REMARK    5  A    between atoms: C_25  and  O_26
REMARK                            x       y       z     vdW  Elec       q    Type
REMARK                         _______ _______ _______ _____ _____    ______ ____
ROOT
ATOM      1  O   UNL     1      33.663 -24.892 -13.360  0.00  0.00    -0.440 OA
ATOM      2  N   UNL     1      31.341 -24.889 -12.806  0.00  0.00    -0.214 NA
ATOM      3  N   UNL     1      29.935 -23.806 -14.475  0.00  0.00    -0.233 NA
ATOM      4  C   UNL     1      33.598 -23.817 -15.338  0.00  0.00    +0.028 C 
ATOM      5  C   UNL     1      32.275 -23.913 -14.842  0.00  0.00    +0.155 C 
ATOM      6  C   UNL     1      34.402 -24.426 -14.401  0.00  0.00    +0.144 C 
ATOM      7  C   UNL     1      32.362 -24.580 -13.625  0.00  0.00    +0.214 C 
ATOM      8  C   UNL     1      31.003 -23.524 -15.256  0.00  0.00    +0.115 C 
ATOM      9  C   UNL     1      30.168 -24.462 -13.315  0.00  0.00    +0.254 C 
ATOM     10  N   UNL     1      30.811 -22.844 -16.471  0.00  0.00    -0.319 N 
ATOM     11  H   UNL     1      31.597 -22.645 -17.029  0.00  0.00    +0.148 HD
ENDROOT
BRANCH   4  12
ATOM     12  C   UNL     1      34.101 -23.231 -16.547  0.00  0.00    -0.000 C 
ATOM     13  C   UNL     1      33.370 -23.338 -17.731  0.00  0.00    -0.000 C 
ATOM     14  C   UNL     1      35.321 -22.555 -16.541  0.00  0.00    -0.000 C 
ATOM     15  C   UNL     1      33.858 -22.769 -18.907  0.00  0.00    -0.000 C 
ATOM     16  C   UNL     1      35.810 -21.986 -17.717  0.00  0.00    -0.000 C 
ATOM     17  C   UNL     1      35.078 -22.094 -18.900  0.00  0.00    -0.000 C 
ENDBRANCH   4  12
BRANCH   6  18
ATOM     18  C   UNL     1      35.815 -24.671 -14.290  0.00  0.00    +0.034 C 
ATOM     19  C   UNL     1      36.408 -25.700 -15.024  0.00  0.00    +0.003 C 
ATOM     20  C   UNL     1      36.600 -23.882 -13.445  0.00  0.00    +0.003 C 
ATOM     21  C   UNL     1      37.778 -25.939 -14.915  0.00  0.00    +0.000 C 
ATOM     22  C   UNL     1      37.971 -24.121 -13.336  0.00  0.00    +0.000 C 
ATOM     23  C   UNL     1      38.559 -25.150 -14.071  0.00  0.00    +0.000 C 
ENDBRANCH   6  18
BRANCH  10  24
ATOM     24  C   UNL     1      29.522 -22.425 -16.936  0.00  0.00    +0.120 C 
BRANCH  24  25
ATOM     25  C   UNL     1      28.602 -23.628 -17.043  0.00  0.00    +0.158 C 
BRANCH  25  26
ATOM     26  O   UNL     1      27.487 -23.297 -17.859  0.00  0.00    -0.380 OA
ATOM     27  H   UNL     1      26.883 -22.721 -17.365  0.00  0.00    +0.211 HD
ENDBRANCH  25  26
ENDBRANCH  24  25
ENDBRANCH  10  24
TORSDOF 5
ENDMDL
MODEL 5
REMARK VINA RESULT:      -8.2      2.520      4.560
REMARK  Name = 1587957
REMARK  5 active torsions:
REMARK  status: ('A' for Active; 'I' for Inactive)
REMARK    1  A    between atoms: C_4  and  C_10
REMARK    2  A    between atoms: C_6  and  C_16
REMARK    3  A    between atoms: N_22  and  C_24
REMARK    4  A    between atoms: C_24  and  C_25
REMARK    5  A    between atoms: C_25  and  O_26
REMARK                            x       y       z     vdW  Elec       q    Type
REMARK                         _______ _______ _______ _____ _____    ______ ____
ROOT
ATOM      1  O   UNL     1      32.789 -11.706 -24.777  0.00  0.00    -0.440 OA
ATOM      2  N   UNL     1      33.175 -12.685 -26.920  0.00  0.00    -0.214 NA
ATOM      3  N   UNL     1      33.797 -15.039 -26.826  0.00  0.00    -0.233 NA
ATOM      4  C   UNL     1      33.185 -13.484 -23.454  0.00  0.00    +0.028 C 
ATOM      5  C   UNL     1      33.370 -13.884 -24.800  0.00  0.00    +0.155 C 
ATOM      6  C   UNL     1      32.833 -12.155 -23.495  0.00  0.00    +0.144 C 
ATOM      7  C   UNL     1      33.117 -12.760 -25.578  0.00  0.00    +0.214 C 
ATOM      8  C   UNL     1      33.721 -15.050 -25.476  0.00  0.00    +0.115 C 
ATOM      9  C   UNL     1      33.524 -13.872 -27.455  0.00  0.00    +0.254 C 
ATOM     10  N   UNL     1      33.996 -16.240 -24.778  0.00  0.00    -0.319 N 
ATOM     11  H   UNL     1      33.938 -16.233 -23.795  0.00  0.00    +0.148 HD
ENDROOT
BRANCH   4  12
ATOM     12  C   UNL     1      33.311 -14.230 -22.234  0.00  0.00    -0.000 C 
ATOM     13  C   UNL     1      34.563 -14.382 -21.636  0.00  0.00    -0.000 C 
ATOM     14  C   UNL     1      32.184 -14.804 -21.646  0.00  0.00    -0.000 C 
ATOM     15  C   UNL     1      34.686 -15.107 -20.450  0.00  0.00    -0.000 C 
ATOM     16  C   UNL     1      32.307 -15.529 -20.462  0.00  0.00    -0.000 C 
ATOM     17  C   UNL     1      33.558 -15.681 -19.864  0.00  0.00    -0.000 C 
ENDBRANCH   4  12
BRANCH   6  18
ATOM     18  C   UNL     1      32.510 -11.164 -22.502  0.00  0.00    +0.034 C 
ATOM     19  C   UNL     1      31.838 -11.535 -21.336  0.00  0.00    +0.003 C 
ATOM     20  C   UNL     1      32.865  -9.828 -22.702  0.00  0.00    +0.003 C 
ATOM     21  C   UNL     1      31.524 -10.575 -20.374  0.00  0.00    +0.000 C 
ATOM     22  C   UNL     1      32.551  -8.868 -21.739  0.00  0.00    +0.000 C 
ATOM     23  C   UNL     1      31.879  -9.242 -20.576  0.00  0.00    +0.000 C 
ENDBRANCH   6  18
BRANCH  10  24
ATOM     24  C   UNL     1      34.361 -17.461 -25.431  0.00  0.00    +0.120 C 
BRANCH  24  25
ATOM     25  C   UNL     1      34.666 -18.524 -24.391  0.00  0.00    +0.158 C 
BRANCH  25  26
ATOM     26  O   UNL     1      35.834 -18.155 -23.668  0.00  0.00    -0.380 OA
ATOM     27  H   UNL     1      36.262 -18.952 -23.316  0.00  0.00    +0.211 HD
ENDBRANCH  25  26
ENDBRANCH  24  25
ENDBRANCH  10  24
TORSDOF 5
ENDMDL
MODEL 6
REMARK VINA RESULT:      -8.0      2.110      4.207
REMARK  Name = 1587957
REMARK  5 active torsions:
REMARK  status: ('A' for Active; 'I' for Inactive)
REMARK    1  A    between atoms: C_4  and  C_10
REMARK    2  A    between atoms: C_6  and  C_16
REMARK    3  A    between atoms: N_22  and  C_24
REMARK    4  A    between atoms: C_24  and  C_25
REMARK    5  A    between atoms: C_25  and  O_26
REMARK                            x       y       z     vdW  Elec       q    Type
REMARK                         _______ _______ _______ _____ _____    ______ ____
ROOT
ATOM      1  O   UNL     1      33.206 -10.658 -24.876  0.00  0.00    -0.440 OA
ATOM      2  N   UNL     1      33.728 -12.922 -25.426  0.00  0.00    -0.214 NA
ATOM      3  N   UNL     1      33.371 -14.485 -23.592  0.00  0.00    -0.233 NA
ATOM      4  C   UNL     1      32.550 -10.913 -22.737  0.00  0.00    +0.028 C 
ATOM      5  C   UNL     1      32.909 -12.185 -23.245  0.00  0.00    +0.155 C 
ATOM      6  C   UNL     1      32.749 -10.021 -23.766  0.00  0.00    +0.144 C 
ATOM      7  C   UNL     1      33.305 -11.981 -24.562  0.00  0.00    +0.214 C 
ATOM      8  C   UNL     1      32.954 -13.494 -22.771  0.00  0.00    +0.115 C 
ATOM      9  C   UNL     1      33.728 -14.141 -24.851  0.00  0.00    +0.254 C 
ATOM     10  N   UNL     1      32.573 -13.803 -21.453  0.00  0.00    -0.319 N 
ATOM     11  H   UNL     1      32.272 -13.072 -20.867  0.00  0.00    +0.148 HD
ENDROOT
BRANCH   4  12
ATOM     12  C   UNL     1      32.071 -10.528 -21.440  0.00  0.00    -0.000 C 
ATOM     13  C   UNL     1      32.565  -9.376 -20.827  0.00  0.00    -0.000 C 
ATOM     14  C   UNL     1      31.111 -11.305 -20.791  0.00  0.00    -0.000 C 
ATOM     15  C   UNL     1      32.100  -9.002 -19.566  0.00  0.00    -0.000 C 
ATOM     16  C   UNL     1      30.646 -10.931 -19.532  0.00  0.00    -0.000 C 
ATOM     17  C   UNL     1      31.140  -9.780 -18.918  0.00  0.00    -0.000 C 
ENDBRANCH   4  12
BRANCH   6  18
ATOM     18  C   UNL     1      32.581  -8.600 -23.917  0.00  0.00    +0.034 C 
ATOM     19  C   UNL     1      31.300  -8.045 -23.947  0.00  0.00    +0.003 C 
ATOM     20  C   UNL     1      33.698  -7.770 -24.036  0.00  0.00    +0.003 C 
ATOM     21  C   UNL     1      31.136  -6.668 -24.094  0.00  0.00    +0.000 C 
ATOM     22  C   UNL     1      33.535  -6.392 -24.184  0.00  0.00    +0.000 C 
ATOM     23  C   UNL     1      32.253  -5.842 -24.214  0.00  0.00    +0.000 C 
ENDBRANCH   6  18
BRANCH  10  24
ATOM     24  C   UNL     1      32.604 -15.134 -20.923  0.00  0.00    +0.120 C 
BRANCH  24  25
ATOM     25  C   UNL     1      33.991 -15.437 -20.386  0.00  0.00    +0.158 C 
BRANCH  25  26
ATOM     26  O   UNL     1      34.718 -16.183 -21.353  0.00  0.00    -0.380 OA
ATOM     27  H   UNL     1      34.518 -17.127 -21.252  0.00  0.00    +0.211 HD
ENDBRANCH  25  26
ENDBRANCH  24  25
ENDBRANCH  10  24
TORSDOF 5
ENDMDL
MODEL 7
REMARK VINA RESULT:      -8.0     11.255     14.933
REMARK  Name = 1587957
REMARK  5 active torsions:
REMARK  status: ('A' for Active; 'I' for Inactive)
REMARK    1  A    between atoms: C_4  and  C_10
REMARK    2  A    between atoms: C_6  and  C_16
REMARK    3  A    between atoms: N_22  and  C_24
REMARK    4  A    between atoms: C_24  and  C_25
REMARK    5  A    between atoms: C_25  and  O_26
REMARK                            x       y       z     vdW  Elec       q    Type
REMARK                         _______ _______ _______ _____ _____    ______ ____
ROOT
ATOM      1  O   UNL     1      37.080 -22.648 -17.059  0.00  0.00    -0.440 OA
ATOM      2  N   UNL     1      38.656 -23.536 -15.501  0.00  0.00    -0.214 NA
ATOM      3  N   UNL     1      37.635 -24.481 -13.501  0.00  0.00    -0.233 NA
ATOM      4  C   UNL     1      35.159 -23.078 -15.964  0.00  0.00    +0.028 C 
ATOM      5  C   UNL     1      36.235 -23.548 -15.171  0.00  0.00    +0.155 C 
ATOM      6  C   UNL     1      35.725 -22.542 -17.097  0.00  0.00    +0.144 C 
ATOM      7  C   UNL     1      37.396 -23.262 -15.882  0.00  0.00    +0.214 C 
ATOM      8  C   UNL     1      36.392 -24.179 -13.940  0.00  0.00    +0.115 C 
ATOM      9  C   UNL     1      38.675 -24.144 -14.298  0.00  0.00    +0.254 C 
ATOM     10  N   UNL     1      35.279 -24.510 -13.146  0.00  0.00    -0.319 N 
ATOM     11  H   UNL     1      34.380 -24.284 -13.478  0.00  0.00    +0.148 HD
ENDROOT
BRANCH   4  12
ATOM     12  C   UNL     1      33.744 -23.108 -15.727  0.00  0.00    -0.000 C 
ATOM     13  C   UNL     1      33.222 -22.571 -14.550  0.00  0.00    -0.000 C 
ATOM     14  C   UNL     1      32.889 -23.676 -16.672  0.00  0.00    -0.000 C 
ATOM     15  C   UNL     1      31.847 -22.600 -14.318  0.00  0.00    -0.000 C 
ATOM     16  C   UNL     1      31.515 -23.706 -16.441  0.00  0.00    -0.000 C 
ATOM     17  C   UNL     1      30.993 -23.169 -15.264  0.00  0.00    -0.000 C 
ENDBRANCH   4  12
BRANCH   6  18
ATOM     18  C   UNL     1      35.208 -21.911 -18.283  0.00  0.00    +0.034 C 
ATOM     19  C   UNL     1      36.069 -21.231 -19.147  0.00  0.00    +0.003 C 
ATOM     20  C   UNL     1      33.843 -21.974 -18.573  0.00  0.00    +0.003 C 
ATOM     21  C   UNL     1      35.568 -20.619 -20.296  0.00  0.00    +0.000 C 
ATOM     22  C   UNL     1      33.342 -21.362 -19.723  0.00  0.00    +0.000 C 
ATOM     23  C   UNL     1      34.205 -20.683 -20.583  0.00  0.00    +0.000 C 
ENDBRANCH   6  18
BRANCH  10  24
ATOM     24  C   UNL     1      35.392 -25.158 -11.874  0.00  0.00    +0.120 C 
BRANCH  24  25
ATOM     25  C   UNL     1      35.728 -24.133 -10.807  0.00  0.00    +0.158 C 
BRANCH  25  26
ATOM     26  O   UNL     1      35.302 -24.615  -9.539  0.00  0.00    -0.380 OA
ATOM     27  H   UNL     1      34.611 -24.032  -9.186  0.00  0.00    +0.211 HD
ENDBRANCH  25  26
ENDBRANCH  24  25
ENDBRANCH  10  24
TORSDOF 5
ENDMDL
MODEL 8
REMARK VINA RESULT:      -7.7      2.269      7.636
REMARK  Name = 1587957
REMARK  5 active torsions:
REMARK  status: ('A' for Active; 'I' for Inactive)
REMARK    1  A    between atoms: C_4  and  C_10
REMARK    2  A    between atoms: C_6  and  C_16
REMARK    3  A    between atoms: N_22  and  C_24
REMARK    4  A    between atoms: C_24  and  C_25
REMARK    5  A    between atoms: C_25  and  O_26
REMARK                            x       y       z     vdW  Elec       q    Type
REMARK                         _______ _______ _______ _____ _____    ______ ____
ROOT
ATOM      1  O   UNL     1      34.155 -15.712 -26.059  0.00  0.00    -0.440 OA
ATOM      2  N   UNL     1      33.800 -13.725 -27.334  0.00  0.00    -0.214 NA
ATOM      3  N   UNL     1      33.246 -11.776 -25.982  0.00  0.00    -0.233 NA
ATOM      4  C   UNL     1      33.808 -14.914 -23.981  0.00  0.00    +0.028 C 
ATOM      5  C   UNL     1      33.637 -13.849 -24.899  0.00  0.00    +0.155 C 
ATOM      6  C   UNL     1      34.121 -16.021 -24.736  0.00  0.00    +0.144 C 
ATOM      7  C   UNL     1      33.859 -14.385 -26.164  0.00  0.00    +0.214 C 
ATOM      8  C   UNL     1      33.321 -12.494 -24.838  0.00  0.00    +0.115 C 
ATOM      9  C   UNL     1      33.487 -12.428 -27.143  0.00  0.00    +0.254 C 
ATOM     10  N   UNL     1      33.079 -11.859 -23.607  0.00  0.00    -0.319 N 
ATOM     11  H   UNL     1      33.136 -12.394 -22.782  0.00  0.00    +0.148 HD
ENDROOT
BRANCH   4  12
ATOM     12  C   UNL     1      33.702 -14.938 -22.550  0.00  0.00    -0.000 C 
ATOM     13  C   UNL     1      32.445 -14.981 -21.945  0.00  0.00    -0.000 C 
ATOM     14  C   UNL     1      34.853 -14.916 -21.764  0.00  0.00    -0.000 C 
ATOM     15  C   UNL     1      32.341 -15.003 -20.554  0.00  0.00    -0.000 C 
ATOM     16  C   UNL     1      34.750 -14.938 -20.374  0.00  0.00    -0.000 C 
ATOM     17  C   UNL     1      33.493 -14.981 -19.768  0.00  0.00    -0.000 C 
ENDBRANCH   4  12
BRANCH   6  18
ATOM     18  C   UNL     1      34.414 -17.398 -24.435  0.00  0.00    +0.034 C 
ATOM     19  C   UNL     1      34.964 -17.743 -23.199  0.00  0.00    +0.003 C 
ATOM     20  C   UNL     1      34.151 -18.394 -25.379  0.00  0.00    +0.003 C 
ATOM     21  C   UNL     1      35.249 -19.077 -22.907  0.00  0.00    +0.000 C 
ATOM     22  C   UNL     1      34.436 -19.728 -25.087  0.00  0.00    +0.000 C 
ATOM     23  C   UNL     1      34.986 -20.069 -23.851  0.00  0.00    +0.000 C 
ENDBRANCH   6  18
BRANCH  10  24
ATOM     24  C   UNL     1      32.751 -10.469 -23.496  0.00  0.00    +0.120 C 
BRANCH  24  25
ATOM     25  C   UNL     1      31.644 -10.286 -22.474  0.00  0.00    +0.158 C 
BRANCH  25  26
ATOM     26  O   UNL     1      31.068 -11.550 -22.171  0.00  0.00    -0.380 OA
ATOM     27  H   UNL     1      31.772 -12.211 -22.070  0.00  0.00    +0.211 HD
ENDBRANCH  25  26
ENDBRANCH  24  25
ENDBRANCH  10  24
TORSDOF 5
ENDMDL
MODEL 9
REMARK VINA RESULT:      -7.5     10.755     14.226
REMARK  Name = 1587957
REMARK  5 active torsions:
REMARK  status: ('A' for Active; 'I' for Inactive)
REMARK    1  A    between atoms: C_4  and  C_10
REMARK    2  A    between atoms: C_6  and  C_16
REMARK    3  A    between atoms: N_22  and  C_24
REMARK    4  A    between atoms: C_24  and  C_25
REMARK    5  A    between atoms: C_25  and  O_26
REMARK                            x       y       z     vdW  Elec       q    Type
REMARK                         _______ _______ _______ _____ _____    ______ ____
ROOT
ATOM      1  O   UNL     1      32.112 -22.751 -17.635  0.00  0.00    -0.440 OA
ATOM      2  N   UNL     1      30.665 -23.773 -16.034  0.00  0.00    -0.214 NA
ATOM      3  N   UNL     1      31.810 -24.552 -14.031  0.00  0.00    -0.233 NA
ATOM      4  C   UNL     1      34.082 -22.939 -16.561  0.00  0.00    +0.028 C 
ATOM      5  C   UNL     1      33.076 -23.507 -15.742  0.00  0.00    +0.155 C 
ATOM      6  C   UNL     1      33.445 -22.495 -17.697  0.00  0.00    +0.144 C 
ATOM      7  C   UNL     1      31.881 -23.370 -16.441  0.00  0.00    +0.214 C 
ATOM      8  C   UNL     1      33.007 -24.124 -14.495  0.00  0.00    +0.115 C 
ATOM      9  C   UNL     1      30.729 -24.353 -14.819  0.00  0.00    +0.254 C 
ATOM     10  N   UNL     1      34.159 -24.309 -13.711  0.00  0.00    -0.319 N 
ATOM     11  H   UNL     1      35.023 -23.993 -14.062  0.00  0.00    +0.148 HD
ENDROOT
BRANCH   4  12
ATOM     12  C   UNL     1      35.495 -22.804 -16.344  0.00  0.00    -0.000 C 
ATOM     13  C   UNL     1      36.215 -23.851 -15.768  0.00  0.00    -0.000 C 
ATOM     14  C   UNL     1      36.148 -21.627 -16.707  0.00  0.00    -0.000 C 
ATOM     15  C   UNL     1      37.588 -23.721 -15.557  0.00  0.00    -0.000 C 
ATOM     16  C   UNL     1      37.520 -21.495 -16.496  0.00  0.00    -0.000 C 
ATOM     17  C   UNL     1      38.240 -22.542 -15.920  0.00  0.00    -0.000 C 
ENDBRANCH   4  12
BRANCH   6  18
ATOM     18  C   UNL     1      33.873 -21.837 -18.902  0.00  0.00    +0.034 C 
ATOM     19  C   UNL     1      35.143 -22.087 -19.425  0.00  0.00    +0.003 C 
ATOM     20  C   UNL     1      33.021 -20.942 -19.554  0.00  0.00    +0.003 C 
ATOM     21  C   UNL     1      35.559 -21.448 -20.593  0.00  0.00    +0.000 C 
ATOM     22  C   UNL     1      33.437 -20.302 -20.723  0.00  0.00    +0.000 C 
ATOM     23  C   UNL     1      34.706 -20.556 -21.241  0.00  0.00    +0.000 C 
ENDBRANCH   6  18
BRANCH  10  24
ATOM     24  C   UNL     1      34.136 -24.939 -12.425  0.00  0.00    +0.120 C 
BRANCH  24  25
ATOM     25  C   UNL     1      35.433 -24.650 -11.691  0.00  0.00    +0.158 C 
BRANCH  25  26
ATOM     26  O   UNL     1      35.310 -25.061 -10.336  0.00  0.00    -0.380 OA
ATOM     27  H   UNL     1      34.379 -25.018 -10.067  0.00  0.00    +0.211 HD
ENDBRANCH  25  26
ENDBRANCH  24  25
ENDBRANCH  10  24
TORSDOF 5
ENDMDL
