MODEL 1
REMARK VINA RESULT:      -9.4      0.000      0.000
REMARK  Name = 6476
REMARK  1 active torsions:
REMARK  status: ('A' for Active; 'I' for Inactive)
REMARK    1  A    between atoms: C_4  and  C_10
REMARK                            x       y       z     vdW  Elec       q    Type
REMARK                         _______ _______ _______ _____ _____    ______ ____
ROOT
ATOM      1  O   UNL     1      35.283 -16.773 -20.459  0.00  0.00    -0.274 OA
ATOM      2  O   UNL     1      34.586 -17.143 -25.012  0.00  0.00    -0.274 OA
ATOM      3  N   UNL     1      34.861 -16.621 -22.751  0.00  0.00    -0.228 N 
ATOM      4  C   UNL     1      35.615 -18.691 -21.926  0.00  0.00    +0.097 C 
ATOM      5  C   UNL     1      35.193 -18.835 -23.405  0.00  0.00    +0.098 C 
ATOM      6  C   UNL     1      35.232 -17.255 -21.584  0.00  0.00    +0.235 C 
ATOM      7  C   UNL     1      37.153 -18.750 -21.826  0.00  0.00    +0.014 C 
ATOM      8  C   UNL     1      34.850 -17.443 -23.855  0.00  0.00    +0.232 C 
ATOM      9  C   UNL     1      34.500 -15.218 -22.825  0.00  0.00    +0.123 C 
ENDROOT
BRANCH   4  10
ATOM     10  C   UNL     1      34.873 -19.691 -21.040  0.00  0.00    -0.014 C 
ATOM     11  C   UNL     1      33.481 -19.656 -20.972  0.00  0.00    -0.004 C 
ATOM     12  C   UNL     1      35.588 -20.632 -20.305  0.00  0.00    -0.004 C 
ATOM     13  C   UNL     1      32.802 -20.569 -20.163  0.00  0.00    -0.000 C 
ATOM     14  C   UNL     1      34.911 -21.545 -19.496  0.00  0.00    -0.000 C 
ATOM     15  C   UNL     1      33.517 -21.513 -19.426  0.00  0.00    -0.000 C 
ENDBRANCH   4  10
TORSDOF 1
ENDMDL
MODEL 2
REMARK VINA RESULT:      -8.1      2.114      4.819
REMARK  Name = 6476
REMARK  1 active torsions:
REMARK  status: ('A' for Active; 'I' for Inactive)
REMARK    1  A    between atoms: C_4  and  C_10
REMARK                            x       y       z     vdW  Elec       q    Type
REMARK                         _______ _______ _______ _____ _____    ______ ____
ROOT
ATOM      1  O   UNL     1      32.728 -19.403 -21.375  0.00  0.00    -0.274 OA
ATOM      2  O   UNL     1      36.759 -20.938 -19.719  0.00  0.00    -0.274 OA
ATOM      3  N   UNL     1      34.576 -20.404 -20.355  0.00  0.00    -0.228 N 
ATOM      4  C   UNL     1      34.999 -18.765 -21.989  0.00  0.00    +0.097 C 
ATOM      5  C   UNL     1      36.317 -19.159 -21.285  0.00  0.00    +0.098 C 
ATOM      6  C   UNL     1      33.935 -19.537 -21.216  0.00  0.00    +0.235 C 
ATOM      7  C   UNL     1      34.988 -19.351 -23.416  0.00  0.00    +0.014 C 
ATOM      8  C   UNL     1      35.947 -20.285 -20.360  0.00  0.00    +0.232 C 
ATOM      9  C   UNL     1      33.882 -21.354 -19.507  0.00  0.00    +0.123 C 
ENDROOT
BRANCH   4  10
ATOM     10  C   UNL     1      34.761 -17.257 -21.910  0.00  0.00    -0.014 C 
ATOM     11  C   UNL     1      34.586 -16.521 -23.081  0.00  0.00    -0.004 C 
ATOM     12  C   UNL     1      34.719 -16.625 -20.671  0.00  0.00    -0.004 C 
ATOM     13  C   UNL     1      34.368 -15.144 -23.009  0.00  0.00    -0.000 C 
ATOM     14  C   UNL     1      34.501 -15.249 -20.598  0.00  0.00    -0.000 C 
ATOM     15  C   UNL     1      34.326 -14.509 -21.768  0.00  0.00    -0.000 C 
ENDBRANCH   4  10
TORSDOF 1
ENDMDL
MODEL 3
REMARK VINA RESULT:      -7.6      9.281     12.737
REMARK  Name = 6476
REMARK  1 active torsions:
REMARK  status: ('A' for Active; 'I' for Inactive)
REMARK    1  A    between atoms: C_4  and  C_10
REMARK                            x       y       z     vdW  Elec       q    Type
REMARK                         _______ _______ _______ _____ _____    ______ ____
ROOT
ATOM      1  O   UNL     1      31.972  -9.151 -23.974  0.00  0.00    -0.274 OA
ATOM      2  O   UNL     1      32.350  -8.975 -19.372  0.00  0.00    -0.274 OA
ATOM      3  N   UNL     1      32.011  -9.373 -21.649  0.00  0.00    -0.228 N 
ATOM      4  C   UNL     1      33.067  -7.484 -22.572  0.00  0.00    +0.097 C 
ATOM      5  C   UNL     1      33.011  -7.357 -21.033  0.00  0.00    +0.098 C 
ATOM      6  C   UNL     1      32.278  -8.758 -22.854  0.00  0.00    +0.235 C 
ATOM      7  C   UNL     1      34.516  -7.784 -23.007  0.00  0.00    +0.014 C 
ATOM      8  C   UNL     1      32.434  -8.659 -20.551  0.00  0.00    +0.232 C 
ATOM      9  C   UNL     1      31.337 -10.652 -21.531  0.00  0.00    +0.123 C 
ENDROOT
BRANCH   4  10
ATOM     10  C   UNL     1      32.429  -6.272 -23.250  0.00  0.00    -0.014 C 
ATOM     11  C   UNL     1      32.693  -6.009 -24.593  0.00  0.00    -0.004 C 
ATOM     12  C   UNL     1      31.585  -5.435 -22.524  0.00  0.00    -0.004 C 
ATOM     13  C   UNL     1      32.111  -4.903 -25.212  0.00  0.00    -0.000 C 
ATOM     14  C   UNL     1      31.002  -4.329 -23.142  0.00  0.00    -0.000 C 
ATOM     15  C   UNL     1      31.266  -4.063 -24.487  0.00  0.00    -0.000 C 
ENDBRANCH   4  10
TORSDOF 1
ENDMDL
MODEL 4
REMARK VINA RESULT:      -7.4      7.896      9.776
REMARK  Name = 6476
REMARK  1 active torsions:
REMARK  status: ('A' for Active; 'I' for Inactive)
REMARK    1  A    between atoms: C_4  and  C_10
REMARK                            x       y       z     vdW  Elec       q    Type
REMARK                         _______ _______ _______ _____ _____    ______ ____
ROOT
ATOM      1  O   UNL     1      36.068 -25.943 -15.809  0.00  0.00    -0.274 OA
ATOM      2  O   UNL     1      37.066 -24.123 -11.680  0.00  0.00    -0.274 OA
ATOM      3  N   UNL     1      36.705 -25.333 -13.646  0.00  0.00    -0.228 N 
ATOM      4  C   UNL     1      35.803 -23.651 -15.021  0.00  0.00    +0.097 C 
ATOM      5  C   UNL     1      35.969 -23.121 -13.579  0.00  0.00    +0.098 C 
ATOM      6  C   UNL     1      36.188 -25.122 -14.907  0.00  0.00    +0.235 C 
ATOM      7  C   UNL     1      36.873 -23.008 -15.928  0.00  0.00    +0.014 C 
ATOM      8  C   UNL     1      36.658 -24.227 -12.830  0.00  0.00    +0.232 C 
ATOM      9  C   UNL     1      37.245 -26.604 -13.201  0.00  0.00    +0.123 C 
ENDROOT
BRANCH   4  10
ATOM     10  C   UNL     1      34.363 -23.488 -15.507  0.00  0.00    -0.014 C 
ATOM     11  C   UNL     1      34.112 -23.205 -16.848  0.00  0.00    -0.004 C 
ATOM     12  C   UNL     1      33.308 -23.622 -14.609  0.00  0.00    -0.004 C 
ATOM     13  C   UNL     1      32.798 -23.056 -17.292  0.00  0.00    -0.000 C 
ATOM     14  C   UNL     1      31.994 -23.473 -15.051  0.00  0.00    -0.000 C 
ATOM     15  C   UNL     1      31.739 -23.190 -16.394  0.00  0.00    -0.000 C 
ENDBRANCH   4  10
TORSDOF 1
ENDMDL
MODEL 5
REMARK VINA RESULT:      -7.3      1.473      2.664
REMARK  Name = 6476
REMARK  1 active torsions:
REMARK  status: ('A' for Active; 'I' for Inactive)
REMARK    1  A    between atoms: C_4  and  C_10
REMARK                            x       y       z     vdW  Elec       q    Type
REMARK                         _______ _______ _______ _____ _____    ______ ____
ROOT
ATOM      1  O   UNL     1      34.383 -19.601 -23.642  0.00  0.00    -0.274 OA
ATOM      2  O   UNL     1      35.041 -15.177 -22.485  0.00  0.00    -0.274 OA
ATOM      3  N   UNL     1      34.746 -17.307 -23.397  0.00  0.00    -0.228 N 
ATOM      4  C   UNL     1      34.246 -18.536 -21.454  0.00  0.00    +0.097 C 
ATOM      5  C   UNL     1      34.656 -17.095 -21.075  0.00  0.00    +0.098 C 
ATOM      6  C   UNL     1      34.469 -18.586 -22.962  0.00  0.00    +0.235 C 
ATOM      7  C   UNL     1      32.726 -18.704 -21.250  0.00  0.00    +0.014 C 
ATOM      8  C   UNL     1      34.831 -16.378 -22.385  0.00  0.00    +0.232 C 
ATOM      9  C   UNL     1      34.944 -16.957 -24.791  0.00  0.00    +0.123 C 
ENDROOT
BRANCH   4  10
ATOM     10  C   UNL     1      35.112 -19.565 -20.728  0.00  0.00    -0.014 C 
ATOM     11  C   UNL     1      34.514 -20.668 -20.121  0.00  0.00    -0.004 C 
ATOM     12  C   UNL     1      36.493 -19.397 -20.676  0.00  0.00    -0.004 C 
ATOM     13  C   UNL     1      35.305 -21.608 -19.458  0.00  0.00    -0.000 C 
ATOM     14  C   UNL     1      37.283 -20.336 -20.013  0.00  0.00    -0.000 C 
ATOM     15  C   UNL     1      36.688 -21.442 -19.404  0.00  0.00    -0.000 C 
ENDBRANCH   4  10
TORSDOF 1
ENDMDL
MODEL 6
REMARK VINA RESULT:      -7.2      9.351     11.017
REMARK  Name = 6476
REMARK  1 active torsions:
REMARK  status: ('A' for Active; 'I' for Inactive)
REMARK    1  A    between atoms: C_4  and  C_10
REMARK                            x       y       z     vdW  Elec       q    Type
REMARK                         _______ _______ _______ _____ _____    ______ ____
ROOT
ATOM      1  O   UNL     1      30.546  -6.627 -22.548  0.00  0.00    -0.274 OA
ATOM      2  O   UNL     1      34.713  -6.736 -24.540  0.00  0.00    -0.274 OA
ATOM      3  N   UNL     1      32.512  -6.483 -23.800  0.00  0.00    -0.228 N 
ATOM      4  C   UNL     1      32.627  -7.604 -21.735  0.00  0.00    +0.097 C 
ATOM      5  C   UNL     1      33.952  -7.788 -22.508  0.00  0.00    +0.098 C 
ATOM      6  C   UNL     1      31.736  -6.858 -22.723  0.00  0.00    +0.235 C 
ATOM      7  C   UNL     1      32.853  -6.632 -20.559  0.00  0.00    +0.014 C 
ATOM      8  C   UNL     1      33.809  -6.938 -23.740  0.00  0.00    +0.232 C 
ATOM      9  C   UNL     1      32.018  -5.689 -24.909  0.00  0.00    +0.123 C 
ENDROOT
BRANCH   4  10
ATOM     10  C   UNL     1      32.021  -8.953 -21.349  0.00  0.00    -0.014 C 
ATOM     11  C   UNL     1      31.892  -9.295 -20.004  0.00  0.00    -0.004 C 
ATOM     12  C   UNL     1      31.602  -9.835 -22.340  0.00  0.00    -0.004 C 
ATOM     13  C   UNL     1      31.339 -10.527 -19.650  0.00  0.00    -0.000 C 
ATOM     14  C   UNL     1      31.050 -11.067 -21.988  0.00  0.00    -0.000 C 
ATOM     15  C   UNL     1      30.919 -11.412 -20.642  0.00  0.00    -0.000 C 
ENDBRANCH   4  10
TORSDOF 1
ENDMDL
MODEL 7
REMARK VINA RESULT:      -7.0      9.224     11.025
REMARK  Name = 6476
REMARK  1 active torsions:
REMARK  status: ('A' for Active; 'I' for Inactive)
REMARK    1  A    between atoms: C_4  and  C_10
REMARK                            x       y       z     vdW  Elec       q    Type
REMARK                         _______ _______ _______ _____ _____    ______ ____
ROOT
ATOM      1  O   UNL     1      30.824  -7.896 -24.130  0.00  0.00    -0.274 OA
ATOM      2  O   UNL     1      32.343  -6.527 -19.986  0.00  0.00    -0.274 OA
ATOM      3  N   UNL     1      31.409  -6.916 -22.092  0.00  0.00    -0.228 N 
ATOM      4  C   UNL     1      32.143  -9.117 -22.483  0.00  0.00    +0.097 C 
ATOM      5  C   UNL     1      32.792  -8.566 -21.193  0.00  0.00    +0.098 C 
ATOM      6  C   UNL     1      31.379  -7.919 -23.038  0.00  0.00    +0.235 C 
ATOM      7  C   UNL     1      31.070 -10.161 -22.109  0.00  0.00    +0.014 C 
ATOM      8  C   UNL     1      32.163  -7.217 -20.981  0.00  0.00    +0.232 C 
ATOM      9  C   UNL     1      30.723  -5.647 -22.244  0.00  0.00    +0.123 C 
ENDROOT
BRANCH   4  10
ATOM     10  C   UNL     1      33.203  -9.607 -23.468  0.00  0.00    -0.014 C 
ATOM     11  C   UNL     1      34.238  -8.756 -23.852  0.00  0.00    -0.004 C 
ATOM     12  C   UNL     1      33.132 -10.900 -23.979  0.00  0.00    -0.004 C 
ATOM     13  C   UNL     1      35.206  -9.202 -24.752  0.00  0.00    -0.000 C 
ATOM     14  C   UNL     1      34.100 -11.347 -24.879  0.00  0.00    -0.000 C 
ATOM     15  C   UNL     1      35.137 -10.497 -25.265  0.00  0.00    -0.000 C 
ENDBRANCH   4  10
TORSDOF 1
ENDMDL
MODEL 8
REMARK VINA RESULT:      -6.9      4.135      7.832
REMARK  Name = 6476
REMARK  1 active torsions:
REMARK  status: ('A' for Active; 'I' for Inactive)
REMARK    1  A    between atoms: C_4  and  C_10
REMARK                            x       y       z     vdW  Elec       q    Type
REMARK                         _______ _______ _______ _____ _____    ______ ____
ROOT
ATOM      1  O   UNL     1      34.805 -14.043 -22.553  0.00  0.00    -0.274 OA
ATOM      2  O   UNL     1      33.182 -16.200 -26.302  0.00  0.00    -0.274 OA
ATOM      3  N   UNL     1      34.170 -15.405 -24.340  0.00  0.00    -0.228 N 
ATOM      4  C   UNL     1      33.167 -13.282 -24.190  0.00  0.00    +0.097 C 
ATOM      5  C   UNL     1      32.790 -13.949 -25.532  0.00  0.00    +0.098 C 
ATOM      6  C   UNL     1      34.161 -14.260 -23.572  0.00  0.00    +0.235 C 
ATOM      7  C   UNL     1      31.940 -13.284 -23.255  0.00  0.00    +0.014 C 
ATOM      8  C   UNL     1      33.378 -15.331 -25.463  0.00  0.00    +0.232 C 
ATOM      9  C   UNL     1      34.946 -16.586 -24.014  0.00  0.00    +0.123 C 
ENDROOT
BRANCH   4  10
ATOM     10  C   UNL     1      33.803 -11.910 -24.415  0.00  0.00    -0.014 C 
ATOM     11  C   UNL     1      33.554 -10.875 -23.516  0.00  0.00    -0.004 C 
ATOM     12  C   UNL     1      34.627 -11.699 -25.517  0.00  0.00    -0.004 C 
ATOM     13  C   UNL     1      34.134  -9.622 -23.721  0.00  0.00    -0.000 C 
ATOM     14  C   UNL     1      35.208 -10.448 -25.723  0.00  0.00    -0.000 C 
ATOM     15  C   UNL     1      34.960  -9.409 -24.824  0.00  0.00    -0.000 C 
ENDBRANCH   4  10
TORSDOF 1
ENDMDL
MODEL 9
REMARK VINA RESULT:      -6.9      9.533     11.132
REMARK  Name = 6476
REMARK  1 active torsions:
REMARK  status: ('A' for Active; 'I' for Inactive)
REMARK    1  A    between atoms: C_4  and  C_10
REMARK                            x       y       z     vdW  Elec       q    Type
REMARK                         _______ _______ _______ _____ _____    ______ ____
ROOT
ATOM      1  O   UNL     1      32.286  -6.228 -20.558  0.00  0.00    -0.274 OA
ATOM      2  O   UNL     1      30.688  -6.138 -24.892  0.00  0.00    -0.274 OA
ATOM      3  N   UNL     1      31.379  -5.858 -22.678  0.00  0.00    -0.228 N 
ATOM      4  C   UNL     1      32.487  -7.903 -22.317  0.00  0.00    +0.097 C 
ATOM      5  C   UNL     1      31.780  -7.922 -23.691  0.00  0.00    +0.098 C 
ATOM      6  C   UNL     1      32.047  -6.575 -21.708  0.00  0.00    +0.235 C 
ATOM      7  C   UNL     1      34.010  -7.782 -22.529  0.00  0.00    +0.014 C 
ATOM      8  C   UNL     1      31.217  -6.538 -23.863  0.00  0.00    +0.232 C 
ATOM      9  C   UNL     1      30.878  -4.512 -22.480  0.00  0.00    +0.123 C 
ENDROOT
BRANCH   4  10
ATOM     10  C   UNL     1      32.047  -9.085 -21.454  0.00  0.00    -0.014 C 
ATOM     11  C   UNL     1      31.466 -10.201 -22.052  0.00  0.00    -0.004 C 
ATOM     12  C   UNL     1      32.229  -9.042 -20.074  0.00  0.00    -0.004 C 
ATOM     13  C   UNL     1      31.064 -11.281 -21.264  0.00  0.00    -0.000 C 
ATOM     14  C   UNL     1      31.827 -10.121 -19.285  0.00  0.00    -0.000 C 
ATOM     15  C   UNL     1      31.245 -11.240 -19.882  0.00  0.00    -0.000 C 
ENDBRANCH   4  10
TORSDOF 1
ENDMDL
