MODEL 1
REMARK VINA RESULT:      -6.9      0.000      0.000
REMARK  Name = 5288561
REMARK  7 active torsions:
REMARK  status: ('A' for Active; 'I' for Inactive)
REMARK    1  A    between atoms: C_1  and  C_4
REMARK    2  A    between atoms: C_1  and  O_8
REMARK    3  A    between atoms: C_1  and  C_10
REMARK    4  A    between atoms: N_3  and  O_6
REMARK    5  A    between atoms: C_10  and  C_12
REMARK    6  A    between atoms: C_10  and  C_13
REMARK    7  A    between atoms: C_13  and  C_14
REMARK                            x       y       z     vdW  Elec       q    Type
REMARK                         _______ _______ _______ _____ _____    ______ ____
ROOT
ATOM      1  C   UNL     1      36.854 -25.718 -13.401  0.00  0.00    +0.196 C 
ENDROOT
BRANCH   1   4
ATOM      2  O   UNL     1      38.409 -27.138 -14.590  0.00  0.00    -0.270 OA
ATOM      3  N   UNL     1      36.311 -26.800 -15.488  0.00  0.00    -0.195 N 
ATOM      4  C   UNL     1      37.289 -26.633 -14.540  0.00  0.00    +0.272 C 
ATOM      5  H   UNL     1      35.427 -26.374 -15.407  0.00  0.00    +0.182 HD
BRANCH   3   6
ATOM      6  O   UNL     1      36.647 -27.612 -16.580  0.00  0.00    -0.295 OA
ATOM      7  H   UNL     1      37.175 -28.365 -16.272  0.00  0.00    +0.241 HD
ENDBRANCH   3   6
ENDBRANCH   1   4
BRANCH   1   8
ATOM      8  O   UNL     1      37.121 -26.403 -12.180  0.00  0.00    -0.375 OA
ATOM      9  H   UNL     1      38.056 -26.659 -12.150  0.00  0.00    +0.211 HD
ENDBRANCH   1   8
BRANCH   1  10
ATOM     10  C   UNL     1      37.546 -24.339 -13.364  0.00  0.00    +0.101 C 
BRANCH  10  12
ATOM     11  O   UNL     1      38.499 -22.963 -11.620  0.00  0.00    -0.288 OA
ATOM     12  C   UNL     1      37.966 -24.021 -11.943  0.00  0.00    +0.210 C 
ENDBRANCH  10  12
BRANCH  10  13
ATOM     13  C   UNL     1      36.703 -23.195 -13.955  0.00  0.00    +0.011 C 
BRANCH  13  14
ATOM     14  C   UNL     1      36.562 -23.219 -15.494  0.00  0.00    +0.001 C 
ATOM     15  C   UNL     1      37.335 -22.088 -16.173  0.00  0.00    +0.000 C 
ATOM     16  C   UNL     1      35.082 -23.129 -15.875  0.00  0.00    +0.000 C 
ENDBRANCH  13  14
ENDBRANCH  10  13
ENDBRANCH   1  10
TORSDOF 7
ENDMDL
MODEL 2
REMARK VINA RESULT:      -6.7     10.414     12.074
REMARK  Name = 5288561
REMARK  7 active torsions:
REMARK  status: ('A' for Active; 'I' for Inactive)
REMARK    1  A    between atoms: C_1  and  C_4
REMARK    2  A    between atoms: C_1  and  O_8
REMARK    3  A    between atoms: C_1  and  C_10
REMARK    4  A    between atoms: N_3  and  O_6
REMARK    5  A    between atoms: C_10  and  C_12
REMARK    6  A    between atoms: C_10  and  C_13
REMARK    7  A    between atoms: C_13  and  C_14
REMARK                            x       y       z     vdW  Elec       q    Type
REMARK                         _______ _______ _______ _____ _____    ______ ____
ROOT
ATOM      1  C   UNL     1      35.245 -17.323 -23.608  0.00  0.00    +0.196 C 
ENDROOT
BRANCH   1   4
ATOM      2  O   UNL     1      34.084 -18.354 -25.461  0.00  0.00    -0.270 OA
ATOM      3  N   UNL     1      34.063 -16.054 -25.285  0.00  0.00    -0.195 N 
ATOM      4  C   UNL     1      34.399 -17.320 -24.876  0.00  0.00    +0.272 C 
ATOM      5  H   UNL     1      34.338 -15.253 -24.784  0.00  0.00    +0.182 HD
BRANCH   3   6
ATOM      6  O   UNL     1      33.303 -15.970 -26.460  0.00  0.00    -0.295 OA
ATOM      7  H   UNL     1      32.360 -15.963 -26.235  0.00  0.00    +0.241 HD
ENDBRANCH   3   6
ENDBRANCH   1   4
BRANCH   1   8
ATOM      8  O   UNL     1      35.749 -16.001 -23.430  0.00  0.00    -0.375 OA
ATOM      9  H   UNL     1      35.605 -15.488 -24.241  0.00  0.00    +0.211 HD
ENDBRANCH   1   8
BRANCH   1  10
ATOM     10  C   UNL     1      34.506 -17.753 -22.324  0.00  0.00    +0.101 C 
BRANCH  10  12
ATOM     11  O   UNL     1      34.920 -15.972 -20.744  0.00  0.00    -0.288 OA
ATOM     12  C   UNL     1      35.166 -17.115 -21.119  0.00  0.00    +0.210 C 
ENDBRANCH  10  12
BRANCH  10  13
ATOM     13  C   UNL     1      34.393 -19.277 -22.143  0.00  0.00    +0.011 C 
BRANCH  13  14
ATOM     14  C   UNL     1      34.326 -19.755 -20.674  0.00  0.00    +0.001 C 
ATOM     15  C   UNL     1      35.404 -20.786 -20.341  0.00  0.00    +0.000 C 
ATOM     16  C   UNL     1      32.944 -20.349 -20.390  0.00  0.00    +0.000 C 
ENDBRANCH  13  14
ENDBRANCH  10  13
ENDBRANCH   1  10
TORSDOF 7
ENDMDL
MODEL 3
REMARK VINA RESULT:      -6.7      1.341      1.590
REMARK  Name = 5288561
REMARK  7 active torsions:
REMARK  status: ('A' for Active; 'I' for Inactive)
REMARK    1  A    between atoms: C_1  and  C_4
REMARK    2  A    between atoms: C_1  and  O_8
REMARK    3  A    between atoms: C_1  and  C_10
REMARK    4  A    between atoms: N_3  and  O_6
REMARK    5  A    between atoms: C_10  and  C_12
REMARK    6  A    between atoms: C_10  and  C_13
REMARK    7  A    between atoms: C_13  and  C_14
REMARK                            x       y       z     vdW  Elec       q    Type
REMARK                         _______ _______ _______ _____ _____    ______ ____
ROOT
ATOM      1  C   UNL     1      37.477 -25.449 -13.520  0.00  0.00    +0.196 C 
ENDROOT
BRANCH   1   4
ATOM      2  O   UNL     1      38.487 -27.314 -14.682  0.00  0.00    -0.270 OA
ATOM      3  N   UNL     1      39.286 -25.189 -15.095  0.00  0.00    -0.195 N 
ATOM      4  C   UNL     1      38.455 -26.099 -14.492  0.00  0.00    +0.272 C 
ATOM      5  H   UNL     1      39.224 -24.224 -14.912  0.00  0.00    +0.182 HD
BRANCH   3   6
ATOM      6  O   UNL     1      40.230 -25.717 -15.987  0.00  0.00    -0.295 OA
ATOM      7  H   UNL     1      41.124 -25.511 -15.670  0.00  0.00    +0.241 HD
ENDBRANCH   3   6
ENDBRANCH   1   4
BRANCH   1   8
ATOM      8  O   UNL     1      37.810 -25.908 -12.212  0.00  0.00    -0.375 OA
ATOM      9  H   UNL     1      37.058 -25.765 -11.617  0.00  0.00    +0.211 HD
ENDBRANCH   1   8
BRANCH   1  10
ATOM     10  C   UNL     1      37.473 -23.907 -13.523  0.00  0.00    +0.101 C 
BRANCH  10  12
ATOM     11  O   UNL     1      38.774 -23.185 -11.618  0.00  0.00    -0.288 OA
ATOM     12  C   UNL     1      37.669 -23.395 -12.111  0.00  0.00    +0.210 C 
ENDBRANCH  10  12
BRANCH  10  13
ATOM     13  C   UNL     1      36.220 -23.281 -14.162  0.00  0.00    +0.011 C 
BRANCH  13  14
ATOM     14  C   UNL     1      36.212 -23.276 -15.708  0.00  0.00    +0.001 C 
ATOM     15  C   UNL     1      37.110 -22.188 -16.297  0.00  0.00    +0.000 C 
ATOM     16  C   UNL     1      34.779 -23.088 -16.214  0.00  0.00    +0.000 C 
ENDBRANCH  13  14
ENDBRANCH  10  13
ENDBRANCH   1  10
TORSDOF 7
ENDMDL
MODEL 4
REMARK VINA RESULT:      -6.5     10.445     12.145
REMARK  Name = 5288561
REMARK  7 active torsions:
REMARK  status: ('A' for Active; 'I' for Inactive)
REMARK    1  A    between atoms: C_1  and  C_4
REMARK    2  A    between atoms: C_1  and  O_8
REMARK    3  A    between atoms: C_1  and  C_10
REMARK    4  A    between atoms: N_3  and  O_6
REMARK    5  A    between atoms: C_10  and  C_12
REMARK    6  A    between atoms: C_10  and  C_13
REMARK    7  A    between atoms: C_13  and  C_14
REMARK                            x       y       z     vdW  Elec       q    Type
REMARK                         _______ _______ _______ _____ _____    ______ ____
ROOT
ATOM      1  C   UNL     1      35.239 -17.315 -23.574  0.00  0.00    +0.196 C 
ENDROOT
BRANCH   1   4
ATOM      2  O   UNL     1      33.996 -18.364 -25.364  0.00  0.00    -0.270 OA
ATOM      3  N   UNL     1      34.069 -16.060 -25.270  0.00  0.00    -0.195 N 
ATOM      4  C   UNL     1      34.365 -17.323 -24.823  0.00  0.00    +0.272 C 
ATOM      5  H   UNL     1      34.387 -15.253 -24.805  0.00  0.00    +0.182 HD
BRANCH   3   6
ATOM      6  O   UNL     1      33.287 -15.988 -26.431  0.00  0.00    -0.295 OA
ATOM      7  H   UNL     1      33.746 -15.453 -27.098  0.00  0.00    +0.241 HD
ENDBRANCH   3   6
ENDBRANCH   1   4
BRANCH   1   8
ATOM      8  O   UNL     1      35.819 -16.018 -23.470  0.00  0.00    -0.375 OA
ATOM      9  H   UNL     1      36.493 -16.019 -22.772  0.00  0.00    +0.211 HD
ENDBRANCH   1   8
BRANCH   1  10
ATOM     10  C   UNL     1      34.507 -17.644 -22.256  0.00  0.00    +0.101 C 
BRANCH  10  12
ATOM     11  O   UNL     1      34.953 -15.955 -20.585  0.00  0.00    -0.288 OA
ATOM     12  C   UNL     1      34.235 -16.363 -21.494  0.00  0.00    +0.210 C 
ENDBRANCH  10  12
BRANCH  10  13
ATOM     13  C   UNL     1      35.238 -18.665 -21.367  0.00  0.00    +0.011 C 
BRANCH  13  14
ATOM     14  C   UNL     1      34.476 -19.990 -21.136  0.00  0.00    +0.001 C 
ATOM     15  C   UNL     1      33.022 -19.766 -20.720  0.00  0.00    +0.000 C 
ATOM     16  C   UNL     1      35.194 -20.815 -20.065  0.00  0.00    +0.000 C 
ENDBRANCH  13  14
ENDBRANCH  10  13
ENDBRANCH   1  10
TORSDOF 7
ENDMDL
MODEL 5
REMARK VINA RESULT:      -6.5      6.055      7.864
REMARK  Name = 5288561
REMARK  7 active torsions:
REMARK  status: ('A' for Active; 'I' for Inactive)
REMARK    1  A    between atoms: C_1  and  C_4
REMARK    2  A    between atoms: C_1  and  O_8
REMARK    3  A    between atoms: C_1  and  C_10
REMARK    4  A    between atoms: N_3  and  O_6
REMARK    5  A    between atoms: C_10  and  C_12
REMARK    6  A    between atoms: C_10  and  C_13
REMARK    7  A    between atoms: C_13  and  C_14
REMARK                            x       y       z     vdW  Elec       q    Type
REMARK                         _______ _______ _______ _____ _____    ______ ____
ROOT
ATOM      1  C   UNL     1      35.376 -21.970 -19.471  0.00  0.00    +0.196 C 
ENDROOT
BRANCH   1   4
ATOM      2  O   UNL     1      35.560 -22.739 -17.186  0.00  0.00    -0.270 OA
ATOM      3  N   UNL     1      36.923 -21.013 -17.885  0.00  0.00    -0.195 N 
ATOM      4  C   UNL     1      35.954 -21.969 -18.060  0.00  0.00    +0.272 C 
ATOM      5  H   UNL     1      37.206 -20.417 -18.615  0.00  0.00    +0.182 HD
BRANCH   3   6
ATOM      6  O   UNL     1      37.484 -20.937 -16.603  0.00  0.00    -0.295 OA
ATOM      7  H   UNL     1      37.498 -21.821 -16.204  0.00  0.00    +0.241 HD
ENDBRANCH   3   6
ENDBRANCH   1   4
BRANCH   1   8
ATOM      8  O   UNL     1      34.382 -22.989 -19.523  0.00  0.00    -0.375 OA
ATOM      9  H   UNL     1      34.140 -23.252 -18.621  0.00  0.00    +0.211 HD
ENDBRANCH   1   8
BRANCH   1  10
ATOM     10  C   UNL     1      34.750 -20.636 -19.927  0.00  0.00    +0.101 C 
BRANCH  10  12
ATOM     11  O   UNL     1      32.420 -20.867 -19.324  0.00  0.00    -0.288 OA
ATOM     12  C   UNL     1      33.274 -20.837 -20.206  0.00  0.00    +0.210 C 
ENDBRANCH  10  12
BRANCH  10  13
ATOM     13  C   UNL     1      35.452 -19.990 -21.135  0.00  0.00    +0.011 C 
BRANCH  13  14
ATOM     14  C   UNL     1      34.577 -19.008 -21.947  0.00  0.00    +0.001 C 
ATOM     15  C   UNL     1      34.839 -19.094 -23.451  0.00  0.00    +0.000 C 
ATOM     16  C   UNL     1      34.827 -17.577 -21.465  0.00  0.00    +0.000 C 
ENDBRANCH  13  14
ENDBRANCH  10  13
ENDBRANCH   1  10
TORSDOF 7
ENDMDL
MODEL 6
REMARK VINA RESULT:      -6.4     11.741     13.362
REMARK  Name = 5288561
REMARK  7 active torsions:
REMARK  status: ('A' for Active; 'I' for Inactive)
REMARK    1  A    between atoms: C_1  and  C_4
REMARK    2  A    between atoms: C_1  and  O_8
REMARK    3  A    between atoms: C_1  and  C_10
REMARK    4  A    between atoms: N_3  and  O_6
REMARK    5  A    between atoms: C_10  and  C_12
REMARK    6  A    between atoms: C_10  and  C_13
REMARK    7  A    between atoms: C_13  and  C_14
REMARK                            x       y       z     vdW  Elec       q    Type
REMARK                         _______ _______ _______ _____ _____    ______ ____
ROOT
ATOM      1  C   UNL     1      34.759 -15.592 -23.563  0.00  0.00    +0.196 C 
ENDROOT
BRANCH   1   4
ATOM      2  O   UNL     1      34.370 -16.452 -25.789  0.00  0.00    -0.270 OA
ATOM      3  N   UNL     1      33.068 -14.703 -25.036  0.00  0.00    -0.195 N 
ATOM      4  C   UNL     1      34.055 -15.649 -24.913  0.00  0.00    +0.272 C 
ATOM      5  H   UNL     1      32.850 -14.079 -24.307  0.00  0.00    +0.182 HD
BRANCH   3   6
ATOM      6  O   UNL     1      32.390 -14.680 -26.263  0.00  0.00    -0.295 OA
ATOM      7  H   UNL     1      33.024 -14.519 -26.979  0.00  0.00    +0.241 HD
ENDBRANCH   3   6
ENDBRANCH   1   4
BRANCH   1   8
ATOM      8  O   UNL     1      34.761 -14.230 -23.142  0.00  0.00    -0.375 OA
ATOM      9  H   UNL     1      35.675 -13.931 -23.016  0.00  0.00    +0.211 HD
ENDBRANCH   1   8
BRANCH   1  10
ATOM     10  C   UNL     1      34.128 -16.458 -22.453  0.00  0.00    +0.101 C 
BRANCH  10  12
ATOM     11  O   UNL     1      32.304 -14.975 -21.890  0.00  0.00    -0.288 OA
ATOM     12  C   UNL     1      33.309 -15.581 -21.528  0.00  0.00    +0.210 C 
ENDBRANCH  10  12
BRANCH  10  13
ATOM     13  C   UNL     1      35.142 -17.298 -21.656  0.00  0.00    +0.011 C 
BRANCH  13  14
ATOM     14  C   UNL     1      35.019 -18.826 -21.854  0.00  0.00    +0.001 C 
ATOM     15  C   UNL     1      34.822 -19.216 -23.319  0.00  0.00    +0.000 C 
ATOM     16  C   UNL     1      33.851 -19.360 -21.020  0.00  0.00    +0.000 C 
ENDBRANCH  13  14
ENDBRANCH  10  13
ENDBRANCH   1  10
TORSDOF 7
ENDMDL
MODEL 7
REMARK VINA RESULT:      -6.3      1.985      2.448
REMARK  Name = 5288561
REMARK  7 active torsions:
REMARK  status: ('A' for Active; 'I' for Inactive)
REMARK    1  A    between atoms: C_1  and  C_4
REMARK    2  A    between atoms: C_1  and  O_8
REMARK    3  A    between atoms: C_1  and  C_10
REMARK    4  A    between atoms: N_3  and  O_6
REMARK    5  A    between atoms: C_10  and  C_12
REMARK    6  A    between atoms: C_10  and  C_13
REMARK    7  A    between atoms: C_13  and  C_14
REMARK                            x       y       z     vdW  Elec       q    Type
REMARK                         _______ _______ _______ _____ _____    ______ ____
ROOT
ATOM      1  C   UNL     1      36.713 -25.618 -13.139  0.00  0.00    +0.196 C 
ENDROOT
BRANCH   1   4
ATOM      2  O   UNL     1      38.636 -24.316 -13.810  0.00  0.00    -0.270 OA
ATOM      3  N   UNL     1      38.660 -26.594 -14.176  0.00  0.00    -0.195 N 
ATOM      4  C   UNL     1      38.103 -25.421 -13.732  0.00  0.00    +0.272 C 
ATOM      5  H   UNL     1      38.195 -27.457 -14.093  0.00  0.00    +0.182 HD
BRANCH   3   6
ATOM      6  O   UNL     1      39.932 -26.488 -14.757  0.00  0.00    -0.295 OA
ATOM      7  H   UNL     1      40.578 -26.242 -14.077  0.00  0.00    +0.241 HD
ENDBRANCH   3   6
ENDBRANCH   1   4
BRANCH   1   8
ATOM      8  O   UNL     1      36.847 -26.499 -12.026  0.00  0.00    -0.375 OA
ATOM      9  H   UNL     1      35.987 -26.599 -11.587  0.00  0.00    +0.211 HD
ENDBRANCH   1   8
BRANCH   1  10
ATOM     10  C   UNL     1      36.006 -24.328 -12.673  0.00  0.00    +0.101 C 
BRANCH  10  12
ATOM     11  O   UNL     1      35.261 -24.957 -10.462  0.00  0.00    -0.288 OA
ATOM     12  C   UNL     1      36.001 -24.270 -11.160  0.00  0.00    +0.210 C 
ENDBRANCH  10  12
BRANCH  10  13
ATOM     13  C   UNL     1      34.583 -24.152 -13.233  0.00  0.00    +0.011 C 
BRANCH  13  14
ATOM     14  C   UNL     1      34.513 -23.838 -14.744  0.00  0.00    +0.001 C 
ATOM     15  C   UNL     1      35.517 -22.767 -15.170  0.00  0.00    +0.000 C 
ATOM     16  C   UNL     1      33.096 -23.385 -15.109  0.00  0.00    +0.000 C 
ENDBRANCH  13  14
ENDBRANCH  10  13
ENDBRANCH   1  10
TORSDOF 7
ENDMDL
MODEL 8
REMARK VINA RESULT:      -6.3      9.656     11.585
REMARK  Name = 5288561
REMARK  7 active torsions:
REMARK  status: ('A' for Active; 'I' for Inactive)
REMARK    1  A    between atoms: C_1  and  C_4
REMARK    2  A    between atoms: C_1  and  O_8
REMARK    3  A    between atoms: C_1  and  C_10
REMARK    4  A    between atoms: N_3  and  O_6
REMARK    5  A    between atoms: C_10  and  C_12
REMARK    6  A    between atoms: C_10  and  C_13
REMARK    7  A    between atoms: C_13  and  C_14
REMARK                            x       y       z     vdW  Elec       q    Type
REMARK                         _______ _______ _______ _____ _____    ______ ____
ROOT
ATOM      1  C   UNL     1      34.593 -17.061 -22.651  0.00  0.00    +0.196 C 
ENDROOT
BRANCH   1   4
ATOM      2  O   UNL     1      35.142 -16.439 -20.379  0.00  0.00    -0.270 OA
ATOM      3  N   UNL     1      33.135 -15.727 -21.268  0.00  0.00    -0.195 N 
ATOM      4  C   UNL     1      34.342 -16.378 -21.311  0.00  0.00    +0.272 C 
ATOM      5  H   UNL     1      32.525 -15.706 -22.040  0.00  0.00    +0.182 HD
BRANCH   3   6
ATOM      6  O   UNL     1      32.823 -15.093 -20.056  0.00  0.00    -0.295 OA
ATOM      7  H   UNL     1      33.614 -14.650 -19.711  0.00  0.00    +0.241 HD
ENDBRANCH   3   6
ENDBRANCH   1   4
BRANCH   1   8
ATOM      8  O   UNL     1      35.721 -16.425 -23.247  0.00  0.00    -0.375 OA
ATOM      9  H   UNL     1      36.316 -16.102 -22.552  0.00  0.00    +0.211 HD
ENDBRANCH   1   8
BRANCH   1  10
ATOM     10  C   UNL     1      34.857 -18.580 -22.576  0.00  0.00    +0.101 C 
BRANCH  10  12
ATOM     11  O   UNL     1      34.572 -18.545 -24.976  0.00  0.00    -0.288 OA
ATOM     12  C   UNL     1      34.957 -19.147 -23.978  0.00  0.00    +0.210 C 
ENDBRANCH  10  12
BRANCH  10  13
ATOM     13  C   UNL     1      33.824 -19.358 -21.743  0.00  0.00    +0.011 C 
BRANCH  13  14
ATOM     14  C   UNL     1      34.364 -19.943 -20.418  0.00  0.00    +0.001 C 
ATOM     15  C   UNL     1      35.760 -20.547 -20.568  0.00  0.00    +0.000 C 
ATOM     16  C   UNL     1      33.398 -21.010 -19.896  0.00  0.00    +0.000 C 
ENDBRANCH  13  14
ENDBRANCH  10  13
ENDBRANCH   1  10
TORSDOF 7
ENDMDL
MODEL 9
REMARK VINA RESULT:      -6.3      6.624      7.883
REMARK  Name = 5288561
REMARK  7 active torsions:
REMARK  status: ('A' for Active; 'I' for Inactive)
REMARK    1  A    between atoms: C_1  and  C_4
REMARK    2  A    between atoms: C_1  and  O_8
REMARK    3  A    between atoms: C_1  and  C_10
REMARK    4  A    between atoms: N_3  and  O_6
REMARK    5  A    between atoms: C_10  and  C_12
REMARK    6  A    between atoms: C_10  and  C_13
REMARK    7  A    between atoms: C_13  and  C_14
REMARK                            x       y       z     vdW  Elec       q    Type
REMARK                         _______ _______ _______ _____ _____    ______ ____
ROOT
ATOM      1  C   UNL     1      29.124 -24.069 -15.092  0.00  0.00    +0.196 C 
ENDROOT
BRANCH   1   4
ATOM      2  O   UNL     1      27.990 -24.322 -17.212  0.00  0.00    -0.270 OA
ATOM      3  N   UNL     1      28.023 -22.241 -16.218  0.00  0.00    -0.195 N 
ATOM      4  C   UNL     1      28.315 -23.580 -16.288  0.00  0.00    +0.272 C 
ATOM      5  H   UNL     1      28.305 -21.684 -15.456  0.00  0.00    +0.182 HD
BRANCH   3   6
ATOM      6  O   UNL     1      27.300 -21.713 -17.296  0.00  0.00    -0.295 OA
ATOM      7  H   UNL     1      27.833 -21.037 -17.743  0.00  0.00    +0.241 HD
ENDBRANCH   3   6
ENDBRANCH   1   4
BRANCH   1   8
ATOM      8  O   UNL     1      28.478 -25.236 -14.591  0.00  0.00    -0.375 OA
ATOM      9  H   UNL     1      28.889 -26.026 -14.978  0.00  0.00    +0.211 HD
ENDBRANCH   1   8
BRANCH   1  10
ATOM     10  C   UNL     1      30.601 -24.402 -15.388  0.00  0.00    +0.101 C 
BRANCH  10  12
ATOM     11  O   UNL     1      31.021 -24.774 -13.037  0.00  0.00    -0.288 OA
ATOM     12  C   UNL     1      31.207 -25.121 -14.200  0.00  0.00    +0.210 C 
ENDBRANCH  10  12
BRANCH  10  13
ATOM     13  C   UNL     1      31.454 -23.184 -15.785  0.00  0.00    +0.011 C 
BRANCH  13  14
ATOM     14  C   UNL     1      32.846 -23.526 -16.363  0.00  0.00    +0.001 C 
ATOM     15  C   UNL     1      33.987 -23.111 -15.434  0.00  0.00    +0.000 C 
ATOM     16  C   UNL     1      33.019 -22.843 -17.723  0.00  0.00    +0.000 C 
ENDBRANCH  13  14
ENDBRANCH  10  13
ENDBRANCH   1  10
TORSDOF 7
ENDMDL
