MODEL 1
REMARK VINA RESULT:      -6.3      0.000      0.000
REMARK  Name = 446103
REMARK  4 active torsions:
REMARK  status: ('A' for Active; 'I' for Inactive)
REMARK    1  A    between atoms: C_2  and  O_10
REMARK    2  A    between atoms: C_3  and  O_12
REMARK    3  A    between atoms: C_4  and  O_8
REMARK    4  A    between atoms: C_6  and  O_14
REMARK                            x       y       z     vdW  Elec       q    Type
REMARK                         _______ _______ _______ _____ _____    ______ ____
ROOT
ATOM      1  O   UNL     1      37.767 -22.780 -13.891  0.00  0.00    -0.329 OA
ATOM      2  C   UNL     1      36.555 -25.370 -13.672  0.00  0.00    +0.172 C 
ATOM      3  C   UNL     1      36.964 -24.773 -15.018  0.00  0.00    +0.167 C 
ATOM      4  C   UNL     1      37.378 -24.767 -12.532  0.00  0.00    +0.200 C 
ATOM      5  C   UNL     1      36.914 -23.242 -14.946  0.00  0.00    +0.147 C 
ATOM      6  C   UNL     1      37.361 -23.237 -12.603  0.00  0.00    +0.263 C 
ATOM      7  C   UNL     1      37.388 -22.585 -16.236  0.00  0.00    +0.035 C 
ENDROOT
BRANCH   4   8
ATOM      8  O   UNL     1      36.817 -25.161 -11.280  0.00  0.00    -0.346 OA
ATOM      9  C   UNL     1      35.532 -24.591 -11.088  0.00  0.00    +0.174 C 
ENDBRANCH   4   8
BRANCH   2  10
ATOM     10  O   UNL     1      36.731 -26.782 -13.719  0.00  0.00    -0.379 OA
ATOM     11  H   UNL     1      35.984 -27.217 -13.282  0.00  0.00    +0.211 HD
ENDBRANCH   2  10
BRANCH   3  12
ATOM     12  O   UNL     1      38.296 -25.179 -15.339  0.00  0.00    -0.379 OA
ATOM     13  H   UNL     1      38.500 -26.009 -14.879  0.00  0.00    +0.211 HD
ENDBRANCH   3  12
BRANCH   6  14
ATOM     14  O   UNL     1      38.261 -22.744 -11.611  0.00  0.00    -0.358 OA
ATOM     15  H   UNL     1      38.760 -23.484 -11.230  0.00  0.00    +0.213 HD
ENDBRANCH   6  14
TORSDOF 4
ENDMDL
MODEL 2
REMARK VINA RESULT:      -6.3      2.002      3.437
REMARK  Name = 446103
REMARK  4 active torsions:
REMARK  status: ('A' for Active; 'I' for Inactive)
REMARK    1  A    between atoms: C_2  and  O_10
REMARK    2  A    between atoms: C_3  and  O_12
REMARK    3  A    between atoms: C_4  and  O_8
REMARK    4  A    between atoms: C_6  and  O_14
REMARK                            x       y       z     vdW  Elec       q    Type
REMARK                         _______ _______ _______ _____ _____    ______ ____
ROOT
ATOM      1  O   UNL     1      35.619 -24.920 -15.435  0.00  0.00    -0.329 OA
ATOM      2  C   UNL     1      36.431 -24.774 -12.688  0.00  0.00    +0.172 C 
ATOM      3  C   UNL     1      35.162 -24.093 -13.200  0.00  0.00    +0.167 C 
ATOM      4  C   UNL     1      36.818 -25.954 -13.580  0.00  0.00    +0.200 C 
ATOM      5  C   UNL     1      35.324 -23.737 -14.682  0.00  0.00    +0.147 C 
ATOM      6  C   UNL     1      36.848 -25.533 -15.052  0.00  0.00    +0.263 C 
ATOM      7  C   UNL     1      34.060 -23.124 -15.273  0.00  0.00    +0.035 C 
ENDROOT
BRANCH   4   8
ATOM      8  O   UNL     1      38.121 -26.415 -13.221  0.00  0.00    -0.346 OA
ATOM      9  C   UNL     1      39.094 -25.398 -13.399  0.00  0.00    +0.174 C 
ENDBRANCH   4   8
BRANCH   2  10
ATOM     10  O   UNL     1      36.214 -25.212 -11.350  0.00  0.00    -0.379 OA
ATOM     11  H   UNL     1      36.730 -24.662 -10.742  0.00  0.00    +0.211 HD
ENDBRANCH   2  10
BRANCH   3  12
ATOM     12  O   UNL     1      34.050 -24.979 -13.054  0.00  0.00    -0.379 OA
ATOM     13  H   UNL     1      33.231 -24.509 -13.275  0.00  0.00    +0.211 HD
ENDBRANCH   3  12
BRANCH   6  14
ATOM     14  O   UNL     1      37.067 -26.705 -15.838  0.00  0.00    -0.358 OA
ATOM     15  H   UNL     1      38.000 -26.963 -15.779  0.00  0.00    +0.213 HD
ENDBRANCH   6  14
TORSDOF 4
ENDMDL
MODEL 3
REMARK VINA RESULT:      -6.0      1.960      2.967
REMARK  Name = 446103
REMARK  4 active torsions:
REMARK  status: ('A' for Active; 'I' for Inactive)
REMARK    1  A    between atoms: C_2  and  O_10
REMARK    2  A    between atoms: C_3  and  O_12
REMARK    3  A    between atoms: C_4  and  O_8
REMARK    4  A    between atoms: C_6  and  O_14
REMARK                            x       y       z     vdW  Elec       q    Type
REMARK                         _______ _______ _______ _____ _____    ______ ____
ROOT
ATOM      1  O   UNL     1      36.481 -23.563 -15.996  0.00  0.00    -0.329 OA
ATOM      2  C   UNL     1      36.637 -25.173 -13.627  0.00  0.00    +0.172 C 
ATOM      3  C   UNL     1      35.371 -25.099 -14.481  0.00  0.00    +0.167 C 
ATOM      4  C   UNL     1      37.878 -24.839 -14.457  0.00  0.00    +0.200 C 
ATOM      5  C   UNL     1      35.304 -23.746 -15.199  0.00  0.00    +0.147 C 
ATOM      6  C   UNL     1      37.679 -23.528 -15.225  0.00  0.00    +0.263 C 
ATOM      7  C   UNL     1      34.102 -23.642 -16.129  0.00  0.00    +0.035 C 
ENDROOT
BRANCH   4   8
ATOM      8  O   UNL     1      39.002 -24.683 -13.591  0.00  0.00    -0.346 OA
ATOM      9  C   UNL     1      40.024 -25.617 -13.898  0.00  0.00    +0.174 C 
ENDBRANCH   4   8
BRANCH   2  10
ATOM     10  O   UNL     1      36.747 -26.480 -13.073  0.00  0.00    -0.379 OA
ATOM     11  H   UNL     1      36.387 -27.128 -13.699  0.00  0.00    +0.211 HD
ENDBRANCH   2  10
BRANCH   3  12
ATOM     12  O   UNL     1      35.390 -26.142 -15.458  0.00  0.00    -0.379 OA
ATOM     13  H   UNL     1      35.456 -25.754 -16.344  0.00  0.00    +0.211 HD
ENDBRANCH   3  12
BRANCH   6  14
ATOM     14  O   UNL     1      38.803 -23.352 -16.087  0.00  0.00    -0.358 OA
ATOM     15  H   UNL     1      39.315 -22.581 -15.797  0.00  0.00    +0.213 HD
ENDBRANCH   6  14
TORSDOF 4
ENDMDL
MODEL 4
REMARK VINA RESULT:      -6.0      1.926      2.238
REMARK  Name = 446103
REMARK  4 active torsions:
REMARK  status: ('A' for Active; 'I' for Inactive)
REMARK    1  A    between atoms: C_2  and  O_10
REMARK    2  A    between atoms: C_3  and  O_12
REMARK    3  A    between atoms: C_4  and  O_8
REMARK    4  A    between atoms: C_6  and  O_14
REMARK                            x       y       z     vdW  Elec       q    Type
REMARK                         _______ _______ _______ _____ _____    ______ ____
ROOT
ATOM      1  O   UNL     1      39.011 -24.880 -13.100  0.00  0.00    -0.329 OA
ATOM      2  C   UNL     1      36.634 -25.583 -14.543  0.00  0.00    +0.172 C 
ATOM      3  C   UNL     1      38.031 -25.961 -15.039  0.00  0.00    +0.167 C 
ATOM      4  C   UNL     1      36.626 -25.383 -13.027  0.00  0.00    +0.200 C 
ATOM      5  C   UNL     1      39.057 -24.941 -14.531  0.00  0.00    +0.147 C 
ATOM      6  C   UNL     1      37.752 -24.437 -12.599  0.00  0.00    +0.263 C 
ATOM      7  C   UNL     1      40.482 -25.307 -14.927  0.00  0.00    +0.035 C 
ENDROOT
BRANCH   4   8
ATOM      8  O   UNL     1      35.383 -24.805 -12.630  0.00  0.00    -0.346 OA
ATOM      9  C   UNL     1      35.093 -23.639 -13.384  0.00  0.00    +0.174 C 
ENDBRANCH   4   8
BRANCH   2  10
ATOM     10  O   UNL     1      35.719 -26.609 -14.915  0.00  0.00    -0.379 OA
ATOM     11  H   UNL     1      34.871 -26.463 -14.468  0.00  0.00    +0.211 HD
ENDBRANCH   2  10
BRANCH   3  12
ATOM     12  O   UNL     1      38.381 -27.256 -14.546  0.00  0.00    -0.379 OA
ATOM     13  H   UNL     1      39.219 -27.202 -14.061  0.00  0.00    +0.211 HD
ENDBRANCH   3  12
BRANCH   6  14
ATOM     14  O   UNL     1      37.783 -24.410 -11.173  0.00  0.00    -0.358 OA
ATOM     15  H   UNL     1      37.462 -25.258 -10.827  0.00  0.00    +0.213 HD
ENDBRANCH   6  14
TORSDOF 4
ENDMDL
MODEL 5
REMARK VINA RESULT:      -5.8      2.030      2.894
REMARK  Name = 446103
REMARK  4 active torsions:
REMARK  status: ('A' for Active; 'I' for Inactive)
REMARK    1  A    between atoms: C_2  and  O_10
REMARK    2  A    between atoms: C_3  and  O_12
REMARK    3  A    between atoms: C_4  and  O_8
REMARK    4  A    between atoms: C_6  and  O_14
REMARK                            x       y       z     vdW  Elec       q    Type
REMARK                         _______ _______ _______ _____ _____    ______ ____
ROOT
ATOM      1  O   UNL     1      36.557 -23.911 -12.969  0.00  0.00    -0.329 OA
ATOM      2  C   UNL     1      37.147 -26.185 -14.616  0.00  0.00    +0.172 C 
ATOM      3  C   UNL     1      35.867 -25.365 -14.785  0.00  0.00    +0.167 C 
ATOM      4  C   UNL     1      38.253 -25.347 -13.974  0.00  0.00    +0.200 C 
ATOM      5  C   UNL     1      35.478 -24.724 -13.448  0.00  0.00    +0.147 C 
ATOM      6  C   UNL     1      37.744 -24.656 -12.705  0.00  0.00    +0.263 C 
ATOM      7  C   UNL     1      34.252 -23.828 -13.569  0.00  0.00    +0.035 C 
ENDROOT
BRANCH   4   8
ATOM      8  O   UNL     1      39.344 -26.195 -13.613  0.00  0.00    -0.346 OA
ATOM      9  C   UNL     1      40.502 -25.898 -14.376  0.00  0.00    +0.174 C 
ENDBRANCH   4   8
BRANCH   2  10
ATOM     10  O   UNL     1      37.561 -26.664 -15.891  0.00  0.00    -0.379 OA
ATOM     11  H   UNL     1      36.938 -27.338 -16.202  0.00  0.00    +0.211 HD
ENDBRANCH   2  10
BRANCH   3  12
ATOM     12  O   UNL     1      36.083 -24.333 -15.749  0.00  0.00    -0.379 OA
ATOM     13  H   UNL     1      35.614 -24.553 -16.570  0.00  0.00    +0.211 HD
ENDBRANCH   3  12
BRANCH   6  14
ATOM     14  O   UNL     1      38.771 -23.779 -12.242  0.00  0.00    -0.358 OA
ATOM     15  H   UNL     1      38.449 -23.283 -11.473  0.00  0.00    +0.213 HD
ENDBRANCH   6  14
TORSDOF 4
ENDMDL
MODEL 6
REMARK VINA RESULT:      -5.7      2.030      2.619
REMARK  Name = 446103
REMARK  4 active torsions:
REMARK  status: ('A' for Active; 'I' for Inactive)
REMARK    1  A    between atoms: C_2  and  O_10
REMARK    2  A    between atoms: C_3  and  O_12
REMARK    3  A    between atoms: C_4  and  O_8
REMARK    4  A    between atoms: C_6  and  O_14
REMARK                            x       y       z     vdW  Elec       q    Type
REMARK                         _______ _______ _______ _____ _____    ______ ____
ROOT
ATOM      1  O   UNL     1      38.106 -23.799 -15.770  0.00  0.00    -0.329 OA
ATOM      2  C   UNL     1      35.823 -24.540 -14.199  0.00  0.00    +0.172 C 
ATOM      3  C   UNL     1      35.793 -23.365 -15.177  0.00  0.00    +0.167 C 
ATOM      4  C   UNL     1      36.889 -25.560 -14.601  0.00  0.00    +0.200 C 
ATOM      5  C   UNL     1      37.201 -22.778 -15.329  0.00  0.00    +0.147 C 
ATOM      6  C   UNL     1      38.236 -24.870 -14.838  0.00  0.00    +0.263 C 
ATOM      7  C   UNL     1      37.253 -21.651 -16.353  0.00  0.00    +0.035 C 
ENDROOT
BRANCH   4   8
ATOM      8  O   UNL     1      37.055 -26.512 -13.550  0.00  0.00    -0.346 OA
ATOM      9  C   UNL     1      37.442 -25.883 -12.340  0.00  0.00    +0.174 C 
ENDBRANCH   4   8
BRANCH   2  10
ATOM     10  O   UNL     1      34.536 -25.150 -14.171  0.00  0.00    -0.379 OA
ATOM     11  H   UNL     1      34.574 -26.006 -14.624  0.00  0.00    +0.211 HD
ENDBRANCH   2  10
BRANCH   3  12
ATOM     12  O   UNL     1      35.337 -23.815 -16.454  0.00  0.00    -0.379 OA
ATOM     13  H   UNL     1      35.687 -23.232 -17.147  0.00  0.00    +0.211 HD
ENDBRANCH   3  12
BRANCH   6  14
ATOM     14  O   UNL     1      39.143 -25.846 -15.350  0.00  0.00    -0.358 OA
ATOM     15  H   UNL     1      39.976 -25.804 -14.855  0.00  0.00    +0.213 HD
ENDBRANCH   6  14
TORSDOF 4
ENDMDL
MODEL 7
REMARK VINA RESULT:      -5.6     12.586     14.559
REMARK  Name = 446103
REMARK  4 active torsions:
REMARK  status: ('A' for Active; 'I' for Inactive)
REMARK    1  A    between atoms: C_2  and  O_10
REMARK    2  A    between atoms: C_3  and  O_12
REMARK    3  A    between atoms: C_4  and  O_8
REMARK    4  A    between atoms: C_6  and  O_14
REMARK                            x       y       z     vdW  Elec       q    Type
REMARK                         _______ _______ _______ _____ _____    ______ ____
ROOT
ATOM      1  O   UNL     1      34.245 -16.935 -25.516  0.00  0.00    -0.329 OA
ATOM      2  C   UNL     1      33.817 -15.483 -23.080  0.00  0.00    +0.172 C 
ATOM      3  C   UNL     1      34.579 -16.808 -23.116  0.00  0.00    +0.167 C 
ATOM      4  C   UNL     1      33.876 -14.779 -24.437  0.00  0.00    +0.200 C 
ATOM      5  C   UNL     1      34.086 -17.660 -24.291  0.00  0.00    +0.147 C 
ATOM      6  C   UNL     1      33.472 -15.738 -25.562  0.00  0.00    +0.263 C 
ATOM      7  C   UNL     1      34.864 -18.964 -24.428  0.00  0.00    +0.035 C 
ENDROOT
BRANCH   4   8
ATOM      8  O   UNL     1      32.967 -13.679 -24.442  0.00  0.00    -0.346 OA
ATOM      9  C   UNL     1      33.656 -12.441 -24.513  0.00  0.00    +0.174 C 
ENDBRANCH   4   8
BRANCH   2  10
ATOM     10  O   UNL     1      34.376 -14.654 -22.066  0.00  0.00    -0.379 OA
ATOM     11  H   UNL     1      34.762 -15.209 -21.371  0.00  0.00    +0.211 HD
ENDBRANCH   2  10
BRANCH   3  12
ATOM     12  O   UNL     1      35.975 -16.553 -23.282  0.00  0.00    -0.379 OA
ATOM     13  H   UNL     1      36.131 -16.156 -24.153  0.00  0.00    +0.211 HD
ENDBRANCH   3  12
BRANCH   6  14
ATOM     14  O   UNL     1      33.690 -15.070 -26.805  0.00  0.00    -0.358 OA
ATOM     15  H   UNL     1      32.855 -15.022 -27.296  0.00  0.00    +0.213 HD
ENDBRANCH   6  14
TORSDOF 4
ENDMDL
MODEL 8
REMARK VINA RESULT:      -5.6     10.519     12.564
REMARK  Name = 446103
REMARK  4 active torsions:
REMARK  status: ('A' for Active; 'I' for Inactive)
REMARK    1  A    between atoms: C_2  and  O_10
REMARK    2  A    between atoms: C_3  and  O_12
REMARK    3  A    between atoms: C_4  and  O_8
REMARK    4  A    between atoms: C_6  and  O_14
REMARK                            x       y       z     vdW  Elec       q    Type
REMARK                         _______ _______ _______ _____ _____    ______ ____
ROOT
ATOM      1  O   UNL     1      34.160 -16.152 -21.015  0.00  0.00    -0.329 OA
ATOM      2  C   UNL     1      34.505 -16.587 -23.829  0.00  0.00    +0.172 C 
ATOM      3  C   UNL     1      33.854 -15.320 -23.274  0.00  0.00    +0.167 C 
ATOM      4  C   UNL     1      35.437 -17.222 -22.796  0.00  0.00    +0.200 C 
ATOM      5  C   UNL     1      33.189 -15.624 -21.927  0.00  0.00    +0.147 C 
ATOM      6  C   UNL     1      34.722 -17.388 -21.451  0.00  0.00    +0.263 C 
ATOM      7  C   UNL     1      32.588 -14.380 -21.283  0.00  0.00    +0.035 C 
ENDROOT
BRANCH   4   8
ATOM      8  O   UNL     1      35.838 -18.515 -23.249  0.00  0.00    -0.346 OA
ATOM      9  C   UNL     1      34.716 -19.317 -23.581  0.00  0.00    +0.174 C 
ENDBRANCH   4   8
BRANCH   2  10
ATOM     10  O   UNL     1      35.226 -16.257 -25.012  0.00  0.00    -0.379 OA
ATOM     11  H   UNL     1      35.884 -16.945 -25.193  0.00  0.00    +0.211 HD
ENDBRANCH   2  10
BRANCH   3  12
ATOM     12  O   UNL     1      34.850 -14.314 -23.083  0.00  0.00    -0.379 OA
ATOM     13  H   UNL     1      35.666 -14.576 -23.537  0.00  0.00    +0.211 HD
ENDBRANCH   3  12
BRANCH   6  14
ATOM     14  O   UNL     1      35.683 -17.843 -20.498  0.00  0.00    -0.358 OA
ATOM     15  H   UNL     1      36.048 -17.083 -20.019  0.00  0.00    +0.213 HD
ENDBRANCH   6  14
TORSDOF 4
ENDMDL
MODEL 9
REMARK VINA RESULT:      -5.6      9.952     11.966
REMARK  Name = 446103
REMARK  4 active torsions:
REMARK  status: ('A' for Active; 'I' for Inactive)
REMARK    1  A    between atoms: C_2  and  O_10
REMARK    2  A    between atoms: C_3  and  O_12
REMARK    3  A    between atoms: C_4  and  O_8
REMARK    4  A    between atoms: C_6  and  O_14
REMARK                            x       y       z     vdW  Elec       q    Type
REMARK                         _______ _______ _______ _____ _____    ______ ____
ROOT
ATOM      1  O   UNL     1      34.225 -15.202 -21.940  0.00  0.00    -0.329 OA
ATOM      2  C   UNL     1      34.699 -17.802 -23.054  0.00  0.00    +0.172 C 
ATOM      3  C   UNL     1      34.466 -16.570 -23.929  0.00  0.00    +0.167 C 
ATOM      4  C   UNL     1      35.241 -17.404 -21.680  0.00  0.00    +0.200 C 
ATOM      5  C   UNL     1      33.597 -15.555 -23.179  0.00  0.00    +0.147 C 
ATOM      6  C   UNL     1      34.373 -16.308 -21.053  0.00  0.00    +0.263 C 
ATOM      7  C   UNL     1      33.393 -14.269 -23.970  0.00  0.00    +0.035 C 
ENDROOT
BRANCH   4   8
ATOM      8  O   UNL     1      35.221 -18.538 -20.814  0.00  0.00    -0.346 OA
ATOM      9  C   UNL     1      33.995 -19.244 -20.916  0.00  0.00    +0.174 C 
ENDBRANCH   4   8
BRANCH   2  10
ATOM     10  O   UNL     1      35.612 -18.673 -23.715  0.00  0.00    -0.379 OA
ATOM     11  H   UNL     1      36.470 -18.644 -23.265  0.00  0.00    +0.211 HD
ENDBRANCH   2  10
BRANCH   3  12
ATOM     12  O   UNL     1      35.720 -15.963 -24.246  0.00  0.00    -0.379 OA
ATOM     13  H   UNL     1      36.127 -16.430 -24.993  0.00  0.00    +0.211 HD
ENDBRANCH   3  12
BRANCH   6  14
ATOM     14  O   UNL     1      35.011 -15.880 -19.850  0.00  0.00    -0.358 OA
ATOM     15  H   UNL     1      34.338 -15.623 -19.201  0.00  0.00    +0.213 HD
ENDBRANCH   6  14
TORSDOF 4
ENDMDL
