MODEL 1
REMARK VINA RESULT:     -10.8      0.000      0.000
REMARK  Name = 447362
REMARK  5 active torsions:
REMARK  status: ('A' for Active; 'I' for Inactive)
REMARK    1  A    between atoms: N_2  and  S_8
REMARK    2  A    between atoms: N_3  and  C_21
REMARK    3  A    between atoms: S_8  and  C_13
REMARK    4  A    between atoms: C_21  and  C_22
REMARK    5  A    between atoms: C_27  and  C_30
REMARK                            x       y       z     vdW  Elec       q    Type
REMARK                         _______ _______ _______ _____ _____    ______ ____
ROOT
ATOM      1  O   UNL     1      37.659 -19.733 -20.745  0.00  0.00    -0.273 OA
ATOM      2  N   UNL     1      34.390 -20.928 -19.750  0.00  0.00    -0.144 NA
ATOM      3  N   UNL     1      35.575 -18.781 -21.100  0.00  0.00    -0.273 N 
ATOM      4  C   UNL     1      33.583 -20.207 -20.757  0.00  0.00    +0.118 C 
ATOM      5  C   UNL     1      34.138 -18.801 -20.844  0.00  0.00    +0.113 C 
ATOM      6  C   UNL     1      35.793 -21.074 -20.185  0.00  0.00    +0.181 C 
ATOM      7  C   UNL     1      36.427 -19.797 -20.676  0.00  0.00    +0.244 C 
ENDROOT
BRANCH   2   8
ATOM      8  S   UNL     1      33.672 -22.332 -19.085  0.00  0.00    +0.069 S 
ATOM      9  O   UNL     1      34.006 -23.464 -19.925  0.00  0.00    -0.152 OA
ATOM     10  O   UNL     1      32.305 -22.035 -18.709  0.00  0.00    -0.152 OA
BRANCH   8  13
ATOM     11 CL   UNL     1      35.797 -24.477 -11.495  0.00  0.00    -0.082 Cl
ATOM     12  S   UNL     1      33.474 -23.372 -16.366  0.00  0.00    -0.067 S 
ATOM     13  C   UNL     1      34.483 -22.665 -17.525  0.00  0.00    +0.152 C 
ATOM     14  C   UNL     1      35.751 -22.459 -17.099  0.00  0.00    +0.027 C 
ATOM     15  C   UNL     1      35.939 -22.896 -15.745  0.00  0.00    +0.008 C 
ATOM     16  C   UNL     1      34.758 -23.424 -15.216  0.00  0.00    +0.032 C 
ATOM     17  C   UNL     1      37.089 -22.868 -14.920  0.00  0.00    +0.001 C 
ATOM     18  C   UNL     1      34.698 -23.917 -13.897  0.00  0.00    +0.018 C 
ATOM     19  C   UNL     1      37.034 -23.358 -13.613  0.00  0.00    +0.011 C 
ATOM     20  C   UNL     1      35.849 -23.877 -13.108  0.00  0.00    +0.058 C 
ENDBRANCH   8  13
ENDBRANCH   2   8
BRANCH   3  21
ATOM     21  C   UNL     1      36.119 -17.534 -21.616  0.00  0.00    +0.120 C 
BRANCH  21  22
ATOM     22  C   UNL     1      35.319 -17.089 -22.802  0.00  0.00    -0.002 C 
ATOM     23  C   UNL     1      35.220 -17.914 -23.917  0.00  0.00    -0.003 C 
ATOM     24  C   UNL     1      34.680 -15.852 -22.779  0.00  0.00    -0.003 C 
ATOM     25  C   UNL     1      34.474 -17.500 -25.021  0.00  0.00    +0.002 C 
ATOM     26  C   UNL     1      33.935 -15.438 -23.882  0.00  0.00    +0.002 C 
ATOM     27  C   UNL     1      33.831 -16.262 -25.004  0.00  0.00    +0.031 C 
BRANCH  27  30
ATOM     28  N   UNL     1      33.245 -14.570 -26.724  0.00  0.00    -0.343 N 
ATOM     29  N   UNL     1      32.149 -16.633 -26.678  0.00  0.00    -0.285 NA
ATOM     30  C   UNL     1      33.056 -15.828 -26.155  0.00  0.00    +0.117 C 
ATOM     31  H   UNL     1      32.709 -14.297 -27.504  0.00  0.00    +0.144 HD
ATOM     32  H   UNL     1      33.914 -13.954 -26.348  0.00  0.00    +0.144 HD
ATOM     33  H   UNL     1      31.622 -16.342 -27.458  0.00  0.00    +0.188 HD
ENDBRANCH  27  30
ENDBRANCH  21  22
ENDBRANCH   3  21
TORSDOF 5
ENDMDL
MODEL 2
REMARK VINA RESULT:     -10.7      6.174     11.034
REMARK  Name = 447362
REMARK  5 active torsions:
REMARK  status: ('A' for Active; 'I' for Inactive)
REMARK    1  A    between atoms: N_2  and  S_8
REMARK    2  A    between atoms: N_3  and  C_21
REMARK    3  A    between atoms: S_8  and  C_13
REMARK    4  A    between atoms: C_21  and  C_22
REMARK    5  A    between atoms: C_27  and  C_30
REMARK                            x       y       z     vdW  Elec       q    Type
REMARK                         _______ _______ _______ _____ _____    ______ ____
ROOT
ATOM      1  O   UNL     1      34.978 -15.717 -20.530  0.00  0.00    -0.273 OA
ATOM      2  N   UNL     1      34.074 -15.184 -23.994  0.00  0.00    -0.144 NA
ATOM      3  N   UNL     1      35.502 -16.986 -22.398  0.00  0.00    -0.273 N 
ATOM      4  C   UNL     1      34.212 -16.578 -24.468  0.00  0.00    +0.118 C 
ATOM      5  C   UNL     1      35.478 -17.131 -23.850  0.00  0.00    +0.113 C 
ATOM      6  C   UNL     1      33.869 -15.127 -22.534  0.00  0.00    +0.181 C 
ATOM      7  C   UNL     1      34.849 -15.951 -21.736  0.00  0.00    +0.244 C 
ENDROOT
BRANCH   2   8
ATOM      8  S   UNL     1      33.050 -14.177 -24.925  0.00  0.00    +0.069 S 
ATOM      9  O   UNL     1      31.677 -14.435 -24.542  0.00  0.00    -0.152 OA
ATOM     10  O   UNL     1      33.478 -14.211 -26.308  0.00  0.00    -0.152 OA
BRANCH   8  13
ATOM     11 CL   UNL     1      33.058  -6.729 -21.571  0.00  0.00    -0.082 Cl
ATOM     12  S   UNL     1      32.276 -11.917 -23.249  0.00  0.00    -0.067 S 
ATOM     13  C   UNL     1      33.354 -12.487 -24.423  0.00  0.00    +0.152 C 
ATOM     14  C   UNL     1      34.284 -11.581 -24.803  0.00  0.00    +0.027 C 
ATOM     15  C   UNL     1      34.130 -10.333 -24.110  0.00  0.00    +0.008 C 
ATOM     16  C   UNL     1      33.056 -10.379 -23.217  0.00  0.00    +0.032 C 
ATOM     17  C   UNL     1      34.876  -9.133 -24.200  0.00  0.00    +0.001 C 
ATOM     18  C   UNL     1      32.710  -9.268 -22.423  0.00  0.00    +0.018 C 
ATOM     19  C   UNL     1      34.536  -8.029 -23.413  0.00  0.00    +0.011 C 
ATOM     20  C   UNL     1      33.464  -8.098 -22.534  0.00  0.00    +0.058 C 
ENDBRANCH   8  13
ENDBRANCH   2   8
BRANCH   3  21
ATOM     21  C   UNL     1      36.437 -17.840 -21.681  0.00  0.00    +0.120 C 
BRANCH  21  22
ATOM     22  C   UNL     1      35.697 -18.986 -21.061  0.00  0.00    -0.002 C 
ATOM     23  C   UNL     1      34.312 -19.055 -21.174  0.00  0.00    -0.003 C 
ATOM     24  C   UNL     1      36.400 -19.973 -20.376  0.00  0.00    -0.003 C 
ATOM     25  C   UNL     1      33.623 -20.122 -20.597  0.00  0.00    +0.002 C 
ATOM     26  C   UNL     1      35.711 -21.039 -19.799  0.00  0.00    +0.002 C 
ATOM     27  C   UNL     1      34.322 -21.114 -19.910  0.00  0.00    +0.031 C 
BRANCH  27  30
ATOM     28  N   UNL     1      32.497 -22.013 -18.486  0.00  0.00    -0.343 N 
ATOM     29  N   UNL     1      34.001 -23.465 -19.530  0.00  0.00    -0.285 NA
ATOM     30  C   UNL     1      33.604 -22.226 -19.306  0.00  0.00    +0.117 C 
ATOM     31  H   UNL     1      32.025 -22.780 -18.088  0.00  0.00    +0.144 HD
ATOM     32  H   UNL     1      32.186 -21.097 -18.305  0.00  0.00    +0.144 HD
ATOM     33  H   UNL     1      33.517 -24.219 -19.122  0.00  0.00    +0.188 HD
ENDBRANCH  27  30
ENDBRANCH  21  22
ENDBRANCH   3  21
TORSDOF 5
ENDMDL
MODEL 3
REMARK VINA RESULT:     -10.7      1.750      2.171
REMARK  Name = 447362
REMARK  5 active torsions:
REMARK  status: ('A' for Active; 'I' for Inactive)
REMARK    1  A    between atoms: N_2  and  S_8
REMARK    2  A    between atoms: N_3  and  C_21
REMARK    3  A    between atoms: S_8  and  C_13
REMARK    4  A    between atoms: C_21  and  C_22
REMARK    5  A    between atoms: C_27  and  C_30
REMARK                            x       y       z     vdW  Elec       q    Type
REMARK                         _______ _______ _______ _____ _____    ______ ____
ROOT
ATOM      1  O   UNL     1      37.618 -20.141 -20.550  0.00  0.00    -0.273 OA
ATOM      2  N   UNL     1      34.287 -21.165 -19.572  0.00  0.00    -0.144 NA
ATOM      3  N   UNL     1      35.568 -19.227 -21.133  0.00  0.00    -0.273 N 
ATOM      4  C   UNL     1      33.541 -20.577 -20.705  0.00  0.00    +0.118 C 
ATOM      5  C   UNL     1      34.121 -19.200 -20.949  0.00  0.00    +0.113 C 
ATOM      6  C   UNL     1      35.706 -21.379 -19.912  0.00  0.00    +0.181 C 
ATOM      7  C   UNL     1      36.383 -20.184 -20.536  0.00  0.00    +0.244 C 
ENDROOT
BRANCH   2   8
ATOM      8  S   UNL     1      33.515 -22.461 -18.763  0.00  0.00    +0.069 S 
ATOM      9  O   UNL     1      33.714 -23.670 -19.536  0.00  0.00    -0.152 OA
ATOM     10  O   UNL     1      32.200 -22.036 -18.330  0.00  0.00    -0.152 OA
BRANCH   8  13
ATOM     11 CL   UNL     1      35.983 -24.304 -11.198  0.00  0.00    -0.082 Cl
ATOM     12  S   UNL     1      33.433 -23.359 -15.988  0.00  0.00    -0.067 S 
ATOM     13  C   UNL     1      34.400 -22.745 -17.234  0.00  0.00    +0.152 C 
ATOM     14  C   UNL     1      35.695 -22.562 -16.887  0.00  0.00    +0.027 C 
ATOM     15  C   UNL     1      35.942 -22.938 -15.524  0.00  0.00    +0.008 C 
ATOM     16  C   UNL     1      34.776 -23.399 -14.907  0.00  0.00    +0.032 C 
ATOM     17  C   UNL     1      37.137 -22.910 -14.764  0.00  0.00    +0.001 C 
ATOM     18  C   UNL     1      34.773 -23.825 -13.564  0.00  0.00    +0.018 C 
ATOM     19  C   UNL     1      37.137 -23.333 -13.433  0.00  0.00    +0.011 C 
ATOM     20  C   UNL     1      35.966 -23.785 -12.840  0.00  0.00    +0.058 C 
ENDBRANCH   8  13
ENDBRANCH   2   8
BRANCH   3  21
ATOM     21  C   UNL     1      36.157 -18.065 -21.782  0.00  0.00    +0.120 C 
BRANCH  21  22
ATOM     22  C   UNL     1      35.185 -16.925 -21.750  0.00  0.00    -0.002 C 
ATOM     23  C   UNL     1      34.622 -16.464 -22.936  0.00  0.00    -0.003 C 
ATOM     24  C   UNL     1      34.851 -16.336 -20.534  0.00  0.00    -0.003 C 
ATOM     25  C   UNL     1      33.716 -15.403 -22.906  0.00  0.00    +0.002 C 
ATOM     26  C   UNL     1      33.946 -15.276 -20.504  0.00  0.00    +0.002 C 
ATOM     27  C   UNL     1      33.378 -14.809 -21.690  0.00  0.00    +0.031 C 
BRANCH  27  30
ATOM     28  N   UNL     1      32.100 -13.070 -20.462  0.00  0.00    -0.343 N 
ATOM     29  N   UNL     1      31.877 -13.281 -22.778  0.00  0.00    -0.285 NA
ATOM     30  C   UNL     1      32.435 -13.702 -21.658  0.00  0.00    +0.117 C 
ATOM     31  H   UNL     1      31.460 -12.322 -20.463  0.00  0.00    +0.144 HD
ATOM     32  H   UNL     1      32.503 -13.370 -19.616  0.00  0.00    +0.144 HD
ATOM     33  H   UNL     1      31.238 -12.532 -22.760  0.00  0.00    +0.188 HD
ENDBRANCH  27  30
ENDBRANCH  21  22
ENDBRANCH   3  21
TORSDOF 5
ENDMDL
MODEL 4
REMARK VINA RESULT:     -10.6      6.108     10.373
REMARK  Name = 447362
REMARK  5 active torsions:
REMARK  status: ('A' for Active; 'I' for Inactive)
REMARK    1  A    between atoms: N_2  and  S_8
REMARK    2  A    between atoms: N_3  and  C_21
REMARK    3  A    between atoms: S_8  and  C_13
REMARK    4  A    between atoms: C_21  and  C_22
REMARK    5  A    between atoms: C_27  and  C_30
REMARK                            x       y       z     vdW  Elec       q    Type
REMARK                         _______ _______ _______ _____ _____    ______ ____
ROOT
ATOM      1  O   UNL     1      35.118 -16.202 -20.252  0.00  0.00    -0.273 OA
ATOM      2  N   UNL     1      34.121 -15.095 -23.551  0.00  0.00    -0.144 NA
ATOM      3  N   UNL     1      35.529 -17.176 -22.316  0.00  0.00    -0.273 N 
ATOM      4  C   UNL     1      34.188 -16.400 -24.244  0.00  0.00    +0.118 C 
ATOM      5  C   UNL     1      35.450 -17.088 -23.770  0.00  0.00    +0.113 C 
ATOM      6  C   UNL     1      33.967 -15.264 -22.093  0.00  0.00    +0.181 C 
ATOM      7  C   UNL     1      34.940 -16.237 -21.474  0.00  0.00    +0.244 C 
ENDROOT
BRANCH   2   8
ATOM      8  S   UNL     1      33.108 -13.919 -24.271  0.00  0.00    +0.069 S 
ATOM      9  O   UNL     1      31.852 -14.547 -24.626  0.00  0.00    -0.152 OA
ATOM     10  O   UNL     1      33.876 -13.150 -25.228  0.00  0.00    -0.152 OA
BRANCH   8  13
ATOM     11 CL   UNL     1      31.804  -7.311 -19.651  0.00  0.00    -0.082 Cl
ATOM     12  S   UNL     1      33.048 -11.128 -23.421  0.00  0.00    -0.067 S 
ATOM     13  C   UNL     1      32.682 -12.728 -23.006  0.00  0.00    +0.152 C 
ATOM     14  C   UNL     1      32.122 -12.864 -21.782  0.00  0.00    +0.027 C 
ATOM     15  C   UNL     1      31.971 -11.601 -21.118  0.00  0.00    +0.008 C 
ATOM     16  C   UNL     1      32.443 -10.552 -21.913  0.00  0.00    +0.032 C 
ATOM     17  C   UNL     1      31.439 -11.288 -19.844  0.00  0.00    +0.001 C 
ATOM     18  C   UNL     1      32.399  -9.215 -21.470  0.00  0.00    +0.018 C 
ATOM     19  C   UNL     1      31.392  -9.964 -19.403  0.00  0.00    +0.011 C 
ATOM     20  C   UNL     1      31.868  -8.939 -20.209  0.00  0.00    +0.058 C 
ENDBRANCH   8  13
ENDBRANCH   2   8
BRANCH   3  21
ATOM     21  C   UNL     1      36.452 -18.165 -21.779  0.00  0.00    +0.120 C 
BRANCH  21  22
ATOM     22  C   UNL     1      35.682 -19.249 -21.089  0.00  0.00    -0.002 C 
ATOM     23  C   UNL     1      34.302 -19.326 -21.251  0.00  0.00    -0.003 C 
ATOM     24  C   UNL     1      36.352 -20.171 -20.290  0.00  0.00    -0.003 C 
ATOM     25  C   UNL     1      33.585 -20.336 -20.609  0.00  0.00    +0.002 C 
ATOM     26  C   UNL     1      35.635 -21.180 -19.648  0.00  0.00    +0.002 C 
ATOM     27  C   UNL     1      34.252 -21.263 -19.808  0.00  0.00    +0.031 C 
BRANCH  27  30
ATOM     28  N   UNL     1      32.393 -22.023 -18.347  0.00  0.00    -0.343 N 
ATOM     29  N   UNL     1      33.878 -23.575 -19.267  0.00  0.00    -0.285 NA
ATOM     30  C   UNL     1      33.504 -22.315 -19.136  0.00  0.00    +0.117 C 
ATOM     31  H   UNL     1      31.901 -22.751 -17.901  0.00  0.00    +0.144 HD
ATOM     32  H   UNL     1      32.099 -21.091 -18.234  0.00  0.00    +0.144 HD
ATOM     33  H   UNL     1      33.374 -24.288 -18.813  0.00  0.00    +0.188 HD
ENDBRANCH  27  30
ENDBRANCH  21  22
ENDBRANCH   3  21
TORSDOF 5
ENDMDL
MODEL 5
REMARK VINA RESULT:     -10.6      5.772     10.512
REMARK  Name = 447362
REMARK  5 active torsions:
REMARK  status: ('A' for Active; 'I' for Inactive)
REMARK    1  A    between atoms: N_2  and  S_8
REMARK    2  A    between atoms: N_3  and  C_21
REMARK    3  A    between atoms: S_8  and  C_13
REMARK    4  A    between atoms: C_21  and  C_22
REMARK    5  A    between atoms: C_27  and  C_30
REMARK                            x       y       z     vdW  Elec       q    Type
REMARK                         _______ _______ _______ _____ _____    ______ ____
ROOT
ATOM      1  O   UNL     1      35.294 -16.410 -20.489  0.00  0.00    -0.273 OA
ATOM      2  N   UNL     1      34.545 -16.148 -24.021  0.00  0.00    -0.144 NA
ATOM      3  N   UNL     1      35.764 -17.896 -22.206  0.00  0.00    -0.273 N 
ATOM      4  C   UNL     1      34.577 -17.589 -24.354  0.00  0.00    +0.118 C 
ATOM      5  C   UNL     1      35.772 -18.181 -23.637  0.00  0.00    +0.113 C 
ATOM      6  C   UNL     1      34.301 -15.932 -22.582  0.00  0.00    +0.181 C 
ATOM      7  C   UNL     1      35.182 -16.750 -21.672  0.00  0.00    +0.244 C 
ENDROOT
BRANCH   2   8
ATOM      8  S   UNL     1      33.640 -15.158 -25.083  0.00  0.00    +0.069 S 
ATOM      9  O   UNL     1      32.407 -15.842 -25.415  0.00  0.00    -0.152 OA
ATOM     10  O   UNL     1      34.519 -14.626 -26.103  0.00  0.00    -0.152 OA
BRANCH   8  13
ATOM     11 CL   UNL     1      32.344  -7.701 -22.010  0.00  0.00    -0.082 Cl
ATOM     12  S   UNL     1      33.813 -12.268 -24.717  0.00  0.00    -0.067 S 
ATOM     13  C   UNL     1      33.125 -13.712 -24.163  0.00  0.00    +0.152 C 
ATOM     14  C   UNL     1      32.290 -13.555 -23.111  0.00  0.00    +0.027 C 
ATOM     15  C   UNL     1      32.186 -12.181 -22.709  0.00  0.00    +0.008 C 
ATOM     16  C   UNL     1      32.978 -11.357 -23.514  0.00  0.00    +0.032 C 
ATOM     17  C   UNL     1      31.434 -11.580 -21.670  0.00  0.00    +0.001 C 
ATOM     18  C   UNL     1      33.038  -9.965 -23.308  0.00  0.00    +0.018 C 
ATOM     19  C   UNL     1      31.490 -10.199 -21.465  0.00  0.00    +0.011 C 
ATOM     20  C   UNL     1      32.285  -9.401 -22.276  0.00  0.00    +0.058 C 
ENDBRANCH   8  13
ENDBRANCH   2   8
BRANCH   3  21
ATOM     21  C   UNL     1      36.600 -18.750 -21.375  0.00  0.00    +0.120 C 
BRANCH  21  22
ATOM     22  C   UNL     1      35.746 -19.766 -20.681  0.00  0.00    -0.002 C 
ATOM     23  C   UNL     1      34.366 -19.740 -20.850  0.00  0.00    -0.003 C 
ATOM     24  C   UNL     1      36.340 -20.730 -19.871  0.00  0.00    -0.003 C 
ATOM     25  C   UNL     1      33.571 -20.687 -20.204  0.00  0.00    +0.002 C 
ATOM     26  C   UNL     1      35.546 -21.677 -19.225  0.00  0.00    +0.002 C 
ATOM     27  C   UNL     1      34.161 -21.656 -19.392  0.00  0.00    +0.031 C 
BRANCH  27  30
ATOM     28  N   UNL     1      32.184 -22.269 -18.020  0.00  0.00    -0.343 N 
ATOM     29  N   UNL     1      33.667 -23.919 -18.754  0.00  0.00    -0.285 NA
ATOM     30  C   UNL     1      33.332 -22.642 -18.716  0.00  0.00    +0.117 C 
ATOM     31  H   UNL     1      31.637 -22.954 -17.570  0.00  0.00    +0.144 HD
ATOM     32  H   UNL     1      31.919 -21.322 -17.978  0.00  0.00    +0.144 HD
ATOM     33  H   UNL     1      33.108 -24.589 -18.297  0.00  0.00    +0.188 HD
ENDBRANCH  27  30
ENDBRANCH  21  22
ENDBRANCH   3  21
TORSDOF 5
ENDMDL
MODEL 6
REMARK VINA RESULT:     -10.2      5.014      7.312
REMARK  Name = 447362
REMARK  5 active torsions:
REMARK  status: ('A' for Active; 'I' for Inactive)
REMARK    1  A    between atoms: N_2  and  S_8
REMARK    2  A    between atoms: N_3  and  C_21
REMARK    3  A    between atoms: S_8  and  C_13
REMARK    4  A    between atoms: C_21  and  C_22
REMARK    5  A    between atoms: C_27  and  C_30
REMARK                            x       y       z     vdW  Elec       q    Type
REMARK                         _______ _______ _______ _____ _____    ______ ____
ROOT
ATOM      1  O   UNL     1      33.004 -13.964 -20.232  0.00  0.00    -0.273 OA
ATOM      2  N   UNL     1      33.721 -15.695 -23.329  0.00  0.00    -0.144 NA
ATOM      3  N   UNL     1      32.390 -13.414 -22.399  0.00  0.00    -0.273 N 
ATOM      4  C   UNL     1      33.567 -14.551 -24.254  0.00  0.00    +0.118 C 
ATOM      5  C   UNL     1      32.339 -13.786 -23.809  0.00  0.00    +0.113 C 
ATOM      6  C   UNL     1      34.002 -15.243 -21.953  0.00  0.00    +0.181 C 
ATOM      7  C   UNL     1      33.071 -14.170 -21.448  0.00  0.00    +0.244 C 
ENDROOT
BRANCH   2   8
ATOM      8  S   UNL     1      34.688 -16.988 -23.896  0.00  0.00    +0.069 S 
ATOM      9  O   UNL     1      36.051 -16.519 -24.034  0.00  0.00    -0.152 OA
ATOM     10  O   UNL     1      33.997 -17.661 -24.976  0.00  0.00    -0.152 OA
BRANCH   8  13
ATOM     11 CL   UNL     1      36.711 -22.167 -17.912  0.00  0.00    -0.082 Cl
ATOM     12  S   UNL     1      36.298 -18.422 -21.930  0.00  0.00    -0.067 S 
ATOM     13  C   UNL     1      34.757 -18.218 -22.598  0.00  0.00    +0.152 C 
ATOM     14  C   UNL     1      33.810 -19.014 -22.050  0.00  0.00    +0.027 C 
ATOM     15  C   UNL     1      34.348 -19.854 -21.018  0.00  0.00    +0.008 C 
ATOM     16  C   UNL     1      35.717 -19.630 -20.846  0.00  0.00    +0.032 C 
ATOM     17  C   UNL     1      33.718 -20.821 -20.197  0.00  0.00    +0.001 C 
ATOM     18  C   UNL     1      36.464 -20.342 -19.886  0.00  0.00    +0.018 C 
ATOM     19  C   UNL     1      34.456 -21.527 -19.244  0.00  0.00    +0.011 C 
ATOM     20  C   UNL     1      35.815 -21.289 -19.092  0.00  0.00    +0.058 C 
ENDBRANCH   8  13
ENDBRANCH   2   8
BRANCH   3  21
ATOM     21  C   UNL     1      31.500 -12.341 -21.983  0.00  0.00    +0.120 C 
BRANCH  21  22
ATOM     22  C   UNL     1      32.065 -11.023 -22.417  0.00  0.00    -0.002 C 
ATOM     23  C   UNL     1      31.593  -9.847 -21.844  0.00  0.00    -0.003 C 
ATOM     24  C   UNL     1      33.059 -10.985 -23.391  0.00  0.00    -0.003 C 
ATOM     25  C   UNL     1      32.119  -8.619 -22.248  0.00  0.00    +0.002 C 
ATOM     26  C   UNL     1      33.585  -9.758 -23.795  0.00  0.00    +0.002 C 
ATOM     27  C   UNL     1      33.116  -8.575 -23.224  0.00  0.00    +0.031 C 
BRANCH  27  30
ATOM     28  N   UNL     1      32.833  -6.230 -23.989  0.00  0.00    -0.343 N 
ATOM     29  N   UNL     1      34.972  -7.131 -23.715  0.00  0.00    -0.285 NA
ATOM     30  C   UNL     1      33.663  -7.296 -23.647  0.00  0.00    +0.117 C 
ATOM     31  H   UNL     1      33.225  -5.372 -24.273  0.00  0.00    +0.144 HD
ATOM     32  H   UNL     1      31.855  -6.333 -23.948  0.00  0.00    +0.144 HD
ATOM     33  H   UNL     1      35.345  -6.265 -24.002  0.00  0.00    +0.188 HD
ENDBRANCH  27  30
ENDBRANCH  21  22
ENDBRANCH   3  21
TORSDOF 5
ENDMDL
MODEL 7
REMARK VINA RESULT:     -10.0      7.402     10.622
REMARK  Name = 447362
REMARK  5 active torsions:
REMARK  status: ('A' for Active; 'I' for Inactive)
REMARK    1  A    between atoms: N_2  and  S_8
REMARK    2  A    between atoms: N_3  and  C_21
REMARK    3  A    between atoms: S_8  and  C_13
REMARK    4  A    between atoms: C_21  and  C_22
REMARK    5  A    between atoms: C_27  and  C_30
REMARK                            x       y       z     vdW  Elec       q    Type
REMARK                         _______ _______ _______ _____ _____    ______ ____
ROOT
ATOM      1  O   UNL     1      36.061  -9.709 -26.177  0.00  0.00    -0.273 OA
ATOM      2  N   UNL     1      33.817 -12.468 -25.501  0.00  0.00    -0.144 NA
ATOM      3  N   UNL     1      34.595 -10.012 -24.406  0.00  0.00    -0.273 N 
ATOM      4  C   UNL     1      32.854 -11.753 -24.637  0.00  0.00    +0.118 C 
ATOM      5  C   UNL     1      33.663 -10.883 -23.698  0.00  0.00    +0.113 C 
ATOM      6  C   UNL     1      34.567 -11.533 -26.362  0.00  0.00    +0.181 C 
ATOM      7  C   UNL     1      35.159 -10.353 -25.632  0.00  0.00    +0.244 C 
ENDROOT
BRANCH   2   8
ATOM      8  S   UNL     1      33.224 -13.874 -26.276  0.00  0.00    +0.069 S 
ATOM      9  O   UNL     1      33.872 -13.999 -27.565  0.00  0.00    -0.152 OA
ATOM     10  O   UNL     1      31.784 -13.923 -26.134  0.00  0.00    -0.152 OA
BRANCH   8  13
ATOM     11 CL   UNL     1      36.093 -19.133 -20.722  0.00  0.00    -0.082 Cl
ATOM     12  S   UNL     1      34.301 -14.907 -23.768  0.00  0.00    -0.067 S 
ATOM     13  C   UNL     1      33.796 -15.287 -25.338  0.00  0.00    +0.152 C 
ATOM     14  C   UNL     1      33.899 -16.600 -25.647  0.00  0.00    +0.027 C 
ATOM     15  C   UNL     1      34.420 -17.368 -24.553  0.00  0.00    +0.008 C 
ATOM     16  C   UNL     1      34.687 -16.557 -23.446  0.00  0.00    +0.032 C 
ATOM     17  C   UNL     1      34.685 -18.755 -24.446  0.00  0.00    +0.001 C 
ATOM     18  C   UNL     1      35.207 -17.090 -22.251  0.00  0.00    +0.018 C 
ATOM     19  C   UNL     1      35.200 -19.287 -23.261  0.00  0.00    +0.011 C 
ATOM     20  C   UNL     1      35.458 -18.462 -22.176  0.00  0.00    +0.058 C 
ENDBRANCH   8  13
ENDBRANCH   2   8
BRANCH   3  21
ATOM     21  C   UNL     1      35.096  -8.865 -23.663  0.00  0.00    +0.120 C 
BRANCH  21  22
ATOM     22  C   UNL     1      34.029  -7.816 -23.580  0.00  0.00    -0.002 C 
ATOM     23  C   UNL     1      33.801  -6.976 -24.665  0.00  0.00    -0.003 C 
ATOM     24  C   UNL     1      33.275  -7.689 -22.417  0.00  0.00    -0.003 C 
ATOM     25  C   UNL     1      32.807  -5.999 -24.587  0.00  0.00    +0.002 C 
ATOM     26  C   UNL     1      32.282  -6.712 -22.339  0.00  0.00    +0.002 C 
ATOM     27  C   UNL     1      32.048  -5.868 -23.424  0.00  0.00    +0.031 C 
BRANCH  27  30
ATOM     28  N   UNL     1      30.430  -4.504 -22.124  0.00  0.00    -0.343 N 
ATOM     29  N   UNL     1      30.609  -4.231 -24.438  0.00  0.00    -0.285 NA
ATOM     30  C   UNL     1      31.014  -4.848 -23.342  0.00  0.00    +0.117 C 
ATOM     31  H   UNL     1      29.732  -3.811 -22.091  0.00  0.00    +0.144 HD
ATOM     32  H   UNL     1      30.716  -4.954 -21.296  0.00  0.00    +0.144 HD
ATOM     33  H   UNL     1      29.909  -3.541 -24.385  0.00  0.00    +0.188 HD
ENDBRANCH  27  30
ENDBRANCH  21  22
ENDBRANCH   3  21
TORSDOF 5
ENDMDL
MODEL 8
REMARK VINA RESULT:      -9.9      7.441     12.046
REMARK  Name = 447362
REMARK  5 active torsions:
REMARK  status: ('A' for Active; 'I' for Inactive)
REMARK    1  A    between atoms: N_2  and  S_8
REMARK    2  A    between atoms: N_3  and  C_21
REMARK    3  A    between atoms: S_8  and  C_13
REMARK    4  A    between atoms: C_21  and  C_22
REMARK    5  A    between atoms: C_27  and  C_30
REMARK                            x       y       z     vdW  Elec       q    Type
REMARK                         _______ _______ _______ _____ _____    ______ ____
ROOT
ATOM      1  O   UNL     1      34.921 -15.539 -20.205  0.00  0.00    -0.273 OA
ATOM      2  N   UNL     1      32.806 -13.163 -21.932  0.00  0.00    -0.144 NA
ATOM      3  N   UNL     1      34.319 -15.462 -22.442  0.00  0.00    -0.273 N 
ATOM      4  C   UNL     1      32.415 -14.016 -23.074  0.00  0.00    +0.118 C 
ATOM      5  C   UNL     1      33.661 -14.744 -23.529  0.00  0.00    +0.113 C 
ATOM      6  C   UNL     1      33.245 -13.972 -20.778  0.00  0.00    +0.181 C 
ATOM      7  C   UNL     1      34.253 -15.042 -21.117  0.00  0.00    +0.244 C 
ENDROOT
BRANCH   2   8
ATOM      8  S   UNL     1      31.745 -11.870 -21.568  0.00  0.00    +0.069 S 
ATOM      9  O   UNL     1      31.887 -11.537 -20.165  0.00  0.00    -0.152 OA
ATOM     10  O   UNL     1      30.453 -12.132 -22.166  0.00  0.00    -0.152 OA
BRANCH   8  13
ATOM     11 CL   UNL     1      32.790  -4.710 -25.358  0.00  0.00    -0.082 Cl
ATOM     12  S   UNL     1      31.154  -9.240 -22.685  0.00  0.00    -0.067 S 
ATOM     13  C   UNL     1      32.337 -10.426 -22.442  0.00  0.00    +0.152 C 
ATOM     14  C   UNL     1      33.551 -10.102 -22.944  0.00  0.00    +0.027 C 
ATOM     15  C   UNL     1      33.545  -8.812 -23.572  0.00  0.00    +0.008 C 
ATOM     16  C   UNL     1      32.281  -8.220 -23.501  0.00  0.00    +0.032 C 
ATOM     17  C   UNL     1      34.584  -8.096 -24.215  0.00  0.00    +0.001 C 
ATOM     18  C   UNL     1      32.031  -6.948 -24.052  0.00  0.00    +0.018 C 
ATOM     19  C   UNL     1      34.340  -6.834 -24.761  0.00  0.00    +0.011 C 
ATOM     20  C   UNL     1      33.075  -6.267 -24.680  0.00  0.00    +0.058 C 
ENDBRANCH   8  13
ENDBRANCH   2   8
BRANCH   3  21
ATOM     21  C   UNL     1      35.247 -16.513 -22.833  0.00  0.00    +0.120 C 
BRANCH  21  22
ATOM     22  C   UNL     1      34.958 -17.756 -22.048  0.00  0.00    -0.002 C 
ATOM     23  C   UNL     1      33.652 -18.225 -21.953  0.00  0.00    -0.003 C 
ATOM     24  C   UNL     1      35.999 -18.432 -21.418  0.00  0.00    -0.003 C 
ATOM     25  C   UNL     1      33.383 -19.383 -21.222  0.00  0.00    +0.002 C 
ATOM     26  C   UNL     1      35.730 -19.589 -20.687  0.00  0.00    +0.002 C 
ATOM     27  C   UNL     1      34.422 -20.065 -20.589  0.00  0.00    +0.031 C 
BRANCH  27  30
ATOM     28  N   UNL     1      32.849 -21.578 -19.405  0.00  0.00    -0.343 N 
ATOM     29  N   UNL     1      35.125 -22.096 -19.515  0.00  0.00    -0.285 NA
ATOM     30  C   UNL     1      34.142 -21.270 -19.825  0.00  0.00    +0.117 C 
ATOM     31  H   UNL     1      32.682 -22.400 -18.889  0.00  0.00    +0.144 HD
ATOM     32  H   UNL     1      32.103 -20.974 -19.623  0.00  0.00    +0.144 HD
ATOM     33  H   UNL     1      34.938 -22.912 -18.997  0.00  0.00    +0.188 HD
ENDBRANCH  27  30
ENDBRANCH  21  22
ENDBRANCH   3  21
TORSDOF 5
ENDMDL
MODEL 9
REMARK VINA RESULT:      -9.9      4.881      6.973
REMARK  Name = 447362
REMARK  5 active torsions:
REMARK  status: ('A' for Active; 'I' for Inactive)
REMARK    1  A    between atoms: N_2  and  S_8
REMARK    2  A    between atoms: N_3  and  C_21
REMARK    3  A    between atoms: S_8  and  C_13
REMARK    4  A    between atoms: C_21  and  C_22
REMARK    5  A    between atoms: C_27  and  C_30
REMARK                            x       y       z     vdW  Elec       q    Type
REMARK                         _______ _______ _______ _____ _____    ______ ____
ROOT
ATOM      1  O   UNL     1      32.994 -14.259 -19.971  0.00  0.00    -0.273 OA
ATOM      2  N   UNL     1      33.866 -15.922 -23.066  0.00  0.00    -0.144 NA
ATOM      3  N   UNL     1      32.449 -13.688 -22.151  0.00  0.00    -0.273 N 
ATOM      4  C   UNL     1      33.720 -14.767 -23.978  0.00  0.00    +0.118 C 
ATOM      5  C   UNL     1      32.458 -14.038 -23.568  0.00  0.00    +0.113 C 
ATOM      6  C   UNL     1      34.086 -15.486 -21.673  0.00  0.00    +0.181 C 
ATOM      7  C   UNL     1      33.111 -14.443 -21.187  0.00  0.00    +0.244 C 
ENDROOT
BRANCH   2   8
ATOM      8  S   UNL     1      34.884 -17.183 -23.616  0.00  0.00    +0.069 S 
ATOM      9  O   UNL     1      36.242 -16.683 -23.685  0.00  0.00    -0.152 OA
ATOM     10  O   UNL     1      34.255 -17.847 -24.739  0.00  0.00    -0.152 OA
BRANCH   8  13
ATOM     11 CL   UNL     1      33.310 -22.888 -17.986  0.00  0.00    -0.082 Cl
ATOM     12  S   UNL     1      33.394 -19.009 -21.897  0.00  0.00    -0.067 S 
ATOM     13  C   UNL     1      34.923 -18.439 -22.342  0.00  0.00    +0.152 C 
ATOM     14  C   UNL     1      35.944 -19.018 -21.670  0.00  0.00    +0.027 C 
ATOM     15  C   UNL     1      35.479 -19.992 -20.724  0.00  0.00    +0.008 C 
ATOM     16  C   UNL     1      34.084 -20.091 -20.745  0.00  0.00    +0.032 C 
ATOM     17  C   UNL     1      36.196 -20.821 -19.828  0.00  0.00    +0.001 C 
ATOM     18  C   UNL     1      33.397 -20.985 -19.900  0.00  0.00    +0.018 C 
ATOM     19  C   UNL     1      35.517 -21.709 -18.989  0.00  0.00    +0.011 C 
ATOM     20  C   UNL     1      34.132 -21.788 -19.026  0.00  0.00    +0.058 C 
ENDBRANCH   8  13
ENDBRANCH   2   8
BRANCH   3  21
ATOM     21  C   UNL     1      31.518 -12.642 -21.752  0.00  0.00    +0.120 C 
BRANCH  21  22
ATOM     22  C   UNL     1      32.062 -11.306 -22.156  0.00  0.00    -0.002 C 
ATOM     23  C   UNL     1      32.943 -11.215 -23.229  0.00  0.00    -0.003 C 
ATOM     24  C   UNL     1      31.681 -10.165 -21.455  0.00  0.00    -0.003 C 
ATOM     25  C   UNL     1      33.448  -9.969 -23.605  0.00  0.00    +0.002 C 
ATOM     26  C   UNL     1      32.186  -8.921 -21.831  0.00  0.00    +0.002 C 
ATOM     27  C   UNL     1      33.070  -8.823 -22.906  0.00  0.00    +0.031 C 
BRANCH  27  30
ATOM     28  N   UNL     1      32.776  -6.402 -23.378  0.00  0.00    -0.343 N 
ATOM     29  N   UNL     1      34.881  -7.397 -23.586  0.00  0.00    -0.285 NA
ATOM     30  C   UNL     1      33.598  -7.525 -23.297  0.00  0.00    +0.117 C 
ATOM     31  H   UNL     1      33.155  -5.533 -23.644  0.00  0.00    +0.144 HD
ATOM     32  H   UNL     1      31.817  -6.478 -23.169  0.00  0.00    +0.144 HD
ATOM     33  H   UNL     1      35.241  -6.520 -23.851  0.00  0.00    +0.188 HD
ENDBRANCH  27  30
ENDBRANCH  21  22
ENDBRANCH   3  21
TORSDOF 5
ENDMDL
