MODEL 1
REMARK VINA RESULT:      -8.4      0.000      0.000
REMARK  Name = 107970
REMARK  15 active torsions:
REMARK  status: ('A' for Active; 'I' for Inactive)
REMARK    1  A    between atoms: C_1  and  C_7
REMARK    2  A    between atoms: C_2  and  C_20
REMARK    3  A    between atoms: C_7  and  C_8
REMARK    4  A    between atoms: C_8  and  C_9
REMARK    5  A    between atoms: C_9  and  N_10
REMARK    6  A    between atoms: C_9  and  C_14
REMARK    7  A    between atoms: C_9  and  C_17
REMARK    8  A    between atoms: C_14  and  O_15
REMARK    9  A    between atoms: C_17  and  O_18
REMARK   10  A    between atoms: C_20  and  C_21
REMARK   11  A    between atoms: C_21  and  C_22
REMARK   12  A    between atoms: C_22  and  C_23
REMARK   13  A    between atoms: C_23  and  C_24
REMARK   14  A    between atoms: C_24  and  C_25
REMARK   15  A    between atoms: C_25  and  C_26
REMARK                            x       y       z     vdW  Elec       q    Type
REMARK                         _______ _______ _______ _____ _____    ______ ____
ROOT
ATOM      1  C   UNL     1      36.266 -22.693 -16.140  0.00  0.00    -0.022 C 
ATOM      2  C   UNL     1      35.269 -21.929 -18.611  0.00  0.00    -0.022 C 
ATOM      3  C   UNL     1      37.063 -21.954 -17.016  0.00  0.00    -0.005 C 
ATOM      4  C   UNL     1      34.969 -23.048 -16.507  0.00  0.00    -0.005 C 
ATOM      5  C   UNL     1      36.560 -21.570 -18.258  0.00  0.00    -0.005 C 
ATOM      6  C   UNL     1      34.467 -22.664 -17.751  0.00  0.00    -0.005 C 
ENDROOT
BRANCH   1   7
ATOM      7  C   UNL     1      36.802 -23.105 -14.810  0.00  0.00    +0.024 C 
BRANCH   7   8
ATOM      8  C   UNL     1      37.845 -24.236 -14.931  0.00  0.00    -0.011 C 
BRANCH   8   9
ATOM      9  C   UNL     1      37.451 -25.589 -14.276  0.00  0.00    +0.006 C 
BRANCH   9  10
ATOM     10  N   UNL     1      38.636 -26.459 -14.211  0.00  0.00    +0.386 N 
ATOM     11  H   UNL     1      39.435 -25.920 -13.875  0.00  0.00    -0.089 HD
ATOM     12  H   UNL     1      38.839 -26.825 -15.140  0.00  0.00    -0.089 HD
ATOM     13  H   UNL     1      38.453 -27.233 -13.572  0.00  0.00    -0.089 HD
ENDBRANCH   9  10
BRANCH   9  14
ATOM     14  C   UNL     1      36.929 -25.340 -12.839  0.00  0.00    +0.120 C 
BRANCH  14  15
ATOM     15  O   UNL     1      36.851 -26.539 -12.079  0.00  0.00    -0.384 OA
ATOM     16  H   UNL     1      37.605 -27.110 -12.299  0.00  0.00    +0.210 HD
ENDBRANCH  14  15
ENDBRANCH   9  14
BRANCH   9  17
ATOM     17  C   UNL     1      36.373 -26.344 -15.080  0.00  0.00    +0.120 C 
BRANCH  17  18
ATOM     18  O   UNL     1      36.971 -27.131 -16.104  0.00  0.00    -0.384 OA
ATOM     19  H   UNL     1      36.280 -27.466 -16.698  0.00  0.00    +0.210 HD
ENDBRANCH  17  18
ENDBRANCH   9  17
ENDBRANCH   8   9
ENDBRANCH   7   8
ENDBRANCH   1   7
BRANCH   2  20
ATOM     20  C   UNL     1      34.727 -21.514 -19.956  0.00  0.00    +0.026 C 
BRANCH  20  21
ATOM     21  C   UNL     1      33.314 -20.938 -19.840  0.00  0.00    +0.005 C 
BRANCH  21  22
ATOM     22  C   UNL     1      33.089 -19.696 -20.706  0.00  0.00    +0.000 C 
BRANCH  22  23
ATOM     23  C   UNL     1      34.354 -19.002 -21.219  0.00  0.00    +0.000 C 
BRANCH  23  24
ATOM     24  C   UNL     1      34.668 -19.311 -22.684  0.00  0.00    +0.000 C 
BRANCH  24  25
ATOM     25  C   UNL     1      35.634 -18.279 -23.273  0.00  0.00    +0.000 C 
BRANCH  25  26
ATOM     26  C   UNL     1      34.905 -16.989 -23.652  0.00  0.00    +0.000 C 
ATOM     27  C   UNL     1      34.678 -16.898 -25.152  0.00  0.00    +0.000 C 
ENDBRANCH  25  26
ENDBRANCH  24  25
ENDBRANCH  23  24
ENDBRANCH  22  23
ENDBRANCH  21  22
ENDBRANCH  20  21
ENDBRANCH   2  20
TORSDOF 15
ENDMDL
MODEL 2
REMARK VINA RESULT:      -8.4      1.394      1.916
REMARK  Name = 107970
REMARK  15 active torsions:
REMARK  status: ('A' for Active; 'I' for Inactive)
REMARK    1  A    between atoms: C_1  and  C_7
REMARK    2  A    between atoms: C_2  and  C_20
REMARK    3  A    between atoms: C_7  and  C_8
REMARK    4  A    between atoms: C_8  and  C_9
REMARK    5  A    between atoms: C_9  and  N_10
REMARK    6  A    between atoms: C_9  and  C_14
REMARK    7  A    between atoms: C_9  and  C_17
REMARK    8  A    between atoms: C_14  and  O_15
REMARK    9  A    between atoms: C_17  and  O_18
REMARK   10  A    between atoms: C_20  and  C_21
REMARK   11  A    between atoms: C_21  and  C_22
REMARK   12  A    between atoms: C_22  and  C_23
REMARK   13  A    between atoms: C_23  and  C_24
REMARK   14  A    between atoms: C_24  and  C_25
REMARK   15  A    between atoms: C_25  and  C_26
REMARK                            x       y       z     vdW  Elec       q    Type
REMARK                         _______ _______ _______ _____ _____    ______ ____
ROOT
ATOM      1  C   UNL     1      36.249 -22.642 -16.367  0.00  0.00    -0.022 C 
ATOM      2  C   UNL     1      34.652 -22.222 -18.594  0.00  0.00    -0.022 C 
ATOM      3  C   UNL     1      34.953 -23.160 -16.405  0.00  0.00    -0.005 C 
ATOM      4  C   UNL     1      36.740 -21.913 -17.448  0.00  0.00    -0.005 C 
ATOM      5  C   UNL     1      34.151 -22.948 -17.526  0.00  0.00    -0.005 C 
ATOM      6  C   UNL     1      35.937 -21.701 -18.569  0.00  0.00    -0.005 C 
ENDROOT
BRANCH   1   7
ATOM      7  C   UNL     1      37.108 -22.868 -15.168  0.00  0.00    +0.024 C 
BRANCH   7   8
ATOM      8  C   UNL     1      36.651 -24.096 -14.352  0.00  0.00    -0.011 C 
BRANCH   8   9
ATOM      9  C   UNL     1      37.642 -25.292 -14.321  0.00  0.00    +0.006 C 
BRANCH   9  10
ATOM     10  N   UNL     1      38.893 -24.902 -14.990  0.00  0.00    +0.386 N 
ATOM     11  H   UNL     1      38.715 -24.756 -15.984  0.00  0.00    -0.089 HD
ATOM     12  H   UNL     1      39.585 -25.641 -14.873  0.00  0.00    -0.089 HD
ATOM     13  H   UNL     1      39.244 -24.038 -14.576  0.00  0.00    -0.089 HD
ENDBRANCH   9  10
BRANCH   9  14
ATOM     14  C   UNL     1      37.952 -25.672 -12.852  0.00  0.00    +0.120 C 
BRANCH  14  15
ATOM     15  O   UNL     1      36.921 -26.460 -12.270  0.00  0.00    -0.384 OA
ATOM     16  H   UNL     1      36.261 -26.679 -12.947  0.00  0.00    +0.210 HD
ENDBRANCH  14  15
ENDBRANCH   9  14
BRANCH   9  17
ATOM     17  C   UNL     1      37.097 -26.532 -15.058  0.00  0.00    +0.120 C 
BRANCH  17  18
ATOM     18  O   UNL     1      35.675 -26.554 -15.018  0.00  0.00    -0.384 OA
ATOM     19  H   UNL     1      35.334 -25.652 -15.129  0.00  0.00    +0.210 HD
ENDBRANCH  17  18
ENDBRANCH   9  17
ENDBRANCH   8   9
ENDBRANCH   7   8
ENDBRANCH   1   7
BRANCH   2  20
ATOM     20  C   UNL     1      33.783 -21.992 -19.805  0.00  0.00    +0.026 C 
BRANCH  20  21
ATOM     21  C   UNL     1      32.986 -20.691 -19.687  0.00  0.00    +0.005 C 
BRANCH  21  22
ATOM     22  C   UNL     1      33.288 -19.687 -20.802  0.00  0.00    +0.000 C 
BRANCH  22  23
ATOM     23  C   UNL     1      34.737 -19.657 -21.299  0.00  0.00    +0.000 C 
BRANCH  23  24
ATOM     24  C   UNL     1      35.383 -18.272 -21.211  0.00  0.00    +0.000 C 
BRANCH  24  25
ATOM     25  C   UNL     1      34.362 -17.166 -21.486  0.00  0.00    +0.000 C 
BRANCH  25  26
ATOM     26  C   UNL     1      34.673 -15.908 -20.676  0.00  0.00    +0.000 C 
ATOM     27  C   UNL     1      33.545 -14.893 -20.766  0.00  0.00    +0.000 C 
ENDBRANCH  25  26
ENDBRANCH  24  25
ENDBRANCH  23  24
ENDBRANCH  22  23
ENDBRANCH  21  22
ENDBRANCH  20  21
ENDBRANCH   2  20
TORSDOF 15
ENDMDL
MODEL 3
REMARK VINA RESULT:      -8.3      1.202      1.587
REMARK  Name = 107970
REMARK  15 active torsions:
REMARK  status: ('A' for Active; 'I' for Inactive)
REMARK    1  A    between atoms: C_1  and  C_7
REMARK    2  A    between atoms: C_2  and  C_20
REMARK    3  A    between atoms: C_7  and  C_8
REMARK    4  A    between atoms: C_8  and  C_9
REMARK    5  A    between atoms: C_9  and  N_10
REMARK    6  A    between atoms: C_9  and  C_14
REMARK    7  A    between atoms: C_9  and  C_17
REMARK    8  A    between atoms: C_14  and  O_15
REMARK    9  A    between atoms: C_17  and  O_18
REMARK   10  A    between atoms: C_20  and  C_21
REMARK   11  A    between atoms: C_21  and  C_22
REMARK   12  A    between atoms: C_22  and  C_23
REMARK   13  A    between atoms: C_23  and  C_24
REMARK   14  A    between atoms: C_24  and  C_25
REMARK   15  A    between atoms: C_25  and  C_26
REMARK                            x       y       z     vdW  Elec       q    Type
REMARK                         _______ _______ _______ _____ _____    ______ ____
ROOT
ATOM      1  C   UNL     1      35.549 -23.178 -15.810  0.00  0.00    -0.022 C 
ATOM      2  C   UNL     1      35.108 -22.143 -18.344  0.00  0.00    -0.022 C 
ATOM      3  C   UNL     1      36.556 -22.458 -16.455  0.00  0.00    -0.005 C 
ATOM      4  C   UNL     1      34.322 -23.377 -16.439  0.00  0.00    -0.005 C 
ATOM      5  C   UNL     1      36.334 -21.938 -17.729  0.00  0.00    -0.005 C 
ATOM      6  C   UNL     1      34.100 -22.857 -17.715  0.00  0.00    -0.005 C 
ENDROOT
BRANCH   1   7
ATOM      7  C   UNL     1      35.786 -23.734 -14.446  0.00  0.00    +0.024 C 
BRANCH   7   8
ATOM      8  C   UNL     1      37.290 -23.818 -14.109  0.00  0.00    -0.011 C 
BRANCH   8   9
ATOM      9  C   UNL     1      37.890 -25.250 -14.053  0.00  0.00    +0.006 C 
BRANCH   9  10
ATOM     10  N   UNL     1      38.137 -25.618 -12.650  0.00  0.00    +0.386 N 
ATOM     11  H   UNL     1      38.843 -26.353 -12.610  0.00  0.00    -0.089 HD
ATOM     12  H   UNL     1      37.271 -25.954 -12.230  0.00  0.00    -0.089 HD
ATOM     13  H   UNL     1      38.468 -24.799 -12.138  0.00  0.00    -0.089 HD
ENDBRANCH   9  10
BRANCH   9  14
ATOM     14  C   UNL     1      36.890 -26.259 -14.671  0.00  0.00    +0.120 C 
BRANCH  14  15
ATOM     15  O   UNL     1      37.332 -26.754 -15.928  0.00  0.00    -0.384 OA
ATOM     16  H   UNL     1      37.036 -27.672 -16.036  0.00  0.00    +0.210 HD
ENDBRANCH  14  15
ENDBRANCH   9  14
BRANCH   9  17
ATOM     17  C   UNL     1      39.237 -25.357 -14.796  0.00  0.00    +0.120 C 
BRANCH  17  18
ATOM     18  O   UNL     1      39.834 -26.629 -14.573  0.00  0.00    -0.384 OA
ATOM     19  H   UNL     1      39.398 -27.292 -15.132  0.00  0.00    +0.210 HD
ENDBRANCH  17  18
ENDBRANCH   9  17
ENDBRANCH   8   9
ENDBRANCH   7   8
ENDBRANCH   1   7
BRANCH   2  20
ATOM     20  C   UNL     1      34.869 -21.581 -19.723  0.00  0.00    +0.026 C 
BRANCH  20  21
ATOM     21  C   UNL     1      33.486 -20.934 -19.834  0.00  0.00    +0.005 C 
BRANCH  21  22
ATOM     22  C   UNL     1      33.416 -19.823 -20.885  0.00  0.00    +0.000 C 
BRANCH  22  23
ATOM     23  C   UNL     1      34.715 -19.047 -21.123  0.00  0.00    +0.000 C 
BRANCH  23  24
ATOM     24  C   UNL     1      34.670 -18.146 -22.359  0.00  0.00    +0.000 C 
BRANCH  24  25
ATOM     25  C   UNL     1      35.200 -18.876 -23.596  0.00  0.00    +0.000 C 
BRANCH  25  26
ATOM     26  C   UNL     1      34.390 -18.519 -24.842  0.00  0.00    +0.000 C 
ATOM     27  C   UNL     1      34.591 -17.066 -25.240  0.00  0.00    +0.000 C 
ENDBRANCH  25  26
ENDBRANCH  24  25
ENDBRANCH  23  24
ENDBRANCH  22  23
ENDBRANCH  21  22
ENDBRANCH  20  21
ENDBRANCH   2  20
TORSDOF 15
ENDMDL
MODEL 4
REMARK VINA RESULT:      -8.1      5.735      9.620
REMARK  Name = 107970
REMARK  15 active torsions:
REMARK  status: ('A' for Active; 'I' for Inactive)
REMARK    1  A    between atoms: C_1  and  C_7
REMARK    2  A    between atoms: C_2  and  C_20
REMARK    3  A    between atoms: C_7  and  C_8
REMARK    4  A    between atoms: C_8  and  C_9
REMARK    5  A    between atoms: C_9  and  N_10
REMARK    6  A    between atoms: C_9  and  C_14
REMARK    7  A    between atoms: C_9  and  C_17
REMARK    8  A    between atoms: C_14  and  O_15
REMARK    9  A    between atoms: C_17  and  O_18
REMARK   10  A    between atoms: C_20  and  C_21
REMARK   11  A    between atoms: C_21  and  C_22
REMARK   12  A    between atoms: C_22  and  C_23
REMARK   13  A    between atoms: C_23  and  C_24
REMARK   14  A    between atoms: C_24  and  C_25
REMARK   15  A    between atoms: C_25  and  C_26
REMARK                            x       y       z     vdW  Elec       q    Type
REMARK                         _______ _______ _______ _____ _____    ______ ____
ROOT
ATOM      1  C   UNL     1      34.889 -20.575 -20.151  0.00  0.00    -0.022 C 
ATOM      2  C   UNL     1      33.855 -22.458 -18.399  0.00  0.00    -0.022 C 
ATOM      3  C   UNL     1      33.508 -20.755 -20.055  0.00  0.00    -0.005 C 
ATOM      4  C   UNL     1      35.749 -21.342 -19.367  0.00  0.00    -0.005 C 
ATOM      5  C   UNL     1      32.989 -21.701 -19.173  0.00  0.00    -0.005 C 
ATOM      6  C   UNL     1      35.229 -22.290 -18.485  0.00  0.00    -0.005 C 
ENDROOT
BRANCH   1   7
ATOM      7  C   UNL     1      35.445 -19.561 -21.094  0.00  0.00    +0.024 C 
BRANCH   7   8
ATOM      8  C   UNL     1      34.410 -19.128 -22.154  0.00  0.00    -0.011 C 
BRANCH   8   9
ATOM      9  C   UNL     1      34.941 -18.185 -23.269  0.00  0.00    +0.006 C 
BRANCH   9  10
ATOM     10  N   UNL     1      36.412 -18.214 -23.268  0.00  0.00    +0.386 N 
ATOM     11  H   UNL     1      36.745 -18.640 -24.133  0.00  0.00    -0.089 HD
ATOM     12  H   UNL     1      36.740 -18.759 -22.472  0.00  0.00    -0.089 HD
ATOM     13  H   UNL     1      36.770 -17.260 -23.198  0.00  0.00    -0.089 HD
ENDBRANCH   9  10
BRANCH   9  14
ATOM     14  C   UNL     1      34.429 -18.670 -24.648  0.00  0.00    +0.120 C 
BRANCH  14  15
ATOM     15  O   UNL     1      34.505 -17.652 -25.639  0.00  0.00    -0.384 OA
ATOM     16  H   UNL     1      35.121 -17.926 -26.337  0.00  0.00    +0.210 HD
ENDBRANCH  14  15
ENDBRANCH   9  14
BRANCH   9  17
ATOM     17  C   UNL     1      34.513 -16.719 -23.059  0.00  0.00    +0.120 C 
BRANCH  17  18
ATOM     18  O   UNL     1      35.473 -15.831 -23.619  0.00  0.00    -0.384 OA
ATOM     19  H   UNL     1      35.450 -14.987 -23.140  0.00  0.00    +0.210 HD
ENDBRANCH  17  18
ENDBRANCH   9  17
ENDBRANCH   8   9
ENDBRANCH   7   8
ENDBRANCH   1   7
BRANCH   2  20
ATOM     20  C   UNL     1      33.293 -23.483 -17.446  0.00  0.00    +0.026 C 
BRANCH  20  21
ATOM     21  C   UNL     1      33.662 -23.165 -15.995  0.00  0.00    +0.005 C 
BRANCH  21  22
ATOM     22  C   UNL     1      32.563 -23.530 -14.994  0.00  0.00    +0.000 C 
BRANCH  22  23
ATOM     23  C   UNL     1      31.199 -23.880 -15.596  0.00  0.00    +0.000 C 
BRANCH  23  24
ATOM     24  C   UNL     1      30.302 -24.682 -14.651  0.00  0.00    +0.000 C 
BRANCH  24  25
ATOM     25  C   UNL     1      28.844 -24.657 -15.117  0.00  0.00    +0.000 C 
BRANCH  25  26
ATOM     26  C   UNL     1      28.647 -23.676 -16.273  0.00  0.00    +0.000 C 
ATOM     27  C   UNL     1      27.686 -22.559 -15.899  0.00  0.00    +0.000 C 
ENDBRANCH  25  26
ENDBRANCH  24  25
ENDBRANCH  23  24
ENDBRANCH  22  23
ENDBRANCH  21  22
ENDBRANCH  20  21
ENDBRANCH   2  20
TORSDOF 15
ENDMDL
MODEL 5
REMARK VINA RESULT:      -8.1      5.666      9.438
REMARK  Name = 107970
REMARK  15 active torsions:
REMARK  status: ('A' for Active; 'I' for Inactive)
REMARK    1  A    between atoms: C_1  and  C_7
REMARK    2  A    between atoms: C_2  and  C_20
REMARK    3  A    between atoms: C_7  and  C_8
REMARK    4  A    between atoms: C_8  and  C_9
REMARK    5  A    between atoms: C_9  and  N_10
REMARK    6  A    between atoms: C_9  and  C_14
REMARK    7  A    between atoms: C_9  and  C_17
REMARK    8  A    between atoms: C_14  and  O_15
REMARK    9  A    between atoms: C_17  and  O_18
REMARK   10  A    between atoms: C_20  and  C_21
REMARK   11  A    between atoms: C_21  and  C_22
REMARK   12  A    between atoms: C_22  and  C_23
REMARK   13  A    between atoms: C_23  and  C_24
REMARK   14  A    between atoms: C_24  and  C_25
REMARK   15  A    between atoms: C_25  and  C_26
REMARK                            x       y       z     vdW  Elec       q    Type
REMARK                         _______ _______ _______ _____ _____    ______ ____
ROOT
ATOM      1  C   UNL     1      34.949 -19.937 -20.684  0.00  0.00    -0.022 C 
ATOM      2  C   UNL     1      34.029 -21.973 -19.043  0.00  0.00    -0.022 C 
ATOM      3  C   UNL     1      33.579 -20.102 -20.477  0.00  0.00    -0.005 C 
ATOM      4  C   UNL     1      35.856 -20.797 -20.066  0.00  0.00    -0.005 C 
ATOM      5  C   UNL     1      33.117 -21.126 -19.652  0.00  0.00    -0.005 C 
ATOM      6  C   UNL     1      35.393 -21.822 -19.241  0.00  0.00    -0.005 C 
ENDROOT
BRANCH   1   7
ATOM      7  C   UNL     1      35.445 -18.841 -21.567  0.00  0.00    +0.024 C 
BRANCH   7   8
ATOM      8  C   UNL     1      34.290 -17.997 -22.145  0.00  0.00    -0.011 C 
BRANCH   8   9
ATOM      9  C   UNL     1      34.172 -16.549 -21.595  0.00  0.00    +0.006 C 
BRANCH   9  10
ATOM     10  N   UNL     1      35.100 -16.382 -20.466  0.00  0.00    +0.386 N 
ATOM     11  H   UNL     1      36.022 -16.123 -20.819  0.00  0.00    -0.089 HD
ATOM     12  H   UNL     1      35.168 -17.258 -19.950  0.00  0.00    -0.089 HD
ATOM     13  H   UNL     1      34.754 -15.648 -19.848  0.00  0.00    -0.089 HD
ENDBRANCH   9  10
BRANCH   9  14
ATOM     14  C   UNL     1      34.543 -15.537 -22.707  0.00  0.00    +0.120 C 
BRANCH  14  15
ATOM     15  O   UNL     1      35.620 -15.996 -23.515  0.00  0.00    -0.384 OA
ATOM     16  H   UNL     1      36.392 -16.172 -22.953  0.00  0.00    +0.210 HD
ENDBRANCH  14  15
ENDBRANCH   9  14
BRANCH   9  17
ATOM     17  C   UNL     1      32.757 -16.227 -21.073  0.00  0.00    +0.120 C 
BRANCH  17  18
ATOM     18  O   UNL     1      32.240 -15.065 -21.710  0.00  0.00    -0.384 OA
ATOM     19  H   UNL     1      31.494 -15.313 -22.279  0.00  0.00    +0.210 HD
ENDBRANCH  17  18
ENDBRANCH   9  17
ENDBRANCH   8   9
ENDBRANCH   7   8
ENDBRANCH   1   7
BRANCH   2  20
ATOM     20  C   UNL     1      33.529 -23.082 -18.152  0.00  0.00    +0.026 C 
BRANCH  20  21
ATOM     21  C   UNL     1      34.255 -23.093 -16.805  0.00  0.00    +0.005 C 
BRANCH  21  22
ATOM     22  C   UNL     1      33.350 -23.459 -15.626  0.00  0.00    +0.000 C 
BRANCH  22  23
ATOM     23  C   UNL     1      31.843 -23.363 -15.887  0.00  0.00    +0.000 C 
BRANCH  23  24
ATOM     24  C   UNL     1      31.035 -22.964 -14.651  0.00  0.00    +0.000 C 
BRANCH  24  25
ATOM     25  C   UNL     1      29.598 -22.592 -15.025  0.00  0.00    +0.000 C 
BRANCH  25  26
ATOM     26  C   UNL     1      29.358 -22.747 -16.527  0.00  0.00    +0.000 C 
ATOM     27  C   UNL     1      28.265 -23.764 -16.814  0.00  0.00    +0.000 C 
ENDBRANCH  25  26
ENDBRANCH  24  25
ENDBRANCH  23  24
ENDBRANCH  22  23
ENDBRANCH  21  22
ENDBRANCH  20  21
ENDBRANCH   2  20
TORSDOF 15
ENDMDL
MODEL 6
REMARK VINA RESULT:      -8.0      1.792      2.563
REMARK  Name = 107970
REMARK  15 active torsions:
REMARK  status: ('A' for Active; 'I' for Inactive)
REMARK    1  A    between atoms: C_1  and  C_7
REMARK    2  A    between atoms: C_2  and  C_20
REMARK    3  A    between atoms: C_7  and  C_8
REMARK    4  A    between atoms: C_8  and  C_9
REMARK    5  A    between atoms: C_9  and  N_10
REMARK    6  A    between atoms: C_9  and  C_14
REMARK    7  A    between atoms: C_9  and  C_17
REMARK    8  A    between atoms: C_14  and  O_15
REMARK    9  A    between atoms: C_17  and  O_18
REMARK   10  A    between atoms: C_20  and  C_21
REMARK   11  A    between atoms: C_21  and  C_22
REMARK   12  A    between atoms: C_22  and  C_23
REMARK   13  A    between atoms: C_23  and  C_24
REMARK   14  A    between atoms: C_24  and  C_25
REMARK   15  A    between atoms: C_25  and  C_26
REMARK                            x       y       z     vdW  Elec       q    Type
REMARK                         _______ _______ _______ _____ _____    ______ ____
ROOT
ATOM      1  C   UNL     1      34.821 -22.958 -16.784  0.00  0.00    -0.022 C 
ATOM      2  C   UNL     1      35.454 -21.568 -19.097  0.00  0.00    -0.022 C 
ATOM      3  C   UNL     1      36.077 -22.365 -16.920  0.00  0.00    -0.005 C 
ATOM      4  C   UNL     1      33.884 -22.853 -17.811  0.00  0.00    -0.005 C 
ATOM      5  C   UNL     1      36.394 -21.665 -18.083  0.00  0.00    -0.005 C 
ATOM      6  C   UNL     1      34.203 -22.153 -18.976  0.00  0.00    -0.005 C 
ENDROOT
BRANCH   1   7
ATOM      7  C   UNL     1      34.480 -23.707 -15.539  0.00  0.00    +0.024 C 
BRANCH   7   8
ATOM      8  C   UNL     1      35.632 -23.679 -14.514  0.00  0.00    -0.011 C 
BRANCH   8   9
ATOM      9  C   UNL     1      36.397 -25.018 -14.322  0.00  0.00    +0.006 C 
BRANCH   9  10
ATOM     10  N   UNL     1      35.599 -26.117 -14.886  0.00  0.00    +0.386 N 
ATOM     11  H   UNL     1      34.990 -25.754 -15.620  0.00  0.00    -0.089 HD
ATOM     12  H   UNL     1      35.032 -26.536 -14.150  0.00  0.00    -0.089 HD
ATOM     13  H   UNL     1      36.223 -26.822 -15.279  0.00  0.00    -0.089 HD
ENDBRANCH   9  10
BRANCH   9  14
ATOM     14  C   UNL     1      37.757 -24.951 -15.062  0.00  0.00    +0.120 C 
BRANCH  14  15
ATOM     15  O   UNL     1      38.322 -26.240 -15.267  0.00  0.00    -0.384 OA
ATOM     16  H   UNL     1      37.630 -26.851 -15.567  0.00  0.00    +0.210 HD
ENDBRANCH  14  15
ENDBRANCH   9  14
BRANCH   9  17
ATOM     17  C   UNL     1      36.648 -25.349 -12.837  0.00  0.00    +0.120 C 
BRANCH  17  18
ATOM     18  O   UNL     1      36.888 -26.741 -12.668  0.00  0.00    -0.384 OA
ATOM     19  H   UNL     1      36.052 -27.191 -12.468  0.00  0.00    +0.210 HD
ENDBRANCH  17  18
ENDBRANCH   9  17
ENDBRANCH   8   9
ENDBRANCH   7   8
ENDBRANCH   1   7
BRANCH   2  20
ATOM     20  C   UNL     1      35.799 -20.812 -20.356  0.00  0.00    +0.026 C 
BRANCH  20  21
ATOM     21  C   UNL     1      34.702 -19.812 -20.730  0.00  0.00    +0.005 C 
BRANCH  21  22
ATOM     22  C   UNL     1      34.742 -19.385 -22.200  0.00  0.00    +0.000 C 
BRANCH  22  23
ATOM     23  C   UNL     1      35.223 -17.956 -22.468  0.00  0.00    +0.000 C 
BRANCH  23  24
ATOM     24  C   UNL     1      34.984 -17.001 -21.296  0.00  0.00    +0.000 C 
BRANCH  24  25
ATOM     25  C   UNL     1      34.294 -15.717 -21.760  0.00  0.00    +0.000 C 
BRANCH  25  26
ATOM     26  C   UNL     1      32.967 -15.503 -21.030  0.00  0.00    +0.000 C 
ATOM     27  C   UNL     1      32.704 -14.029 -20.773  0.00  0.00    +0.000 C 
ENDBRANCH  25  26
ENDBRANCH  24  25
ENDBRANCH  23  24
ENDBRANCH  22  23
ENDBRANCH  21  22
ENDBRANCH  20  21
ENDBRANCH   2  20
TORSDOF 15
ENDMDL
MODEL 7
REMARK VINA RESULT:      -8.0      1.780      1.958
REMARK  Name = 107970
REMARK  15 active torsions:
REMARK  status: ('A' for Active; 'I' for Inactive)
REMARK    1  A    between atoms: C_1  and  C_7
REMARK    2  A    between atoms: C_2  and  C_20
REMARK    3  A    between atoms: C_7  and  C_8
REMARK    4  A    between atoms: C_8  and  C_9
REMARK    5  A    between atoms: C_9  and  N_10
REMARK    6  A    between atoms: C_9  and  C_14
REMARK    7  A    between atoms: C_9  and  C_17
REMARK    8  A    between atoms: C_14  and  O_15
REMARK    9  A    between atoms: C_17  and  O_18
REMARK   10  A    between atoms: C_20  and  C_21
REMARK   11  A    between atoms: C_21  and  C_22
REMARK   12  A    between atoms: C_22  and  C_23
REMARK   13  A    between atoms: C_23  and  C_24
REMARK   14  A    between atoms: C_24  and  C_25
REMARK   15  A    between atoms: C_25  and  C_26
REMARK                            x       y       z     vdW  Elec       q    Type
REMARK                         _______ _______ _______ _____ _____    ______ ____
ROOT
ATOM      1  C   UNL     1      36.144 -22.603 -16.430  0.00  0.00    -0.022 C 
ATOM      2  C   UNL     1      34.593 -22.156 -18.684  0.00  0.00    -0.022 C 
ATOM      3  C   UNL     1      36.679 -21.915 -17.520  0.00  0.00    -0.005 C 
ATOM      4  C   UNL     1      34.830 -23.067 -16.474  0.00  0.00    -0.005 C 
ATOM      5  C   UNL     1      35.898 -21.690 -18.653  0.00  0.00    -0.005 C 
ATOM      6  C   UNL     1      34.049 -22.842 -17.609  0.00  0.00    -0.005 C 
ENDROOT
BRANCH   1   7
ATOM      7  C   UNL     1      36.978 -22.844 -15.217  0.00  0.00    +0.024 C 
BRANCH   7   8
ATOM      8  C   UNL     1      36.989 -24.331 -14.808  0.00  0.00    -0.011 C 
BRANCH   8   9
ATOM      9  C   UNL     1      36.632 -24.625 -13.324  0.00  0.00    +0.006 C 
BRANCH   9  10
ATOM     10  N   UNL     1      36.806 -26.062 -13.059  0.00  0.00    +0.386 N 
ATOM     11  H   UNL     1      36.906 -26.561 -13.944  0.00  0.00    -0.089 HD
ATOM     12  H   UNL     1      35.992 -26.416 -12.558  0.00  0.00    -0.089 HD
ATOM     13  H   UNL     1      37.644 -26.203 -12.493  0.00  0.00    -0.089 HD
ENDBRANCH   9  10
BRANCH   9  14
ATOM     14  C   UNL     1      37.574 -23.822 -12.393  0.00  0.00    +0.120 C 
BRANCH  14  15
ATOM     15  O   UNL     1      37.810 -24.491 -11.160  0.00  0.00    -0.384 OA
ATOM     16  H   UNL     1      37.275 -25.299 -11.124  0.00  0.00    +0.210 HD
ENDBRANCH  14  15
ENDBRANCH   9  14
BRANCH   9  17
ATOM     17  C   UNL     1      35.169 -24.273 -12.986  0.00  0.00    +0.120 C 
BRANCH  17  18
ATOM     18  O   UNL     1      34.905 -24.498 -11.606  0.00  0.00    -0.384 OA
ATOM     19  H   UNL     1      35.743 -24.512 -11.115  0.00  0.00    +0.210 HD
ENDBRANCH  17  18
ENDBRANCH   9  17
ENDBRANCH   8   9
ENDBRANCH   7   8
ENDBRANCH   1   7
BRANCH   2  20
ATOM     20  C   UNL     1      33.750 -21.914 -19.911  0.00  0.00    +0.026 C 
BRANCH  20  21
ATOM     21  C   UNL     1      33.010 -20.576 -19.830  0.00  0.00    +0.005 C 
BRANCH  21  22
ATOM     22  C   UNL     1      33.399 -19.597 -20.941  0.00  0.00    +0.000 C 
BRANCH  22  23
ATOM     23  C   UNL     1      34.798 -19.784 -21.537  0.00  0.00    +0.000 C 
BRANCH  23  24
ATOM     24  C   UNL     1      35.766 -18.651 -21.187  0.00  0.00    +0.000 C 
BRANCH  24  25
ATOM     25  C   UNL     1      35.042 -17.305 -21.120  0.00  0.00    +0.000 C 
BRANCH  25  26
ATOM     26  C   UNL     1      35.144 -16.552 -22.447  0.00  0.00    +0.000 C 
ATOM     27  C   UNL     1      34.217 -15.347 -22.477  0.00  0.00    +0.000 C 
ENDBRANCH  25  26
ENDBRANCH  24  25
ENDBRANCH  23  24
ENDBRANCH  22  23
ENDBRANCH  21  22
ENDBRANCH  20  21
ENDBRANCH   2  20
TORSDOF 15
ENDMDL
MODEL 8
REMARK VINA RESULT:      -8.0      9.659     13.756
REMARK  Name = 107970
REMARK  15 active torsions:
REMARK  status: ('A' for Active; 'I' for Inactive)
REMARK    1  A    between atoms: C_1  and  C_7
REMARK    2  A    between atoms: C_2  and  C_20
REMARK    3  A    between atoms: C_7  and  C_8
REMARK    4  A    between atoms: C_8  and  C_9
REMARK    5  A    between atoms: C_9  and  N_10
REMARK    6  A    between atoms: C_9  and  C_14
REMARK    7  A    between atoms: C_9  and  C_17
REMARK    8  A    between atoms: C_14  and  O_15
REMARK    9  A    between atoms: C_17  and  O_18
REMARK   10  A    between atoms: C_20  and  C_21
REMARK   11  A    between atoms: C_21  and  C_22
REMARK   12  A    between atoms: C_22  and  C_23
REMARK   13  A    between atoms: C_23  and  C_24
REMARK   14  A    between atoms: C_24  and  C_25
REMARK   15  A    between atoms: C_25  and  C_26
REMARK                            x       y       z     vdW  Elec       q    Type
REMARK                         _______ _______ _______ _____ _____    ______ ____
ROOT
ATOM      1  C   UNL     1      32.747 -11.232 -23.177  0.00  0.00    -0.022 C 
ATOM      2  C   UNL     1      33.023 -13.869 -22.370  0.00  0.00    -0.022 C 
ATOM      3  C   UNL     1      31.981 -11.721 -22.118  0.00  0.00    -0.005 C 
ATOM      4  C   UNL     1      33.651 -12.069 -23.830  0.00  0.00    -0.005 C 
ATOM      5  C   UNL     1      32.121 -13.048 -21.713  0.00  0.00    -0.005 C 
ATOM      6  C   UNL     1      33.789 -13.396 -23.424  0.00  0.00    -0.005 C 
ENDROOT
BRANCH   1   7
ATOM      7  C   UNL     1      32.599  -9.812 -23.612  0.00  0.00    +0.024 C 
BRANCH   7   8
ATOM      8  C   UNL     1      31.631  -9.027 -22.702  0.00  0.00    -0.011 C 
BRANCH   8   9
ATOM      9  C   UNL     1      32.278  -7.914 -21.831  0.00  0.00    +0.006 C 
BRANCH   9  10
ATOM     10  N   UNL     1      33.657  -7.682 -22.287  0.00  0.00    +0.386 N 
ATOM     11  H   UNL     1      33.691  -7.732 -23.306  0.00  0.00    -0.089 HD
ATOM     12  H   UNL     1      34.270  -8.393 -21.891  0.00  0.00    -0.089 HD
ATOM     13  H   UNL     1      33.965  -6.758 -21.981  0.00  0.00    -0.089 HD
ENDBRANCH   9  10
BRANCH   9  14
ATOM     14  C   UNL     1      31.470  -6.601 -21.980  0.00  0.00    +0.120 C 
BRANCH  14  15
ATOM     15  O   UNL     1      32.043  -5.529 -21.242  0.00  0.00    -0.384 OA
ATOM     16  H   UNL     1      31.339  -5.029 -20.798  0.00  0.00    +0.210 HD
ENDBRANCH  14  15
ENDBRANCH   9  14
BRANCH   9  17
ATOM     17  C   UNL     1      32.348  -8.296 -20.339  0.00  0.00    +0.120 C 
BRANCH  17  18
ATOM     18  O   UNL     1      33.252  -7.443 -19.645  0.00  0.00    -0.384 OA
ATOM     19  H   UNL     1      33.496  -7.851 -18.799  0.00  0.00    +0.210 HD
ENDBRANCH  17  18
ENDBRANCH   9  17
ENDBRANCH   8   9
ENDBRANCH   7   8
ENDBRANCH   1   7
BRANCH   2  20
ATOM     20  C   UNL     1      33.172 -15.305 -21.931  0.00  0.00    +0.026 C 
BRANCH  20  21
ATOM     21  C   UNL     1      34.336 -15.476 -20.952  0.00  0.00    +0.005 C 
BRANCH  21  22
ATOM     22  C   UNL     1      35.009 -16.848 -21.039  0.00  0.00    +0.000 C 
BRANCH  22  23
ATOM     23  C   UNL     1      34.099 -18.014 -21.439  0.00  0.00    +0.000 C 
BRANCH  23  24
ATOM     24  C   UNL     1      34.823 -19.113 -22.220  0.00  0.00    +0.000 C 
BRANCH  24  25
ATOM     25  C   UNL     1      35.530 -18.542 -23.452  0.00  0.00    +0.000 C 
BRANCH  25  26
ATOM     26  C   UNL     1      34.528 -18.172 -24.546  0.00  0.00    +0.000 C 
ATOM     27  C   UNL     1      34.752 -16.756 -25.051  0.00  0.00    +0.000 C 
ENDBRANCH  25  26
ENDBRANCH  24  25
ENDBRANCH  23  24
ENDBRANCH  22  23
ENDBRANCH  21  22
ENDBRANCH  20  21
ENDBRANCH   2  20
TORSDOF 15
ENDMDL
MODEL 9
REMARK VINA RESULT:      -8.0      2.230      3.293
REMARK  Name = 107970
REMARK  15 active torsions:
REMARK  status: ('A' for Active; 'I' for Inactive)
REMARK    1  A    between atoms: C_1  and  C_7
REMARK    2  A    between atoms: C_2  and  C_20
REMARK    3  A    between atoms: C_7  and  C_8
REMARK    4  A    between atoms: C_8  and  C_9
REMARK    5  A    between atoms: C_9  and  N_10
REMARK    6  A    between atoms: C_9  and  C_14
REMARK    7  A    between atoms: C_9  and  C_17
REMARK    8  A    between atoms: C_14  and  O_15
REMARK    9  A    between atoms: C_17  and  O_18
REMARK   10  A    between atoms: C_20  and  C_21
REMARK   11  A    between atoms: C_21  and  C_22
REMARK   12  A    between atoms: C_22  and  C_23
REMARK   13  A    between atoms: C_23  and  C_24
REMARK   14  A    between atoms: C_24  and  C_25
REMARK   15  A    between atoms: C_25  and  C_26
REMARK                            x       y       z     vdW  Elec       q    Type
REMARK                         _______ _______ _______ _____ _____    ______ ____
ROOT
ATOM      1  C   UNL     1      34.349 -22.322 -18.205  0.00  0.00    -0.022 C 
ATOM      2  C   UNL     1      35.053 -20.551 -20.219  0.00  0.00    -0.022 C 
ATOM      3  C   UNL     1      35.691 -21.994 -18.409  0.00  0.00    -0.005 C 
ATOM      4  C   UNL     1      33.363 -21.759 -19.013  0.00  0.00    -0.005 C 
ATOM      5  C   UNL     1      36.044 -21.103 -19.422  0.00  0.00    -0.005 C 
ATOM      6  C   UNL     1      33.717 -20.869 -20.027  0.00  0.00    -0.005 C 
ENDROOT
BRANCH   1   7
ATOM      7  C   UNL     1      33.971 -23.274 -17.121  0.00  0.00    +0.024 C 
BRANCH   7   8
ATOM      8  C   UNL     1      35.017 -23.307 -15.987  0.00  0.00    -0.011 C 
BRANCH   8   9
ATOM      9  C   UNL     1      34.616 -24.113 -14.721  0.00  0.00    +0.006 C 
BRANCH   9  10
ATOM     10  N   UNL     1      35.045 -25.511 -14.881  0.00  0.00    +0.386 N 
ATOM     11  H   UNL     1      34.228 -26.102 -15.037  0.00  0.00    -0.089 HD
ATOM     12  H   UNL     1      35.529 -25.816 -14.037  0.00  0.00    -0.089 HD
ATOM     13  H   UNL     1      35.676 -25.583 -15.680  0.00  0.00    -0.089 HD
ENDBRANCH   9  10
BRANCH   9  14
ATOM     14  C   UNL     1      35.313 -23.510 -13.477  0.00  0.00    +0.120 C 
BRANCH  14  15
ATOM     15  O   UNL     1      34.495 -23.577 -12.316  0.00  0.00    -0.384 OA
ATOM     16  H   UNL     1      34.739 -22.862 -11.706  0.00  0.00    +0.210 HD
ENDBRANCH  14  15
ENDBRANCH   9  14
BRANCH   9  17
ATOM     17  C   UNL     1      33.092 -24.127 -14.487  0.00  0.00    +0.120 C 
BRANCH  17  18
ATOM     18  O   UNL     1      32.706 -25.294 -13.770  0.00  0.00    -0.384 OA
ATOM     19  H   UNL     1      31.874 -25.123 -13.300  0.00  0.00    +0.210 HD
ENDBRANCH  17  18
ENDBRANCH   9  17
ENDBRANCH   8   9
ENDBRANCH   7   8
ENDBRANCH   1   7
BRANCH   2  20
ATOM     20  C   UNL     1      35.436 -19.589 -21.315  0.00  0.00    +0.026 C 
BRANCH  20  21
ATOM     21  C   UNL     1      34.279 -19.358 -22.290  0.00  0.00    +0.005 C 
BRANCH  21  22
ATOM     22  C   UNL     1      34.736 -18.948 -23.693  0.00  0.00    +0.000 C 
BRANCH  22  23
ATOM     23  C   UNL     1      35.319 -17.537 -23.819  0.00  0.00    +0.000 C 
BRANCH  23  24
ATOM     24  C   UNL     1      34.261 -16.433 -23.776  0.00  0.00    +0.000 C 
BRANCH  24  25
ATOM     25  C   UNL     1      34.652 -15.329 -22.792  0.00  0.00    +0.000 C 
BRANCH  25  26
ATOM     26  C   UNL     1      34.550 -15.812 -21.345  0.00  0.00    +0.000 C 
ATOM     27  C   UNL     1      33.358 -15.191 -20.634  0.00  0.00    +0.000 C 
ENDBRANCH  25  26
ENDBRANCH  24  25
ENDBRANCH  23  24
ENDBRANCH  22  23
ENDBRANCH  21  22
ENDBRANCH  20  21
ENDBRANCH   2  20
TORSDOF 15
ENDMDL
