MODEL 1
REMARK VINA RESULT:      -7.1      0.000      0.000
REMARK  Name = 445694
REMARK  4 active torsions:
REMARK  status: ('A' for Active; 'I' for Inactive)
REMARK    1  A    between atoms: C_1  and  C_4
REMARK    2  A    between atoms: C_1  and  N_7
REMARK    3  A    between atoms: C_1  and  C_11
REMARK    4  A    between atoms: C_11  and  C_12
REMARK                            x       y       z     vdW  Elec       q    Type
REMARK                         _______ _______ _______ _____ _____    ______ ____
ROOT
ATOM      1  C   UNL     1      34.870 -17.405 -22.448  0.00  0.00    +0.017 C 
ENDROOT
BRANCH   1   4
ATOM      2  O   UNL     1      34.961 -16.016 -20.460  0.00  0.00    -0.278 OA
ATOM      3  N   UNL     1      34.575 -14.999 -22.482  0.00  0.00    -0.330 N 
ATOM      4  C   UNL     1      34.818 -16.091 -21.679  0.00  0.00    +0.199 C 
ATOM      5  H   UNL     1      34.522 -14.098 -22.086  0.00  0.00    +0.145 HD
ATOM      6  H   UNL     1      34.456 -15.117 -23.453  0.00  0.00    +0.145 HD
ENDBRANCH   1   4
BRANCH   1   7
ATOM      7  N   UNL     1      35.392 -17.092 -23.778  0.00  0.00    +0.388 N 
ATOM      8  H   UNL     1      34.924 -17.674 -24.473  0.00  0.00    -0.089 HD
ATOM      9  H   UNL     1      36.396 -17.275 -23.802  0.00  0.00    -0.089 HD
ATOM     10  H   UNL     1      35.222 -16.108 -23.987  0.00  0.00    -0.089 HD
ENDBRANCH   1   7
BRANCH   1  11
ATOM     11  C   UNL     1      35.775 -18.424 -21.740  0.00  0.00    +0.013 C 
BRANCH  11  12
ATOM     12  C   UNL     1      34.996 -19.478 -20.987  0.00  0.00    -0.024 C 
ATOM     13  C   UNL     1      35.681 -20.446 -20.271  0.00  0.00    -0.004 C 
ATOM     14  C   UNL     1      33.611 -19.454 -21.028  0.00  0.00    -0.004 C 
ATOM     15  C   UNL     1      34.962 -21.418 -19.577  0.00  0.00    -0.000 C 
ATOM     16  C   UNL     1      32.892 -20.428 -20.333  0.00  0.00    -0.000 C 
ATOM     17  C   UNL     1      33.568 -21.409 -19.608  0.00  0.00    -0.000 C 
ENDBRANCH  11  12
ENDBRANCH   1  11
TORSDOF 4
ENDMDL
MODEL 2
REMARK VINA RESULT:      -7.1      0.096      1.398
REMARK  Name = 445694
REMARK  4 active torsions:
REMARK  status: ('A' for Active; 'I' for Inactive)
REMARK    1  A    between atoms: C_1  and  C_4
REMARK    2  A    between atoms: C_1  and  N_7
REMARK    3  A    between atoms: C_1  and  C_11
REMARK    4  A    between atoms: C_11  and  C_12
REMARK                            x       y       z     vdW  Elec       q    Type
REMARK                         _______ _______ _______ _____ _____    ______ ____
ROOT
ATOM      1  C   UNL     1      34.949 -17.476 -22.433  0.00  0.00    +0.017 C 
ENDROOT
BRANCH   1   4
ATOM      2  O   UNL     1      34.985 -16.005 -20.504  0.00  0.00    -0.278 OA
ATOM      3  N   UNL     1      34.571 -15.085 -22.567  0.00  0.00    -0.330 N 
ATOM      4  C   UNL     1      34.849 -16.134 -21.720  0.00  0.00    +0.199 C 
ATOM      5  H   UNL     1      34.485 -14.171 -22.209  0.00  0.00    +0.145 HD
ATOM      6  H   UNL     1      34.459 -15.247 -23.532  0.00  0.00    +0.145 HD
ENDBRANCH   1   4
BRANCH   1   7
ATOM      7  N   UNL     1      35.529 -17.208 -23.750  0.00  0.00    +0.388 N 
ATOM      8  H   UNL     1      36.546 -17.202 -23.679  0.00  0.00    -0.089 HD
ATOM      9  H   UNL     1      35.205 -16.301 -24.086  0.00  0.00    -0.089 HD
ATOM     10  H   UNL     1      35.238 -17.935 -24.404  0.00  0.00    -0.089 HD
ENDBRANCH   1   7
BRANCH   1  11
ATOM     11  C   UNL     1      35.830 -18.456 -21.646  0.00  0.00    +0.013 C 
BRANCH  11  12
ATOM     12  C   UNL     1      35.030 -19.514 -20.922  0.00  0.00    -0.024 C 
ATOM     13  C   UNL     1      33.646 -19.459 -20.954  0.00  0.00    -0.004 C 
ATOM     14  C   UNL     1      35.696 -20.521 -20.242  0.00  0.00    -0.004 C 
ATOM     15  C   UNL     1      32.907 -20.436 -20.287  0.00  0.00    -0.000 C 
ATOM     16  C   UNL     1      34.957 -21.498 -19.574  0.00  0.00    -0.000 C 
ATOM     17  C   UNL     1      33.563 -21.455 -19.597  0.00  0.00    -0.000 C 
ENDBRANCH  11  12
ENDBRANCH   1  11
TORSDOF 4
ENDMDL
MODEL 3
REMARK VINA RESULT:      -7.1      1.309      1.924
REMARK  Name = 445694
REMARK  4 active torsions:
REMARK  status: ('A' for Active; 'I' for Inactive)
REMARK    1  A    between atoms: C_1  and  C_4
REMARK    2  A    between atoms: C_1  and  N_7
REMARK    3  A    between atoms: C_1  and  C_11
REMARK    4  A    between atoms: C_11  and  C_12
REMARK                            x       y       z     vdW  Elec       q    Type
REMARK                         _______ _______ _______ _____ _____    ______ ____
ROOT
ATOM      1  C   UNL     1      35.198 -17.663 -21.541  0.00  0.00    +0.017 C 
ENDROOT
BRANCH   1   4
ATOM      2  O   UNL     1      35.274 -15.749 -23.030  0.00  0.00    -0.278 OA
ATOM      3  N   UNL     1      35.514 -17.845 -23.938  0.00  0.00    -0.330 N 
ATOM      4  C   UNL     1      35.335 -16.969 -22.890  0.00  0.00    +0.199 C 
ATOM      5  H   UNL     1      35.614 -17.500 -24.856  0.00  0.00    +0.145 HD
ATOM      6  H   UNL     1      35.542 -18.815 -23.771  0.00  0.00    +0.145 HD
ENDBRANCH   1   4
BRANCH   1   7
ATOM      7  N   UNL     1      34.943 -16.614 -20.554  0.00  0.00    +0.388 N 
ATOM      8  H   UNL     1      35.358 -16.878 -19.661  0.00  0.00    -0.089 HD
ATOM      9  H   UNL     1      33.936 -16.493 -20.439  0.00  0.00    -0.089 HD
ATOM     10  H   UNL     1      35.355 -15.737 -20.875  0.00  0.00    -0.089 HD
ENDBRANCH   1   7
BRANCH   1  11
ATOM     11  C   UNL     1      34.048 -18.680 -21.557  0.00  0.00    +0.013 C 
BRANCH  11  12
ATOM     12  C   UNL     1      34.324 -19.892 -20.698  0.00  0.00    -0.024 C 
ATOM     13  C   UNL     1      35.633 -20.298 -20.496  0.00  0.00    -0.004 C 
ATOM     14  C   UNL     1      33.261 -20.574 -20.127  0.00  0.00    -0.004 C 
ATOM     15  C   UNL     1      35.888 -21.416 -19.702  0.00  0.00    -0.000 C 
ATOM     16  C   UNL     1      33.516 -21.693 -19.333  0.00  0.00    -0.000 C 
ATOM     17  C   UNL     1      34.829 -22.113 -19.121  0.00  0.00    -0.000 C 
ENDBRANCH  11  12
ENDBRANCH   1  11
TORSDOF 4
ENDMDL
MODEL 4
REMARK VINA RESULT:      -7.0      1.924      2.100
REMARK  Name = 445694
REMARK  4 active torsions:
REMARK  status: ('A' for Active; 'I' for Inactive)
REMARK    1  A    between atoms: C_1  and  C_4
REMARK    2  A    between atoms: C_1  and  N_7
REMARK    3  A    between atoms: C_1  and  C_11
REMARK    4  A    between atoms: C_11  and  C_12
REMARK                            x       y       z     vdW  Elec       q    Type
REMARK                         _______ _______ _______ _____ _____    ______ ____
ROOT
ATOM      1  C   UNL     1      34.564 -18.573 -23.612  0.00  0.00    +0.017 C 
ENDROOT
BRANCH   1   4
ATOM      2  O   UNL     1      34.706 -17.252 -25.643  0.00  0.00    -0.278 OA
ATOM      3  N   UNL     1      35.446 -16.315 -23.681  0.00  0.00    -0.330 N 
ATOM      4  C   UNL     1      34.896 -17.331 -24.430  0.00  0.00    +0.199 C 
ATOM      5  H   UNL     1      35.698 -15.465 -24.113  0.00  0.00    +0.145 HD
ATOM      6  H   UNL     1      35.588 -16.436 -22.714  0.00  0.00    +0.145 HD
ENDBRANCH   1   4
BRANCH   1   7
ATOM      7  N   UNL     1      34.919 -19.727 -24.438  0.00  0.00    +0.388 N 
ATOM      8  H   UNL     1      34.157 -20.405 -24.421  0.00  0.00    -0.089 HD
ATOM      9  H   UNL     1      35.768 -20.159 -24.073  0.00  0.00    -0.089 HD
ATOM     10  H   UNL     1      35.080 -19.420 -25.398  0.00  0.00    -0.089 HD
ENDBRANCH   1   7
BRANCH   1  11
ATOM     11  C   UNL     1      35.351 -18.592 -22.294  0.00  0.00    +0.013 C 
BRANCH  11  12
ATOM     12  C   UNL     1      34.792 -19.574 -21.290  0.00  0.00    -0.024 C 
ATOM     13  C   UNL     1      35.655 -20.423 -20.619  0.00  0.00    -0.004 C 
ATOM     14  C   UNL     1      33.426 -19.604 -21.061  0.00  0.00    -0.004 C 
ATOM     15  C   UNL     1      35.140 -21.329 -19.692  0.00  0.00    -0.000 C 
ATOM     16  C   UNL     1      32.910 -20.511 -20.134  0.00  0.00    -0.000 C 
ATOM     17  C   UNL     1      33.767 -21.373 -19.450  0.00  0.00    -0.000 C 
ENDBRANCH  11  12
ENDBRANCH   1  11
TORSDOF 4
ENDMDL
MODEL 5
REMARK VINA RESULT:      -6.6      3.513      5.086
REMARK  Name = 445694
REMARK  4 active torsions:
REMARK  status: ('A' for Active; 'I' for Inactive)
REMARK    1  A    between atoms: C_1  and  C_4
REMARK    2  A    between atoms: C_1  and  N_7
REMARK    3  A    between atoms: C_1  and  C_11
REMARK    4  A    between atoms: C_11  and  C_12
REMARK                            x       y       z     vdW  Elec       q    Type
REMARK                         _______ _______ _______ _____ _____    ______ ____
ROOT
ATOM      1  C   UNL     1      33.801 -20.953 -20.407  0.00  0.00    +0.017 C 
ENDROOT
BRANCH   1   4
ATOM      2  O   UNL     1      34.963 -22.628 -19.090  0.00  0.00    -0.278 OA
ATOM      3  N   UNL     1      32.738 -22.257 -18.661  0.00  0.00    -0.330 N 
ATOM      4  C   UNL     1      33.919 -22.022 -19.328  0.00  0.00    +0.199 C 
ATOM      5  H   UNL     1      32.703 -22.930 -17.942  0.00  0.00    +0.145 HD
ATOM      6  H   UNL     1      31.927 -21.751 -18.901  0.00  0.00    +0.145 HD
ENDBRANCH   1   4
BRANCH   1   7
ATOM      7  N   UNL     1      32.614 -20.161 -20.084  0.00  0.00    +0.388 N 
ATOM      8  H   UNL     1      32.215 -19.779 -20.941  0.00  0.00    -0.089 HD
ATOM      9  H   UNL     1      32.875 -19.396 -19.460  0.00  0.00    -0.089 HD
ATOM     10  H   UNL     1      31.925 -20.755 -19.622  0.00  0.00    -0.089 HD
ENDBRANCH   1   7
BRANCH   1  11
ATOM     11  C   UNL     1      35.051 -20.063 -20.442  0.00  0.00    +0.013 C 
BRANCH  11  12
ATOM     12  C   UNL     1      34.992 -19.010 -21.525  0.00  0.00    -0.024 C 
ATOM     13  C   UNL     1      35.063 -17.672 -21.176  0.00  0.00    -0.004 C 
ATOM     14  C   UNL     1      34.868 -19.405 -22.848  0.00  0.00    -0.004 C 
ATOM     15  C   UNL     1      35.010 -16.701 -22.175  0.00  0.00    -0.000 C 
ATOM     16  C   UNL     1      34.814 -18.433 -23.848  0.00  0.00    -0.000 C 
ATOM     17  C   UNL     1      34.884 -17.082 -23.511  0.00  0.00    -0.000 C 
ENDBRANCH  11  12
ENDBRANCH   1  11
TORSDOF 4
ENDMDL
MODEL 6
REMARK VINA RESULT:      -6.6      4.710      5.927
REMARK  Name = 445694
REMARK  4 active torsions:
REMARK  status: ('A' for Active; 'I' for Inactive)
REMARK    1  A    between atoms: C_1  and  C_4
REMARK    2  A    between atoms: C_1  and  N_7
REMARK    3  A    between atoms: C_1  and  C_11
REMARK    4  A    between atoms: C_11  and  C_12
REMARK                            x       y       z     vdW  Elec       q    Type
REMARK                         _______ _______ _______ _____ _____    ______ ____
ROOT
ATOM      1  C   UNL     1      36.440 -21.527 -17.287  0.00  0.00    +0.017 C 
ENDROOT
BRANCH   1   4
ATOM      2  O   UNL     1      35.731 -23.521 -16.099  0.00  0.00    -0.278 OA
ATOM      3  N   UNL     1      37.965 -22.988 -16.096  0.00  0.00    -0.330 N 
ATOM      4  C   UNL     1      36.650 -22.780 -16.446  0.00  0.00    +0.199 C 
ATOM      5  H   UNL     1      38.212 -23.772 -15.551  0.00  0.00    +0.145 HD
ATOM      6  H   UNL     1      38.660 -22.355 -16.391  0.00  0.00    +0.145 HD
ENDBRANCH   1   4
BRANCH   1   7
ATOM      7  N   UNL     1      37.519 -20.602 -16.937  0.00  0.00    +0.388 N 
ATOM      8  H   UNL     1      37.864 -20.146 -17.782  0.00  0.00    -0.089 HD
ATOM      9  H   UNL     1      38.279 -21.119 -16.494  0.00  0.00    -0.089 HD
ATOM     10  H   UNL     1      37.165 -19.897 -16.290  0.00  0.00    -0.089 HD
ENDBRANCH   1   7
BRANCH   1  11
ATOM     11  C   UNL     1      36.478 -21.856 -18.786  0.00  0.00    +0.013 C 
BRANCH  11  12
ATOM     12  C   UNL     1      35.410 -21.133 -19.573  0.00  0.00    -0.024 C 
ATOM     13  C   UNL     1      35.780 -20.147 -20.473  0.00  0.00    -0.004 C 
ATOM     14  C   UNL     1      34.080 -21.471 -19.380  0.00  0.00    -0.004 C 
ATOM     15  C   UNL     1      34.794 -19.479 -21.199  0.00  0.00    -0.000 C 
ATOM     16  C   UNL     1      33.093 -20.803 -20.107  0.00  0.00    -0.000 C 
ATOM     17  C   UNL     1      33.451 -19.808 -21.016  0.00  0.00    -0.000 C 
ENDBRANCH  11  12
ENDBRANCH   1  11
TORSDOF 4
ENDMDL
MODEL 7
REMARK VINA RESULT:      -6.5      3.240      4.971
REMARK  Name = 445694
REMARK  4 active torsions:
REMARK  status: ('A' for Active; 'I' for Inactive)
REMARK    1  A    between atoms: C_1  and  C_4
REMARK    2  A    between atoms: C_1  and  N_7
REMARK    3  A    between atoms: C_1  and  C_11
REMARK    4  A    between atoms: C_11  and  C_12
REMARK                            x       y       z     vdW  Elec       q    Type
REMARK                         _______ _______ _______ _____ _____    ______ ____
ROOT
ATOM      1  C   UNL     1      34.725 -20.441 -20.808  0.00  0.00    +0.017 C 
ENDROOT
BRANCH   1   4
ATOM      2  O   UNL     1      35.137 -22.455 -19.517  0.00  0.00    -0.278 OA
ATOM      3  N   UNL     1      36.526 -20.654 -19.198  0.00  0.00    -0.330 N 
ATOM      4  C   UNL     1      35.465 -21.302 -19.792  0.00  0.00    +0.199 C 
ATOM      5  H   UNL     1      37.074 -21.120 -18.525  0.00  0.00    +0.145 HD
ATOM      6  H   UNL     1      36.737 -19.724 -19.447  0.00  0.00    +0.145 HD
ENDBRANCH   1   4
BRANCH   1   7
ATOM      7  N   UNL     1      33.380 -20.226 -20.273  0.00  0.00    +0.388 N 
ATOM      8  H   UNL     1      32.741 -20.915 -20.670  0.00  0.00    -0.089 HD
ATOM      9  H   UNL     1      33.062 -19.288 -20.517  0.00  0.00    -0.089 HD
ATOM     10  H   UNL     1      33.398 -20.324 -19.258  0.00  0.00    -0.089 HD
ENDBRANCH   1   7
BRANCH   1  11
ATOM     11  C   UNL     1      35.440 -19.100 -21.022  0.00  0.00    +0.013 C 
BRANCH  11  12
ATOM     12  C   UNL     1      35.150 -18.490 -22.374  0.00  0.00    -0.024 C 
ATOM     13  C   UNL     1      35.215 -17.114 -22.525  0.00  0.00    -0.004 C 
ATOM     14  C   UNL     1      34.826 -19.318 -23.436  0.00  0.00    -0.004 C 
ATOM     15  C   UNL     1      34.948 -16.551 -23.773  0.00  0.00    -0.000 C 
ATOM     16  C   UNL     1      34.558 -18.755 -24.684  0.00  0.00    -0.000 C 
ATOM     17  C   UNL     1      34.620 -17.371 -24.852  0.00  0.00    -0.000 C 
ENDBRANCH  11  12
ENDBRANCH   1  11
TORSDOF 4
ENDMDL
MODEL 8
REMARK VINA RESULT:      -6.3      2.988      4.106
REMARK  Name = 445694
REMARK  4 active torsions:
REMARK  status: ('A' for Active; 'I' for Inactive)
REMARK    1  A    between atoms: C_1  and  C_4
REMARK    2  A    between atoms: C_1  and  N_7
REMARK    3  A    between atoms: C_1  and  C_11
REMARK    4  A    between atoms: C_11  and  C_12
REMARK                            x       y       z     vdW  Elec       q    Type
REMARK                         _______ _______ _______ _____ _____    ______ ____
ROOT
ATOM      1  C   UNL     1      33.530 -14.253 -23.022  0.00  0.00    +0.017 C 
ENDROOT
BRANCH   1   4
ATOM      2  O   UNL     1      32.612 -14.300 -20.776  0.00  0.00    -0.278 OA
ATOM      3  N   UNL     1      31.769 -12.768 -22.265  0.00  0.00    -0.330 N 
ATOM      4  C   UNL     1      32.612 -13.793 -21.897  0.00  0.00    +0.199 C 
ATOM      5  H   UNL     1      31.133 -12.394 -21.612  0.00  0.00    +0.145 HD
ATOM      6  H   UNL     1      31.802 -12.407 -23.181  0.00  0.00    +0.145 HD
ENDBRANCH   1   4
BRANCH   1   7
ATOM      7  N   UNL     1      34.097 -13.044 -23.621  0.00  0.00    +0.388 N 
ATOM      8  H   UNL     1      34.739 -12.605 -22.961  0.00  0.00    -0.089 HD
ATOM      9  H   UNL     1      33.345 -12.392 -23.848  0.00  0.00    -0.089 HD
ATOM     10  H   UNL     1      34.600 -13.291 -24.473  0.00  0.00    -0.089 HD
ENDBRANCH   1   7
BRANCH   1  11
ATOM     11  C   UNL     1      34.645 -15.163 -22.487  0.00  0.00    +0.013 C 
BRANCH  11  12
ATOM     12  C   UNL     1      34.667 -16.518 -23.155  0.00  0.00    -0.024 C 
ATOM     13  C   UNL     1      34.864 -17.652 -22.384  0.00  0.00    -0.004 C 
ATOM     14  C   UNL     1      34.490 -16.600 -24.527  0.00  0.00    -0.004 C 
ATOM     15  C   UNL     1      34.883 -18.903 -23.000  0.00  0.00    -0.000 C 
ATOM     16  C   UNL     1      34.510 -17.852 -25.144  0.00  0.00    -0.000 C 
ATOM     17  C   UNL     1      34.707 -19.002 -24.380  0.00  0.00    -0.000 C 
ENDBRANCH  11  12
ENDBRANCH   1  11
TORSDOF 4
ENDMDL
MODEL 9
REMARK VINA RESULT:      -6.2      6.984      8.546
REMARK  Name = 445694
REMARK  4 active torsions:
REMARK  status: ('A' for Active; 'I' for Inactive)
REMARK    1  A    between atoms: C_1  and  C_4
REMARK    2  A    between atoms: C_1  and  N_7
REMARK    3  A    between atoms: C_1  and  C_11
REMARK    4  A    between atoms: C_11  and  C_12
REMARK                            x       y       z     vdW  Elec       q    Type
REMARK                         _______ _______ _______ _____ _____    ______ ____
ROOT
ATOM      1  C   UNL     1      35.355 -24.663 -14.821  0.00  0.00    +0.017 C 
ENDROOT
BRANCH   1   4
ATOM      2  O   UNL     1      36.193 -26.751 -15.731  0.00  0.00    -0.278 OA
ATOM      3  N   UNL     1      37.714 -25.155 -15.087  0.00  0.00    -0.330 N 
ATOM      4  C   UNL     1      36.437 -25.637 -15.269  0.00  0.00    +0.199 C 
ATOM      5  H   UNL     1      38.490 -25.706 -15.344  0.00  0.00    +0.145 HD
ATOM      6  H   UNL     1      37.853 -24.260 -14.701  0.00  0.00    +0.145 HD
ENDBRANCH   1   4
BRANCH   1   7
ATOM      7  N   UNL     1      35.159 -24.885 -13.388  0.00  0.00    +0.388 N 
ATOM      8  H   UNL     1      35.206 -23.992 -12.896  0.00  0.00    -0.089 HD
ATOM      9  H   UNL     1      35.888 -25.506 -13.037  0.00  0.00    -0.089 HD
ATOM     10  H   UNL     1      34.245 -25.311 -13.232  0.00  0.00    -0.089 HD
ENDBRANCH   1   7
BRANCH   1  11
ATOM     11  C   UNL     1      35.774 -23.211 -15.090  0.00  0.00    +0.013 C 
BRANCH  11  12
ATOM     12  C   UNL     1      35.482 -22.768 -16.505  0.00  0.00    -0.024 C 
ATOM     13  C   UNL     1      36.460 -22.098 -17.222  0.00  0.00    -0.004 C 
ATOM     14  C   UNL     1      34.241 -23.041 -17.058  0.00  0.00    -0.004 C 
ATOM     15  C   UNL     1      36.191 -21.690 -18.528  0.00  0.00    -0.000 C 
ATOM     16  C   UNL     1      33.972 -22.632 -18.365  0.00  0.00    -0.000 C 
ATOM     17  C   UNL     1      34.947 -21.957 -19.099  0.00  0.00    -0.000 C 
ENDBRANCH  11  12
ENDBRANCH   1  11
TORSDOF 4
ENDMDL
