MODEL 1
REMARK VINA RESULT:      -7.0      0.000      0.000
REMARK  Name = 5287737
REMARK  6 active torsions:
REMARK  status: ('A' for Active; 'I' for Inactive)
REMARK    1  A    between atoms: C_1  and  C_5
REMARK    2  A    between atoms: C_1  and  N_14
REMARK    3  A    between atoms: N_4  and  C_7
REMARK    4  A    between atoms: C_7  and  N_10
REMARK    5  A    between atoms: C_15  and  O_17
REMARK    6  A    between atoms: O_17  and  C_18
REMARK                            x       y       z     vdW  Elec       q    Type
REMARK                         _______ _______ _______ _____ _____    ______ ____
ROOT
ATOM      1  C   UNL     1      35.602 -24.265 -12.165  0.00  0.00    +0.151 C 
ATOM      2  C   UNL     1      35.535 -24.239 -10.645  0.00  0.00    +0.031 C 
ENDROOT
BRANCH   1   5
ATOM      3  O   UNL     1      37.037 -26.213 -12.034  0.00  0.00    -0.273 OA
ATOM      4  N   UNL     1      37.307 -24.741 -13.807  0.00  0.00    -0.289 N 
ATOM      5  C   UNL     1      36.705 -25.199 -12.643  0.00  0.00    +0.242 C 
ATOM      6  H   UNL     1      36.965 -23.915 -14.219  0.00  0.00    +0.151 HD
BRANCH   4   7
ATOM      7  C   UNL     1      38.420 -25.424 -14.448  0.00  0.00    +0.148 C 
ATOM      8  C   UNL     1      39.680 -25.309 -13.591  0.00  0.00    +0.044 C 
BRANCH   7  10
ATOM      9  O   UNL     1      36.104 -26.519 -15.876  0.00  0.00    -0.265 OA
ATOM     10  N   UNL     1      38.093 -26.820 -14.686  0.00  0.00    -0.283 N 
ATOM     11  C   UNL     1      36.970 -27.225 -15.374  0.00  0.00    +0.301 C 
ATOM     12  H   UNL     1      38.703 -27.511 -14.337  0.00  0.00    +0.151 HD
ENDBRANCH   7  10
ENDBRANCH   4   7
ENDBRANCH   1   5
BRANCH   1  14
ATOM     13  O   UNL     1      34.485 -23.578 -14.756  0.00  0.00    -0.226 OA
ATOM     14  N   UNL     1      34.360 -24.714 -12.735  0.00  0.00    -0.264 N 
ATOM     15  C   UNL     1      33.904 -24.334 -13.984  0.00  0.00    +0.402 C 
ATOM     16  H   UNL     1      33.803 -25.328 -12.206  0.00  0.00    +0.153 HD
BRANCH  15  17
ATOM     17  O   UNL     1      32.700 -24.927 -14.239  0.00  0.00    -0.442 OA
BRANCH  17  18
ATOM     18  C   UNL     1      31.606 -24.038 -14.491  0.00  0.00    +0.138 C 
ATOM     19  C   UNL     1      31.648 -22.911 -13.461  0.00  0.00    +0.044 C 
ATOM     20  C   UNL     1      30.317 -24.843 -14.355  0.00  0.00    +0.044 C 
ATOM     21  C   UNL     1      31.747 -23.485 -15.910  0.00  0.00    +0.044 C 
ENDBRANCH  17  18
ENDBRANCH  15  17
ENDBRANCH   1  14
TORSDOF 6
ENDMDL
MODEL 2
REMARK VINA RESULT:      -6.9      2.163      2.991
REMARK  Name = 5287737
REMARK  6 active torsions:
REMARK  status: ('A' for Active; 'I' for Inactive)
REMARK    1  A    between atoms: C_1  and  C_5
REMARK    2  A    between atoms: C_1  and  N_14
REMARK    3  A    between atoms: N_4  and  C_7
REMARK    4  A    between atoms: C_7  and  N_10
REMARK    5  A    between atoms: C_15  and  O_17
REMARK    6  A    between atoms: O_17  and  C_18
REMARK                            x       y       z     vdW  Elec       q    Type
REMARK                         _______ _______ _______ _____ _____    ______ ____
ROOT
ATOM      1  C   UNL     1      36.273 -23.401 -15.833  0.00  0.00    +0.151 C 
ATOM      2  C   UNL     1      37.251 -22.237 -15.807  0.00  0.00    +0.031 C 
ENDROOT
BRANCH   1   5
ATOM      3  O   UNL     1      36.571 -25.775 -15.446  0.00  0.00    -0.273 OA
ATOM      4  N   UNL     1      37.718 -24.268 -14.104  0.00  0.00    -0.289 N 
ATOM      5  C   UNL     1      36.863 -24.621 -15.139  0.00  0.00    +0.242 C 
ATOM      6  H   UNL     1      37.886 -23.313 -13.938  0.00  0.00    +0.151 HD
BRANCH   4   7
ATOM      7  C   UNL     1      38.377 -25.245 -13.250  0.00  0.00    +0.148 C 
ATOM      8  C   UNL     1      37.354 -25.962 -12.372  0.00  0.00    +0.044 C 
BRANCH   7  10
ATOM      9  O   UNL     1      40.945 -24.855 -14.611  0.00  0.00    -0.265 OA
ATOM     10  N   UNL     1      39.121 -26.203 -14.052  0.00  0.00    -0.283 N 
ATOM     11  C   UNL     1      40.327 -25.911 -14.650  0.00  0.00    +0.301 C 
ATOM     12  H   UNL     1      38.743 -27.104 -14.174  0.00  0.00    +0.151 HD
ENDBRANCH   7  10
ENDBRANCH   4   7
ENDBRANCH   1   5
BRANCH   1  14
ATOM     13  O   UNL     1      33.573 -23.580 -16.890  0.00  0.00    -0.226 OA
ATOM     14  N   UNL     1      35.042 -23.064 -15.168  0.00  0.00    -0.264 N 
ATOM     15  C   UNL     1      33.793 -23.181 -15.751  0.00  0.00    +0.402 C 
ATOM     16  H   UNL     1      35.091 -22.731 -14.243  0.00  0.00    +0.153 HD
BRANCH  15  17
ATOM     17  O   UNL     1      32.829 -22.785 -14.868  0.00  0.00    -0.442 OA
BRANCH  17  18
ATOM     18  C   UNL     1      31.855 -23.775 -14.520  0.00  0.00    +0.138 C 
ATOM     19  C   UNL     1      30.998 -24.067 -15.750  0.00  0.00    +0.044 C 
ATOM     20  C   UNL     1      31.000 -23.205 -13.392  0.00  0.00    +0.044 C 
ATOM     21  C   UNL     1      32.588 -25.035 -14.055  0.00  0.00    +0.044 C 
ENDBRANCH  17  18
ENDBRANCH  15  17
ENDBRANCH   1  14
TORSDOF 6
ENDMDL
MODEL 3
REMARK VINA RESULT:      -6.8      2.079      2.766
REMARK  Name = 5287737
REMARK  6 active torsions:
REMARK  status: ('A' for Active; 'I' for Inactive)
REMARK    1  A    between atoms: C_1  and  C_5
REMARK    2  A    between atoms: C_1  and  N_14
REMARK    3  A    between atoms: N_4  and  C_7
REMARK    4  A    between atoms: C_7  and  N_10
REMARK    5  A    between atoms: C_15  and  O_17
REMARK    6  A    between atoms: O_17  and  C_18
REMARK                            x       y       z     vdW  Elec       q    Type
REMARK                         _______ _______ _______ _____ _____    ______ ____
ROOT
ATOM      1  C   UNL     1      36.417 -23.062 -15.977  0.00  0.00    +0.151 C 
ATOM      2  C   UNL     1      36.919 -21.785 -16.634  0.00  0.00    +0.031 C 
ENDROOT
BRANCH   1   5
ATOM      3  O   UNL     1      37.838 -22.928 -14.018  0.00  0.00    -0.273 OA
ATOM      4  N   UNL     1      37.864 -24.869 -15.290  0.00  0.00    -0.289 N 
ATOM      5  C   UNL     1      37.431 -23.589 -14.971  0.00  0.00    +0.242 C 
ATOM      6  H   UNL     1      37.475 -25.314 -16.077  0.00  0.00    +0.151 HD
BRANCH   4   7
ATOM      7  C   UNL     1      38.869 -25.584 -14.517  0.00  0.00    +0.148 C 
ATOM      8  C   UNL     1      40.272 -25.194 -14.977  0.00  0.00    +0.044 C 
BRANCH   7  10
ATOM      9  O   UNL     1      36.860 -26.688 -12.688  0.00  0.00    -0.265 OA
ATOM     10  N   UNL     1      38.705 -25.315 -13.098  0.00  0.00    -0.283 N 
ATOM     11  C   UNL     1      37.719 -25.893 -12.329  0.00  0.00    +0.301 C 
ATOM     12  H   UNL     1      39.330 -24.688 -12.665  0.00  0.00    +0.151 HD
ENDBRANCH   7  10
ENDBRANCH   4   7
ENDBRANCH   1   5
BRANCH   1  14
ATOM     13  O   UNL     1      34.660 -25.051 -14.796  0.00  0.00    -0.226 OA
ATOM     14  N   UNL     1      35.177 -22.841 -15.282  0.00  0.00    -0.264 N 
ATOM     15  C   UNL     1      34.400 -23.853 -14.749  0.00  0.00    +0.402 C 
ATOM     16  H   UNL     1      34.862 -21.914 -15.180  0.00  0.00    +0.153 HD
BRANCH  15  17
ATOM     17  O   UNL     1      33.289 -23.322 -14.155  0.00  0.00    -0.442 OA
BRANCH  17  18
ATOM     18  C   UNL     1      32.043 -23.599 -14.803  0.00  0.00    +0.138 C 
ATOM     19  C   UNL     1      31.034 -22.528 -14.393  0.00  0.00    +0.044 C 
ATOM     20  C   UNL     1      31.580 -24.978 -14.340  0.00  0.00    +0.044 C 
ATOM     21  C   UNL     1      32.267 -23.587 -16.315  0.00  0.00    +0.044 C 
ENDBRANCH  17  18
ENDBRANCH  15  17
ENDBRANCH   1  14
TORSDOF 6
ENDMDL
MODEL 4
REMARK VINA RESULT:      -6.8     14.453     16.735
REMARK  Name = 5287737
REMARK  6 active torsions:
REMARK  status: ('A' for Active; 'I' for Inactive)
REMARK    1  A    between atoms: C_1  and  C_5
REMARK    2  A    between atoms: C_1  and  N_14
REMARK    3  A    between atoms: N_4  and  C_7
REMARK    4  A    between atoms: C_7  and  N_10
REMARK    5  A    between atoms: C_15  and  O_17
REMARK    6  A    between atoms: O_17  and  C_18
REMARK                            x       y       z     vdW  Elec       q    Type
REMARK                         _______ _______ _______ _____ _____    ______ ____
ROOT
ATOM      1  C   UNL     1      34.133 -11.887 -24.417  0.00  0.00    +0.151 C 
ATOM      2  C   UNL     1      33.749 -11.907 -25.889  0.00  0.00    +0.031 C 
ENDROOT
BRANCH   1   5
ATOM      3  O   UNL     1      34.808  -9.615 -23.909  0.00  0.00    -0.273 OA
ATOM      4  N   UNL     1      32.743 -10.364 -23.160  0.00  0.00    -0.289 N 
ATOM      5  C   UNL     1      33.953 -10.494 -23.829  0.00  0.00    +0.242 C 
ATOM      6  H   UNL     1      32.125 -11.130 -23.154  0.00  0.00    +0.151 HD
BRANCH   4   7
ATOM      7  C   UNL     1      32.346  -9.148 -22.467  0.00  0.00    +0.148 C 
ATOM      8  C   UNL     1      31.312  -8.379 -23.289  0.00  0.00    +0.044 C 
BRANCH   7  10
ATOM      9  O   UNL     1      32.849  -7.750 -19.938  0.00  0.00    -0.265 OA
ATOM     10  N   UNL     1      31.817  -9.462 -21.150  0.00  0.00    -0.283 N 
ATOM     11  C   UNL     1      32.122  -8.733 -20.022  0.00  0.00    +0.301 C 
ATOM     12  H   UNL     1      31.213 -10.234 -21.060  0.00  0.00    +0.151 HD
ENDBRANCH   7  10
ENDBRANCH   4   7
ENDBRANCH   1   5
BRANCH   1  14
ATOM     13  O   UNL     1      34.811 -14.581 -23.567  0.00  0.00    -0.226 OA
ATOM     14  N   UNL     1      33.324 -12.800 -23.654  0.00  0.00    -0.264 N 
ATOM     15  C   UNL     1      33.729 -14.071 -23.291  0.00  0.00    +0.402 C 
ATOM     16  H   UNL     1      32.430 -12.501 -23.371  0.00  0.00    +0.153 HD
BRANCH  15  17
ATOM     17  O   UNL     1      32.743 -14.687 -22.574  0.00  0.00    -0.442 OA
BRANCH  17  18
ATOM     18  C   UNL     1      32.897 -14.663 -21.151  0.00  0.00    +0.138 C 
ATOM     19  C   UNL     1      34.384 -14.787 -20.821  0.00  0.00    +0.044 C 
ATOM     20  C   UNL     1      32.121 -15.849 -20.583  0.00  0.00    +0.044 C 
ATOM     21  C   UNL     1      32.329 -13.346 -20.622  0.00  0.00    +0.044 C 
ENDBRANCH  17  18
ENDBRANCH  15  17
ENDBRANCH   1  14
TORSDOF 6
ENDMDL
MODEL 5
REMARK VINA RESULT:      -6.8     13.280     15.518
REMARK  Name = 5287737
REMARK  6 active torsions:
REMARK  status: ('A' for Active; 'I' for Inactive)
REMARK    1  A    between atoms: C_1  and  C_5
REMARK    2  A    between atoms: C_1  and  N_14
REMARK    3  A    between atoms: N_4  and  C_7
REMARK    4  A    between atoms: C_7  and  N_10
REMARK    5  A    between atoms: C_15  and  O_17
REMARK    6  A    between atoms: O_17  and  C_18
REMARK                            x       y       z     vdW  Elec       q    Type
REMARK                         _______ _______ _______ _____ _____    ______ ____
ROOT
ATOM      1  C   UNL     1      33.726 -14.277 -24.369  0.00  0.00    +0.151 C 
ATOM      2  C   UNL     1      32.770 -14.493 -25.533  0.00  0.00    +0.031 C 
ENDROOT
BRANCH   1   5
ATOM      3  O   UNL     1      32.639 -12.813 -22.773  0.00  0.00    -0.273 OA
ATOM      4  N   UNL     1      34.197 -11.913 -24.239  0.00  0.00    -0.289 N 
ATOM      5  C   UNL     1      33.454 -12.946 -23.683  0.00  0.00    +0.242 C 
ATOM      6  H   UNL     1      34.825 -12.125 -24.966  0.00  0.00    +0.151 HD
BRANCH   4   7
ATOM      7  C   UNL     1      34.089 -10.530 -23.798  0.00  0.00    +0.148 C 
ATOM      8  C   UNL     1      35.018  -9.636 -24.616  0.00  0.00    +0.044 C 
BRANCH   7  10
ATOM      9  O   UNL     1      32.560  -8.951 -21.857  0.00  0.00    -0.265 OA
ATOM     10  N   UNL     1      32.715 -10.068 -23.903  0.00  0.00    -0.283 N 
ATOM     11  C   UNL     1      32.091  -9.327 -22.924  0.00  0.00    +0.301 C 
ATOM     12  H   UNL     1      32.204 -10.297 -24.714  0.00  0.00    +0.151 HD
ENDBRANCH   7  10
ENDBRANCH   4   7
ENDBRANCH   1   5
BRANCH   1  14
ATOM     13  O   UNL     1      35.773 -16.119 -23.444  0.00  0.00    -0.226 OA
ATOM     14  N   UNL     1      33.595 -15.319 -23.385  0.00  0.00    -0.264 N 
ATOM     15  C   UNL     1      34.629 -16.154 -23.003  0.00  0.00    +0.402 C 
ATOM     16  H   UNL     1      32.717 -15.444 -22.957  0.00  0.00    +0.153 HD
BRANCH  15  17
ATOM     17  O   UNL     1      34.189 -17.034 -22.055  0.00  0.00    -0.442 OA
BRANCH  17  18
ATOM     18  C   UNL     1      34.670 -18.377 -22.178  0.00  0.00    +0.138 C 
ATOM     19  C   UNL     1      34.575 -18.795 -23.644  0.00  0.00    +0.044 C 
ATOM     20  C   UNL     1      33.783 -19.265 -21.308  0.00  0.00    +0.044 C 
ATOM     21  C   UNL     1      36.118 -18.421 -21.691  0.00  0.00    +0.044 C 
ENDBRANCH  17  18
ENDBRANCH  15  17
ENDBRANCH   1  14
TORSDOF 6
ENDMDL
MODEL 6
REMARK VINA RESULT:      -6.7     11.700     13.940
REMARK  Name = 5287737
REMARK  6 active torsions:
REMARK  status: ('A' for Active; 'I' for Inactive)
REMARK    1  A    between atoms: C_1  and  C_5
REMARK    2  A    between atoms: C_1  and  N_14
REMARK    3  A    between atoms: N_4  and  C_7
REMARK    4  A    between atoms: C_7  and  N_10
REMARK    5  A    between atoms: C_15  and  O_17
REMARK    6  A    between atoms: O_17  and  C_18
REMARK                            x       y       z     vdW  Elec       q    Type
REMARK                         _______ _______ _______ _____ _____    ______ ____
ROOT
ATOM      1  C   UNL     1      34.539 -16.372 -24.492  0.00  0.00    +0.151 C 
ATOM      2  C   UNL     1      33.802 -16.267 -25.819  0.00  0.00    +0.031 C 
ENDROOT
BRANCH   1   5
ATOM      3  O   UNL     1      34.978 -14.849 -22.659  0.00  0.00    -0.273 OA
ATOM      4  N   UNL     1      33.176 -14.426 -24.059  0.00  0.00    -0.289 N 
ATOM      5  C   UNL     1      34.289 -15.139 -23.634  0.00  0.00    +0.242 C 
ATOM      6  H   UNL     1      32.691 -14.743 -24.855  0.00  0.00    +0.151 HD
BRANCH   4   7
ATOM      7  C   UNL     1      32.692 -13.233 -23.382  0.00  0.00    +0.148 C 
ATOM      8  C   UNL     1      32.318 -13.555 -21.937  0.00  0.00    +0.044 C 
BRANCH   7  10
ATOM      9  O   UNL     1      33.729 -11.824 -25.736  0.00  0.00    -0.265 OA
ATOM     10  N   UNL     1      33.693 -12.180 -23.427  0.00  0.00    -0.283 N 
ATOM     11  C   UNL     1      34.109 -11.584 -24.597  0.00  0.00    +0.301 C 
ATOM     12  H   UNL     1      34.094 -11.879 -22.579  0.00  0.00    +0.151 HD
ENDBRANCH   7  10
ENDBRANCH   4   7
ENDBRANCH   1   5
BRANCH   1  14
ATOM     13  O   UNL     1      36.185 -18.531 -23.460  0.00  0.00    -0.226 OA
ATOM     14  N   UNL     1      34.112 -17.526 -23.747  0.00  0.00    -0.264 N 
ATOM     15  C   UNL     1      34.970 -18.511 -23.292  0.00  0.00    +0.402 C 
ATOM     16  H   UNL     1      33.153 -17.620 -23.547  0.00  0.00    +0.153 HD
BRANCH  15  17
ATOM     17  O   UNL     1      34.263 -19.468 -22.620  0.00  0.00    -0.442 OA
BRANCH  17  18
ATOM     18  C   UNL     1      34.210 -19.322 -21.197  0.00  0.00    +0.138 C 
ATOM     19  C   UNL     1      32.877 -19.880 -20.701  0.00  0.00    +0.044 C 
ATOM     20  C   UNL     1      34.320 -17.833 -20.882  0.00  0.00    +0.044 C 
ATOM     21  C   UNL     1      35.383 -20.089 -20.586  0.00  0.00    +0.044 C 
ENDBRANCH  17  18
ENDBRANCH  15  17
ENDBRANCH   1  14
TORSDOF 6
ENDMDL
MODEL 7
REMARK VINA RESULT:      -6.7      1.775      2.382
REMARK  Name = 5287737
REMARK  6 active torsions:
REMARK  status: ('A' for Active; 'I' for Inactive)
REMARK    1  A    between atoms: C_1  and  C_5
REMARK    2  A    between atoms: C_1  and  N_14
REMARK    3  A    between atoms: N_4  and  C_7
REMARK    4  A    between atoms: C_7  and  N_10
REMARK    5  A    between atoms: C_15  and  O_17
REMARK    6  A    between atoms: O_17  and  C_18
REMARK                            x       y       z     vdW  Elec       q    Type
REMARK                         _______ _______ _______ _____ _____    ______ ____
ROOT
ATOM      1  C   UNL     1      34.918 -24.087 -13.410  0.00  0.00    +0.151 C 
ATOM      2  C   UNL     1      35.190 -24.528 -11.979  0.00  0.00    +0.031 C 
ENDROOT
BRANCH   1   5
ATOM      3  O   UNL     1      36.115 -24.223 -15.513  0.00  0.00    -0.273 OA
ATOM      4  N   UNL     1      36.782 -25.583 -13.755  0.00  0.00    -0.289 N 
ATOM      5  C   UNL     1      35.996 -24.606 -14.351  0.00  0.00    +0.242 C 
ATOM      6  H   UNL     1      36.606 -25.819 -12.816  0.00  0.00    +0.151 HD
BRANCH   4   7
ATOM      7  C   UNL     1      37.854 -26.275 -14.453  0.00  0.00    +0.148 C 
ATOM      8  C   UNL     1      37.282 -27.189 -15.536  0.00  0.00    +0.044 C 
BRANCH   7  10
ATOM      9  O   UNL     1      40.772 -26.493 -14.658  0.00  0.00    -0.265 OA
ATOM     10  N   UNL     1      38.785 -25.321 -15.032  0.00  0.00    -0.283 N 
ATOM     11  C   UNL     1      40.147 -25.526 -15.076  0.00  0.00    +0.301 C 
ATOM     12  H   UNL     1      38.425 -24.486 -15.412  0.00  0.00    +0.151 HD
ENDBRANCH   7  10
ENDBRANCH   4   7
ENDBRANCH   1   5
BRANCH   1  14
ATOM     13  O   UNL     1      32.291 -22.937 -12.951  0.00  0.00    -0.226 OA
ATOM     14  N   UNL     1      33.648 -24.577 -13.876  0.00  0.00    -0.264 N 
ATOM     15  C   UNL     1      32.439 -23.962 -13.609  0.00  0.00    +0.402 C 
ATOM     16  H   UNL     1      33.639 -25.399 -14.418  0.00  0.00    +0.153 HD
BRANCH  15  17
ATOM     17  O   UNL     1      31.421 -24.667 -14.187  0.00  0.00    -0.442 OA
BRANCH  17  18
ATOM     18  C   UNL     1      30.740 -24.011 -15.262  0.00  0.00    +0.138 C 
ATOM     19  C   UNL     1      29.926 -22.853 -14.688  0.00  0.00    +0.044 C 
ATOM     20  C   UNL     1      29.822 -25.038 -15.920  0.00  0.00    +0.044 C 
ATOM     21  C   UNL     1      31.781 -23.503 -16.260  0.00  0.00    +0.044 C 
ENDBRANCH  17  18
ENDBRANCH  15  17
ENDBRANCH   1  14
TORSDOF 6
ENDMDL
MODEL 8
REMARK VINA RESULT:      -6.6     11.668     13.945
REMARK  Name = 5287737
REMARK  6 active torsions:
REMARK  status: ('A' for Active; 'I' for Inactive)
REMARK    1  A    between atoms: C_1  and  C_5
REMARK    2  A    between atoms: C_1  and  N_14
REMARK    3  A    between atoms: N_4  and  C_7
REMARK    4  A    between atoms: C_7  and  N_10
REMARK    5  A    between atoms: C_15  and  O_17
REMARK    6  A    between atoms: O_17  and  C_18
REMARK                            x       y       z     vdW  Elec       q    Type
REMARK                         _______ _______ _______ _____ _____    ______ ____
ROOT
ATOM      1  C   UNL     1      34.753 -15.577 -22.996  0.00  0.00    +0.151 C 
ATOM      2  C   UNL     1      34.195 -16.038 -24.334  0.00  0.00    +0.031 C 
ENDROOT
BRANCH   1   5
ATOM      3  O   UNL     1      33.535 -14.133 -21.477  0.00  0.00    -0.273 OA
ATOM      4  N   UNL     1      34.192 -13.291 -23.538  0.00  0.00    -0.289 N 
ATOM      5  C   UNL     1      34.103 -14.271 -22.558  0.00  0.00    +0.242 C 
ATOM      6  H   UNL     1      34.670 -13.503 -24.372  0.00  0.00    +0.151 HD
BRANCH   4   7
ATOM      7  C   UNL     1      33.609 -11.966 -23.390  0.00  0.00    +0.148 C 
ATOM      8  C   UNL     1      33.666 -11.209 -24.716  0.00  0.00    +0.044 C 
BRANCH   7  10
ATOM      9  O   UNL     1      32.120 -10.035 -21.761  0.00  0.00    -0.265 OA
ATOM     10  N   UNL     1      32.238 -12.063 -22.917  0.00  0.00    -0.283 N 
ATOM     11  C   UNL     1      31.634 -11.089 -22.152  0.00  0.00    +0.301 C 
ATOM     12  H   UNL     1      31.716 -12.863 -23.155  0.00  0.00    +0.151 HD
ENDBRANCH   7  10
ENDBRANCH   4   7
ENDBRANCH   1   5
BRANCH   1  14
ATOM     13  O   UNL     1      36.454 -17.809 -22.250  0.00  0.00    -0.226 OA
ATOM     14  N   UNL     1      34.521 -16.555 -21.967  0.00  0.00    -0.264 N 
ATOM     15  C   UNL     1      35.391 -17.591 -21.678  0.00  0.00    +0.402 C 
ATOM     16  H   UNL     1      33.695 -16.484 -21.437  0.00  0.00    +0.153 HD
BRANCH  15  17
ATOM     17  O   UNL     1      34.891 -18.346 -20.655  0.00  0.00    -0.442 OA
BRANCH  17  18
ATOM     18  C   UNL     1      34.416 -19.648 -21.013  0.00  0.00    +0.138 C 
ATOM     19  C   UNL     1      35.279 -20.692 -20.307  0.00  0.00    +0.044 C 
ATOM     20  C   UNL     1      34.540 -19.783 -22.528  0.00  0.00    +0.044 C 
ATOM     21  C   UNL     1      32.954 -19.767 -20.581  0.00  0.00    +0.044 C 
ENDBRANCH  17  18
ENDBRANCH  15  17
ENDBRANCH   1  14
TORSDOF 6
ENDMDL
MODEL 9
REMARK VINA RESULT:      -6.6      2.416      6.039
REMARK  Name = 5287737
REMARK  6 active torsions:
REMARK  status: ('A' for Active; 'I' for Inactive)
REMARK    1  A    between atoms: C_1  and  C_5
REMARK    2  A    between atoms: C_1  and  N_14
REMARK    3  A    between atoms: N_4  and  C_7
REMARK    4  A    between atoms: C_7  and  N_10
REMARK    5  A    between atoms: C_15  and  O_17
REMARK    6  A    between atoms: O_17  and  C_18
REMARK                            x       y       z     vdW  Elec       q    Type
REMARK                         _______ _______ _______ _____ _____    ______ ____
ROOT
ATOM      1  C   UNL     1      36.108 -22.272 -16.079  0.00  0.00    +0.151 C 
ATOM      2  C   UNL     1      36.377 -21.956 -17.542  0.00  0.00    +0.031 C 
ENDROOT
BRANCH   1   5
ATOM      3  O   UNL     1      34.752 -24.235 -16.507  0.00  0.00    -0.273 OA
ATOM      4  N   UNL     1      33.912 -22.574 -15.121  0.00  0.00    -0.289 N 
ATOM      5  C   UNL     1      34.877 -23.156 -15.933  0.00  0.00    +0.242 C 
ATOM      6  H   UNL     1      34.110 -21.704 -14.706  0.00  0.00    +0.151 HD
BRANCH   4   7
ATOM      7  C   UNL     1      32.620 -23.189 -14.856  0.00  0.00    +0.148 C 
ATOM      8  C   UNL     1      31.745 -23.150 -16.107  0.00  0.00    +0.044 C 
BRANCH   7  10
ATOM      9  O   UNL     1      30.907 -24.713 -13.027  0.00  0.00    -0.265 OA
ATOM     10  N   UNL     1      32.793 -24.558 -14.399  0.00  0.00    -0.283 N 
ATOM     11  C   UNL     1      31.921 -25.180 -13.532  0.00  0.00    +0.301 C 
ATOM     12  H   UNL     1      33.572 -25.066 -14.723  0.00  0.00    +0.151 HD
ENDBRANCH   7  10
ENDBRANCH   4   7
ENDBRANCH   1   5
BRANCH   1  14
ATOM     13  O   UNL     1      36.372 -23.167 -13.328  0.00  0.00    -0.226 OA
ATOM     14  N   UNL     1      37.221 -22.958 -15.479  0.00  0.00    -0.264 N 
ATOM     15  C   UNL     1      37.262 -23.350 -14.153  0.00  0.00    +0.402 C 
ATOM     16  H   UNL     1      37.999 -23.162 -16.046  0.00  0.00    +0.153 HD
BRANCH  15  17
ATOM     17  O   UNL     1      38.447 -23.976 -13.890  0.00  0.00    -0.442 OA
BRANCH  17  18
ATOM     18  C   UNL     1      38.405 -25.407 -13.860  0.00  0.00    +0.138 C 
ATOM     19  C   UNL     1      37.379 -25.885 -14.885  0.00  0.00    +0.044 C 
ATOM     20  C   UNL     1      37.993 -25.826 -12.451  0.00  0.00    +0.044 C 
ATOM     21  C   UNL     1      39.799 -25.941 -14.193  0.00  0.00    +0.044 C 
ENDBRANCH  17  18
ENDBRANCH  15  17
ENDBRANCH   1  14
TORSDOF 6
ENDMDL
