MODEL 1
REMARK VINA RESULT:      -8.1      0.000      0.000
REMARK  Name = 119055
REMARK  4 active torsions:
REMARK  status: ('A' for Active; 'I' for Inactive)
REMARK    1  A    between atoms: C_7  and  C_17
REMARK    2  A    between atoms: C_17  and  O_18
REMARK    3  A    between atoms: C_17  and  C_20
REMARK    4  A    between atoms: C_20  and  O_22
REMARK                            x       y       z     vdW  Elec       q    Type
REMARK                         _______ _______ _______ _____ _____    ______ ____
ROOT
ATOM      1  O   UNL     1      34.331 -23.141 -18.608  0.00  0.00    -0.207 OA
ATOM      2  N   UNL     1      33.823 -23.616 -13.955  0.00  0.00    -0.271 NA
ATOM      3  N   UNL     1      35.492 -23.622 -16.180  0.00  0.00    -0.395 NA
ATOM      4  N   UNL     1      31.965 -23.133 -15.421  0.00  0.00    -0.279 N 
ATOM      5  N   UNL     1      32.216 -22.894 -17.753  0.00  0.00    -0.301 NA
ATOM      6  N   UNL     1      30.118 -22.674 -16.713  0.00  0.00    -0.320 N 
ATOM      7  C   UNL     1      36.001 -23.851 -15.007  0.00  0.00    +0.132 C 
ATOM      8  C   UNL     1      35.215 -23.884 -13.710  0.00  0.00    +0.128 C 
ATOM      9  C   UNL     1      33.300 -23.380 -15.205  0.00  0.00    +0.197 C 
ATOM     10  C   UNL     1      34.140 -23.391 -16.263  0.00  0.00    +0.235 C 
ATOM     11  C   UNL     1      33.576 -23.132 -17.639  0.00  0.00    +0.236 C 
ATOM     12  C   UNL     1      31.470 -22.900 -16.680  0.00  0.00    +0.245 C 
ATOM     13  H   UNL     1      33.209 -23.600 -13.184  0.00  0.00    +0.125 HD
ATOM     14  H   UNL     1      31.348 -23.124 -14.654  0.00  0.00    +0.152 HD
ATOM     15  H   UNL     1      29.597 -22.689 -15.878  0.00  0.00    +0.146 HD
ATOM     16  H   UNL     1      29.669 -22.497 -17.571  0.00  0.00    +0.146 HD
ENDROOT
BRANCH   7  17
ATOM     17  C   UNL     1      37.483 -24.106 -14.910  0.00  0.00    +0.186 C 
BRANCH  17  18
ATOM     18  O   UNL     1      37.943 -23.339 -13.810  0.00  0.00    -0.376 OA
ATOM     19  H   UNL     1      37.649 -23.751 -12.984  0.00  0.00    +0.211 HD
ENDBRANCH  17  18
BRANCH  17  20
ATOM     20  C   UNL     1      37.800 -25.578 -14.677  0.00  0.00    +0.144 C 
ATOM     21  C   UNL     1      39.290 -25.841 -14.504  0.00  0.00    +0.035 C 
BRANCH  20  22
ATOM     22  O   UNL     1      37.309 -26.359 -15.767  0.00  0.00    -0.382 OA
ATOM     23  H   UNL     1      38.053 -26.652 -16.316  0.00  0.00    +0.210 HD
ENDBRANCH  20  22
ENDBRANCH  17  20
ENDBRANCH   7  17
TORSDOF 4
ENDMDL
MODEL 2
REMARK VINA RESULT:      -8.0      7.433      9.376
REMARK  Name = 119055
REMARK  4 active torsions:
REMARK  status: ('A' for Active; 'I' for Inactive)
REMARK    1  A    between atoms: C_7  and  C_17
REMARK    2  A    between atoms: C_17  and  O_18
REMARK    3  A    between atoms: C_17  and  C_20
REMARK    4  A    between atoms: C_20  and  O_22
REMARK                            x       y       z     vdW  Elec       q    Type
REMARK                         _______ _______ _______ _____ _____    ______ ____
ROOT
ATOM      1  O   UNL     1      34.714 -15.491 -19.827  0.00  0.00    -0.207 OA
ATOM      2  N   UNL     1      34.659 -18.042 -23.779  0.00  0.00    -0.271 NA
ATOM      3  N   UNL     1      34.869 -17.951 -21.007  0.00  0.00    -0.395 NA
ATOM      4  N   UNL     1      34.414 -15.639 -23.782  0.00  0.00    -0.279 N 
ATOM      5  N   UNL     1      34.440 -14.358 -21.803  0.00  0.00    -0.301 NA
ATOM      6  N   UNL     1      34.172 -13.355 -23.914  0.00  0.00    -0.320 N 
ATOM      7  C   UNL     1      34.941 -19.100 -21.610  0.00  0.00    +0.132 C 
ATOM      8  C   UNL     1      34.850 -19.302 -23.111  0.00  0.00    +0.128 C 
ATOM      9  C   UNL     1      34.589 -16.834 -23.125  0.00  0.00    +0.197 C 
ATOM     10  C   UNL     1      34.694 -16.828 -21.779  0.00  0.00    +0.235 C 
ATOM     11  C   UNL     1      34.618 -15.508 -21.051  0.00  0.00    +0.236 C 
ATOM     12  C   UNL     1      34.347 -14.447 -23.103  0.00  0.00    +0.245 C 
ATOM     13  H   UNL     1      34.574 -18.044 -24.761  0.00  0.00    +0.125 HD
ATOM     14  H   UNL     1      34.336 -15.637 -24.763  0.00  0.00    +0.152 HD
ATOM     15  H   UNL     1      34.107 -13.473 -24.890  0.00  0.00    +0.146 HD
ATOM     16  H   UNL     1      34.111 -12.455 -23.521  0.00  0.00    +0.146 HD
ENDROOT
BRANCH   7  17
ATOM     17  C   UNL     1      35.133 -20.336 -20.769  0.00  0.00    +0.186 C 
BRANCH  17  18
ATOM     18  O   UNL     1      36.230 -20.064 -19.915  0.00  0.00    -0.376 OA
ATOM     19  H   UNL     1      36.294 -20.757 -19.240  0.00  0.00    +0.211 HD
ENDBRANCH  17  18
BRANCH  17  20
ATOM     20  C   UNL     1      33.900 -20.662 -19.935  0.00  0.00    +0.144 C 
ATOM     21  C   UNL     1      33.919 -22.080 -19.381  0.00  0.00    +0.035 C 
BRANCH  20  22
ATOM     22  O   UNL     1      32.720 -20.479 -20.718  0.00  0.00    -0.382 OA
ATOM     23  H   UNL     1      32.452 -19.548 -20.686  0.00  0.00    +0.210 HD
ENDBRANCH  20  22
ENDBRANCH  17  20
ENDBRANCH   7  17
TORSDOF 4
ENDMDL
MODEL 3
REMARK VINA RESULT:      -8.0      2.151      5.415
REMARK  Name = 119055
REMARK  4 active torsions:
REMARK  status: ('A' for Active; 'I' for Inactive)
REMARK    1  A    between atoms: C_7  and  C_17
REMARK    2  A    between atoms: C_17  and  O_18
REMARK    3  A    between atoms: C_17  and  C_20
REMARK    4  A    between atoms: C_20  and  O_22
REMARK                            x       y       z     vdW  Elec       q    Type
REMARK                         _______ _______ _______ _____ _____    ______ ____
ROOT
ATOM      1  O   UNL     1      38.016 -22.944 -15.871  0.00  0.00    -0.207 OA
ATOM      2  N   UNL     1      33.615 -23.428 -14.281  0.00  0.00    -0.271 NA
ATOM      3  N   UNL     1      35.343 -23.073 -16.431  0.00  0.00    -0.395 NA
ATOM      4  N   UNL     1      35.535 -23.454 -12.816  0.00  0.00    -0.279 N 
ATOM      5  N   UNL     1      37.741 -23.213 -13.610  0.00  0.00    -0.301 NA
ATOM      6  N   UNL     1      37.282 -23.495 -11.320  0.00  0.00    -0.320 N 
ATOM      7  C   UNL     1      34.064 -23.135 -16.651  0.00  0.00    +0.132 C 
ATOM      8  C   UNL     1      33.006 -23.319 -15.581  0.00  0.00    +0.128 C 
ATOM      9  C   UNL     1      34.972 -23.356 -14.066  0.00  0.00    +0.197 C 
ATOM     10  C   UNL     1      35.781 -23.183 -15.133  0.00  0.00    +0.235 C 
ATOM     11  C   UNL     1      37.271 -23.103 -14.908  0.00  0.00    +0.236 C 
ATOM     12  C   UNL     1      36.893 -23.379 -12.630  0.00  0.00    +0.245 C 
ATOM     13  H   UNL     1      33.027 -23.562 -13.502  0.00  0.00    +0.125 HD
ATOM     14  H   UNL     1      34.951 -23.581 -12.034  0.00  0.00    +0.152 HD
ATOM     15  H   UNL     1      36.605 -23.619 -10.616  0.00  0.00    +0.146 HD
ATOM     16  H   UNL     1      38.237 -23.453 -11.084  0.00  0.00    +0.146 HD
ENDROOT
BRANCH   7  17
ATOM     17  C   UNL     1      33.578 -23.015 -18.073  0.00  0.00    +0.186 C 
BRANCH  17  18
ATOM     18  O   UNL     1      32.208 -22.662 -17.991  0.00  0.00    -0.376 OA
ATOM     19  H   UNL     1      32.050 -21.860 -18.511  0.00  0.00    +0.211 HD
ENDBRANCH  17  18
BRANCH  17  20
ATOM     20  C   UNL     1      34.338 -21.947 -18.852  0.00  0.00    +0.144 C 
ATOM     21  C   UNL     1      33.434 -21.125 -19.762  0.00  0.00    +0.035 C 
BRANCH  20  22
ATOM     22  O   UNL     1      35.365 -22.555 -19.635  0.00  0.00    -0.382 OA
ATOM     23  H   UNL     1      35.830 -23.217 -19.101  0.00  0.00    +0.210 HD
ENDBRANCH  20  22
ENDBRANCH  17  20
ENDBRANCH   7  17
TORSDOF 4
ENDMDL
MODEL 4
REMARK VINA RESULT:      -8.0      9.531     12.083
REMARK  Name = 119055
REMARK  4 active torsions:
REMARK  status: ('A' for Active; 'I' for Inactive)
REMARK    1  A    between atoms: C_7  and  C_17
REMARK    2  A    between atoms: C_17  and  O_18
REMARK    3  A    between atoms: C_17  and  C_20
REMARK    4  A    between atoms: C_20  and  O_22
REMARK                            x       y       z     vdW  Elec       q    Type
REMARK                         _______ _______ _______ _____ _____    ______ ____
ROOT
ATOM      1  O   UNL     1      34.587 -18.608 -24.626  0.00  0.00    -0.207 OA
ATOM      2  N   UNL     1      34.525 -15.151 -21.437  0.00  0.00    -0.271 NA
ATOM      3  N   UNL     1      33.987 -16.010 -24.027  0.00  0.00    -0.395 NA
ATOM      4  N   UNL     1      35.346 -17.366 -20.934  0.00  0.00    -0.279 N 
ATOM      5  N   UNL     1      35.378 -19.100 -22.530  0.00  0.00    -0.301 NA
ATOM      6  N   UNL     1      36.155 -19.434 -20.334  0.00  0.00    -0.320 N 
ATOM      7  C   UNL     1      33.721 -14.780 -23.700  0.00  0.00    +0.132 C 
ATOM      8  C   UNL     1      33.966 -14.172 -22.332  0.00  0.00    +0.128 C 
ATOM      9  C   UNL     1      34.804 -16.447 -21.801  0.00  0.00    +0.197 C 
ATOM     10  C   UNL     1      34.530 -16.829 -23.067  0.00  0.00    +0.235 C 
ATOM     11  C   UNL     1      34.832 -18.250 -23.477  0.00  0.00    +0.236 C 
ATOM     12  C   UNL     1      35.615 -18.654 -21.325  0.00  0.00    +0.245 C 
ATOM     13  H   UNL     1      34.720 -14.876 -20.511  0.00  0.00    +0.125 HD
ATOM     14  H   UNL     1      35.549 -17.093 -20.010  0.00  0.00    +0.152 HD
ATOM     15  H   UNL     1      36.315 -19.053 -19.441  0.00  0.00    +0.146 HD
ATOM     16  H   UNL     1      36.382 -20.374 -20.517  0.00  0.00    +0.146 HD
ENDROOT
BRANCH   7  17
ATOM     17  C   UNL     1      33.125 -13.876 -24.748  0.00  0.00    +0.186 C 
BRANCH  17  18
ATOM     18  O   UNL     1      33.769 -12.623 -24.599  0.00  0.00    -0.376 OA
ATOM     19  H   UNL     1      33.189 -12.018 -24.112  0.00  0.00    +0.211 HD
ENDBRANCH  17  18
BRANCH  17  20
ATOM     20  C   UNL     1      33.351 -14.405 -26.160  0.00  0.00    +0.144 C 
ATOM     21  C   UNL     1      33.360 -13.301 -27.209  0.00  0.00    +0.035 C 
BRANCH  20  22
ATOM     22  O   UNL     1      32.340 -15.358 -26.489  0.00  0.00    -0.382 OA
ATOM     23  H   UNL     1      32.740 -16.101 -26.968  0.00  0.00    +0.210 HD
ENDBRANCH  20  22
ENDBRANCH  17  20
ENDBRANCH   7  17
TORSDOF 4
ENDMDL
MODEL 5
REMARK VINA RESULT:      -8.0      2.653      6.055
REMARK  Name = 119055
REMARK  4 active torsions:
REMARK  status: ('A' for Active; 'I' for Inactive)
REMARK    1  A    between atoms: C_7  and  C_17
REMARK    2  A    between atoms: C_17  and  O_18
REMARK    3  A    between atoms: C_17  and  C_20
REMARK    4  A    between atoms: C_20  and  O_22
REMARK                            x       y       z     vdW  Elec       q    Type
REMARK                         _______ _______ _______ _____ _____    ______ ____
ROOT
ATOM      1  O   UNL     1      36.253 -27.378 -15.271  0.00  0.00    -0.207 OA
ATOM      2  N   UNL     1      37.597 -22.871 -15.150  0.00  0.00    -0.271 NA
ATOM      3  N   UNL     1      35.603 -24.748 -15.636  0.00  0.00    -0.395 NA
ATOM      4  N   UNL     1      39.086 -24.685 -14.579  0.00  0.00    -0.279 N 
ATOM      5  N   UNL     1      38.415 -26.944 -14.639  0.00  0.00    -0.301 NA
ATOM      6  N   UNL     1      40.597 -26.325 -14.015  0.00  0.00    -0.320 N 
ATOM      7  C   UNL     1      35.338 -23.486 -15.801  0.00  0.00    +0.132 C 
ATOM      8  C   UNL     1      36.324 -22.355 -15.581  0.00  0.00    +0.128 C 
ATOM      9  C   UNL     1      37.861 -24.211 -14.984  0.00  0.00    +0.197 C 
ATOM     10  C   UNL     1      36.869 -25.094 -15.229  0.00  0.00    +0.235 C 
ATOM     11  C   UNL     1      37.148 -26.566 -15.050  0.00  0.00    +0.236 C 
ATOM     12  C   UNL     1      39.322 -26.028 -14.422  0.00  0.00    +0.245 C 
ATOM     13  H   UNL     1      38.320 -22.228 -14.964  0.00  0.00    +0.125 HD
ATOM     14  H   UNL     1      39.813 -24.047 -14.399  0.00  0.00    +0.152 HD
ATOM     15  H   UNL     1      41.246 -25.600 -13.864  0.00  0.00    +0.146 HD
ATOM     16  H   UNL     1      40.864 -27.262 -13.874  0.00  0.00    +0.146 HD
ENDROOT
BRANCH   7  17
ATOM     17  C   UNL     1      33.951 -23.101 -16.247  0.00  0.00    +0.186 C 
BRANCH  17  18
ATOM     18  O   UNL     1      33.773 -23.685 -17.526  0.00  0.00    -0.376 OA
ATOM     19  H   UNL     1      34.567 -23.538 -18.062  0.00  0.00    +0.211 HD
ENDBRANCH  17  18
BRANCH  17  20
ATOM     20  C   UNL     1      32.877 -23.613 -15.295  0.00  0.00    +0.144 C 
ATOM     21  C   UNL     1      31.482 -23.120 -15.658  0.00  0.00    +0.035 C 
BRANCH  20  22
ATOM     22  O   UNL     1      33.182 -23.215 -13.958  0.00  0.00    -0.382 OA
ATOM     23  H   UNL     1      32.379 -22.882 -13.528  0.00  0.00    +0.210 HD
ENDBRANCH  20  22
ENDBRANCH  17  20
ENDBRANCH   7  17
TORSDOF 4
ENDMDL
MODEL 6
REMARK VINA RESULT:      -7.9      3.259      6.405
REMARK  Name = 119055
REMARK  4 active torsions:
REMARK  status: ('A' for Active; 'I' for Inactive)
REMARK    1  A    between atoms: C_7  and  C_17
REMARK    2  A    between atoms: C_17  and  O_18
REMARK    3  A    between atoms: C_17  and  C_20
REMARK    4  A    between atoms: C_20  and  O_22
REMARK                            x       y       z     vdW  Elec       q    Type
REMARK                         _______ _______ _______ _____ _____    ______ ____
ROOT
ATOM      1  O   UNL     1      35.321 -25.039 -10.839  0.00  0.00    -0.207 OA
ATOM      2  N   UNL     1      35.363 -24.289 -15.483  0.00  0.00    -0.271 NA
ATOM      3  N   UNL     1      33.963 -24.258 -13.079  0.00  0.00    -0.395 NA
ATOM      4  N   UNL     1      37.303 -25.073 -14.277  0.00  0.00    -0.279 N 
ATOM      5  N   UNL     1      37.285 -25.449 -11.950  0.00  0.00    -0.301 NA
ATOM      6  N   UNL     1      39.216 -25.822 -13.241  0.00  0.00    -0.320 N 
ATOM      7  C   UNL     1      33.355 -23.899 -14.170  0.00  0.00    +0.132 C 
ATOM      8  C   UNL     1      33.987 -23.872 -15.549  0.00  0.00    +0.128 C 
ATOM      9  C   UNL     1      35.990 -24.670 -14.319  0.00  0.00    +0.197 C 
ATOM     10  C   UNL     1      35.279 -24.643 -13.171  0.00  0.00    +0.235 C 
ATOM     11  C   UNL     1      35.958 -25.058 -11.888  0.00  0.00    +0.236 C 
ATOM     12  C   UNL     1      37.904 -25.448 -13.101  0.00  0.00    +0.245 C 
ATOM     13  H   UNL     1      35.885 -24.303 -16.318  0.00  0.00    +0.125 HD
ATOM     14  H   UNL     1      37.826 -25.095 -15.110  0.00  0.00    +0.152 HD
ATOM     15  H   UNL     1      39.639 -25.805 -14.130  0.00  0.00    +0.146 HD
ATOM     16  H   UNL     1      39.733 -26.108 -12.454  0.00  0.00    +0.146 HD
ENDROOT
BRANCH   7  17
ATOM     17  C   UNL     1      31.911 -23.477 -14.076  0.00  0.00    +0.186 C 
BRANCH  17  18
ATOM     18  O   UNL     1      31.643 -22.731 -15.251  0.00  0.00    -0.376 OA
ATOM     19  H   UNL     1      32.456 -22.298 -15.551  0.00  0.00    +0.211 HD
ENDBRANCH  17  18
BRANCH  17  20
ATOM     20  C   UNL     1      30.966 -24.671 -13.998  0.00  0.00    +0.144 C 
ATOM     21  C   UNL     1      29.681 -24.458 -14.788  0.00  0.00    +0.035 C 
BRANCH  20  22
ATOM     22  O   UNL     1      30.641 -24.945 -12.636  0.00  0.00    -0.382 OA
ATOM     23  H   UNL     1      30.118 -25.760 -12.586  0.00  0.00    +0.210 HD
ENDBRANCH  20  22
ENDBRANCH  17  20
ENDBRANCH   7  17
TORSDOF 4
ENDMDL
MODEL 7
REMARK VINA RESULT:      -7.8      9.213     11.126
REMARK  Name = 119055
REMARK  4 active torsions:
REMARK  status: ('A' for Active; 'I' for Inactive)
REMARK    1  A    between atoms: C_7  and  C_17
REMARK    2  A    between atoms: C_17  and  O_18
REMARK    3  A    between atoms: C_17  and  C_20
REMARK    4  A    between atoms: C_20  and  O_22
REMARK                            x       y       z     vdW  Elec       q    Type
REMARK                         _______ _______ _______ _____ _____    ______ ____
ROOT
ATOM      1  O   UNL     1      34.036 -13.757 -22.580  0.00  0.00    -0.207 OA
ATOM      2  N   UNL     1      34.333 -17.581 -25.304  0.00  0.00    -0.271 NA
ATOM      3  N   UNL     1      34.710 -16.395 -22.816  0.00  0.00    -0.395 NA
ATOM      4  N   UNL     1      33.501 -15.466 -26.122  0.00  0.00    -0.279 N 
ATOM      5  N   UNL     1      33.351 -13.549 -24.759  0.00  0.00    -0.301 NA
ATOM      6  N   UNL     1      32.693 -13.508 -27.018  0.00  0.00    -0.320 N 
ATOM      7  C   UNL     1      35.022 -17.647 -22.974  0.00  0.00    +0.132 C 
ATOM      8  C   UNL     1      34.877 -18.422 -24.270  0.00  0.00    +0.128 C 
ATOM      9  C   UNL     1      34.013 -16.256 -25.119  0.00  0.00    +0.197 C 
ATOM     10  C   UNL     1      34.209 -15.714 -23.898  0.00  0.00    +0.235 C 
ATOM     11  C   UNL     1      33.860 -14.261 -23.686  0.00  0.00    +0.236 C 
ATOM     12  C   UNL     1      33.190 -14.146 -25.910  0.00  0.00    +0.245 C 
ATOM     13  H   UNL     1      34.182 -17.977 -26.193  0.00  0.00    +0.125 HD
ATOM     14  H   UNL     1      33.356 -15.856 -27.014  0.00  0.00    +0.152 HD
ATOM     15  H   UNL     1      32.590 -14.001 -27.864  0.00  0.00    +0.146 HD
ATOM     16  H   UNL     1      32.440 -12.558 -26.966  0.00  0.00    +0.146 HD
ENDROOT
BRANCH   7  17
ATOM     17  C   UNL     1      35.572 -18.400 -21.790  0.00  0.00    +0.186 C 
BRANCH  17  18
ATOM     18  O   UNL     1      35.415 -17.544 -20.672  0.00  0.00    -0.376 OA
ATOM     19  H   UNL     1      35.019 -16.707 -20.959  0.00  0.00    +0.211 HD
ENDBRANCH  17  18
BRANCH  17  20
ATOM     20  C   UNL     1      34.830 -19.708 -21.544  0.00  0.00    +0.144 C 
ATOM     21  C   UNL     1      33.479 -19.503 -20.872  0.00  0.00    +0.035 C 
BRANCH  20  22
ATOM     22  O   UNL     1      35.628 -20.576 -20.739  0.00  0.00    -0.382 OA
ATOM     23  H   UNL     1      35.311 -20.550 -19.823  0.00  0.00    +0.210 HD
ENDBRANCH  20  22
ENDBRANCH  17  20
ENDBRANCH   7  17
TORSDOF 4
ENDMDL
MODEL 8
REMARK VINA RESULT:      -7.7      2.434      2.981
REMARK  Name = 119055
REMARK  4 active torsions:
REMARK  status: ('A' for Active; 'I' for Inactive)
REMARK    1  A    between atoms: C_7  and  C_17
REMARK    2  A    between atoms: C_17  and  O_18
REMARK    3  A    between atoms: C_17  and  C_20
REMARK    4  A    between atoms: C_20  and  O_22
REMARK                            x       y       z     vdW  Elec       q    Type
REMARK                         _______ _______ _______ _____ _____    ______ ____
ROOT
ATOM      1  O   UNL     1      31.469 -25.297 -13.029  0.00  0.00    -0.207 OA
ATOM      2  N   UNL     1      34.993 -22.849 -14.957  0.00  0.00    -0.271 NA
ATOM      3  N   UNL     1      34.098 -24.551 -12.948  0.00  0.00    -0.395 NA
ATOM      4  N   UNL     1      32.765 -22.870 -15.890  0.00  0.00    -0.279 N 
ATOM      5  N   UNL     1      30.998 -24.096 -14.926  0.00  0.00    -0.301 NA
ATOM      6  N   UNL     1      30.686 -22.809 -16.871  0.00  0.00    -0.320 N 
ATOM      7  C   UNL     1      35.340 -24.168 -12.946  0.00  0.00    +0.132 C 
ATOM      8  C   UNL     1      35.965 -23.240 -13.970  0.00  0.00    +0.128 C 
ATOM      9  C   UNL     1      33.681 -23.261 -14.942  0.00  0.00    +0.197 C 
ATOM     10  C   UNL     1      33.282 -24.088 -13.951  0.00  0.00    +0.235 C 
ATOM     11  C   UNL     1      31.844 -24.546 -13.926  0.00  0.00    +0.236 C 
ATOM     12  C   UNL     1      31.461 -23.297 -15.850  0.00  0.00    +0.245 C 
ATOM     13  H   UNL     1      35.285 -22.251 -15.685  0.00  0.00    +0.125 HD
ATOM     14  H   UNL     1      33.051 -22.268 -16.614  0.00  0.00    +0.152 HD
ATOM     15  H   UNL     1      31.081 -22.209 -17.544  0.00  0.00    +0.146 HD
ATOM     16  H   UNL     1      29.736 -23.058 -16.929  0.00  0.00    +0.146 HD
ENDROOT
BRANCH   7  17
ATOM     17  C   UNL     1      36.240 -24.674 -11.848  0.00  0.00    +0.186 C 
BRANCH  17  18
ATOM     18  O   UNL     1      35.384 -25.105 -10.805  0.00  0.00    -0.376 OA
ATOM     19  H   UNL     1      35.383 -26.074 -10.767  0.00  0.00    +0.211 HD
ENDBRANCH  17  18
BRANCH  17  20
ATOM     20  C   UNL     1      37.114 -25.834 -12.308  0.00  0.00    +0.144 C 
ATOM     21  C   UNL     1      38.494 -25.386 -12.772  0.00  0.00    +0.035 C 
BRANCH  20  22
ATOM     22  O   UNL     1      36.468 -26.539 -13.368  0.00  0.00    -0.382 OA
ATOM     23  H   UNL     1      36.293 -25.930 -14.103  0.00  0.00    +0.210 HD
ENDBRANCH  20  22
ENDBRANCH  17  20
ENDBRANCH   7  17
TORSDOF 4
ENDMDL
MODEL 9
REMARK VINA RESULT:      -7.7      2.298      2.964
REMARK  Name = 119055
REMARK  4 active torsions:
REMARK  status: ('A' for Active; 'I' for Inactive)
REMARK    1  A    between atoms: C_7  and  C_17
REMARK    2  A    between atoms: C_17  and  O_18
REMARK    3  A    between atoms: C_17  and  C_20
REMARK    4  A    between atoms: C_20  and  O_22
REMARK                            x       y       z     vdW  Elec       q    Type
REMARK                         _______ _______ _______ _____ _____    ______ ____
ROOT
ATOM      1  O   UNL     1      37.026 -22.234 -16.712  0.00  0.00    -0.207 OA
ATOM      2  N   UNL     1      33.016 -23.909 -14.910  0.00  0.00    -0.271 NA
ATOM      3  N   UNL     1      35.692 -23.239 -14.548  0.00  0.00    -0.395 NA
ATOM      4  N   UNL     1      33.207 -23.192 -17.209  0.00  0.00    -0.279 N 
ATOM      5  N   UNL     1      35.215 -22.352 -18.114  0.00  0.00    -0.301 NA
ATOM      6  N   UNL     1      33.264 -22.542 -19.415  0.00  0.00    -0.320 N 
ATOM      7  C   UNL     1      35.020 -23.725 -13.547  0.00  0.00    +0.132 C 
ATOM      8  C   UNL     1      33.562 -24.139 -13.598  0.00  0.00    +0.128 C 
ATOM      9  C   UNL     1      33.744 -23.398 -15.960  0.00  0.00    +0.197 C 
ATOM     10  C   UNL     1      35.040 -23.084 -15.748  0.00  0.00    +0.235 C 
ATOM     11  C   UNL     1      35.846 -22.521 -16.893  0.00  0.00    +0.236 C 
ATOM     12  C   UNL     1      33.956 -22.680 -18.239  0.00  0.00    +0.245 C 
ATOM     13  H   UNL     1      32.069 -24.131 -15.065  0.00  0.00    +0.125 HD
ATOM     14  H   UNL     1      32.263 -23.419 -17.369  0.00  0.00    +0.152 HD
ATOM     15  H   UNL     1      32.316 -22.804 -19.460  0.00  0.00    +0.146 HD
ATOM     16  H   UNL     1      33.715 -22.183 -20.212  0.00  0.00    +0.146 HD
ENDROOT
BRANCH   7  17
ATOM     17  C   UNL     1      35.730 -23.898 -12.229  0.00  0.00    +0.186 C 
BRANCH  17  18
ATOM     18  O   UNL     1      35.800 -25.294 -12.001  0.00  0.00    -0.376 OA
ATOM     19  H   UNL     1      35.735 -25.764 -12.846  0.00  0.00    +0.211 HD
ENDBRANCH  17  18
BRANCH  17  20
ATOM     20  C   UNL     1      37.136 -23.310 -12.250  0.00  0.00    +0.144 C 
ATOM     21  C   UNL     1      38.222 -24.373 -12.158  0.00  0.00    +0.035 C 
BRANCH  20  22
ATOM     22  O   UNL     1      37.292 -22.383 -11.176  0.00  0.00    -0.382 OA
ATOM     23  H   UNL     1      36.439 -21.963 -10.984  0.00  0.00    +0.210 HD
ENDBRANCH  20  22
ENDBRANCH  17  20
ENDBRANCH   7  17
TORSDOF 4
ENDMDL
