MODEL 1
REMARK VINA RESULT:     -11.1      0.000      0.000
REMARK  Name = 446245
REMARK  2 active torsions:
REMARK  status: ('A' for Active; 'I' for Inactive)
REMARK    1  A    between atoms: C_6  and  S_17
REMARK    2  A    between atoms: S_17  and  C_18
REMARK                            x       y       z     vdW  Elec       q    Type
REMARK                         _______ _______ _______ _____ _____    ______ ____
ROOT
ATOM      1  N   UNL     1      32.921 -14.380 -24.075  0.00  0.00    -0.332 NA
ATOM      2  N   UNL     1      33.809 -15.932 -25.690  0.00  0.00    -0.317 NA
ATOM      3  N   UNL     1      35.186 -17.676 -25.095  0.00  0.00    -0.335 N 
ATOM      4  N   UNL     1      32.411 -14.173 -26.356  0.00  0.00    -0.283 N 
ATOM      5  C   UNL     1      34.349 -16.165 -23.346  0.00  0.00    +0.149 C 
ATOM      6  C   UNL     1      35.008 -16.840 -22.305  0.00  0.00    +0.022 C 
ATOM      7  C   UNL     1      33.558 -15.034 -23.087  0.00  0.00    +0.135 C 
ATOM      8  C   UNL     1      34.433 -16.562 -24.677  0.00  0.00    +0.178 C 
ATOM      9  C   UNL     1      34.883 -16.390 -20.994  0.00  0.00    +0.003 C 
ATOM     10  C   UNL     1      33.448 -14.605 -21.766  0.00  0.00    +0.029 C 
ATOM     11  C   UNL     1      34.103 -15.272 -20.725  0.00  0.00    +0.003 C 
ATOM     12  C   UNL     1      33.082 -14.865 -25.323  0.00  0.00    +0.197 C 
ATOM     13  H   UNL     1      35.217 -17.921 -26.048  0.00  0.00    +0.144 HD
ATOM     14  H   UNL     1      35.683 -18.211 -24.433  0.00  0.00    +0.144 HD
ATOM     15  H   UNL     1      31.864 -13.384 -26.144  0.00  0.00    +0.156 HD
ATOM     16  H   UNL     1      32.492 -14.482 -27.287  0.00  0.00    +0.156 HD
ENDROOT
BRANCH   6  17
ATOM     17  S   UNL     1      36.064 -18.297 -22.417  0.00  0.00    -0.090 S 
BRANCH  17  18
ATOM     18  C   UNL     1      35.195 -19.417 -21.335  0.00  0.00    +0.029 C 
ATOM     19  C   UNL     1      33.837 -21.169 -19.643  0.00  0.00    -0.022 C 
ATOM     20  C   UNL     1      35.911 -20.264 -20.490  0.00  0.00    +0.006 C 
ATOM     21  C   UNL     1      33.801 -19.446 -21.335  0.00  0.00    +0.006 C 
ATOM     22  C   UNL     1      35.232 -21.141 -19.643  0.00  0.00    -0.004 C 
ATOM     23  C   UNL     1      33.122 -20.321 -20.489  0.00  0.00    -0.004 C 
ATOM     24  C   UNL     1      33.111 -22.107 -18.737  0.00  0.00    +0.031 C 
ENDBRANCH  17  18
ENDBRANCH   6  17
TORSDOF 2
ENDMDL
MODEL 2
REMARK VINA RESULT:     -10.1      0.916      1.437
REMARK  Name = 446245
REMARK  2 active torsions:
REMARK  status: ('A' for Active; 'I' for Inactive)
REMARK    1  A    between atoms: C_6  and  S_17
REMARK    2  A    between atoms: S_17  and  C_18
REMARK                            x       y       z     vdW  Elec       q    Type
REMARK                         _______ _______ _______ _____ _____    ______ ____
ROOT
ATOM      1  N   UNL     1      33.715 -13.580 -23.021  0.00  0.00    -0.332 NA
ATOM      2  N   UNL     1      33.923 -14.802 -25.087  0.00  0.00    -0.317 NA
ATOM      3  N   UNL     1      34.640 -16.987 -25.158  0.00  0.00    -0.335 N 
ATOM      4  N   UNL     1      33.187 -12.578 -25.076  0.00  0.00    -0.283 N 
ATOM      5  C   UNL     1      34.472 -15.856 -22.982  0.00  0.00    +0.149 C 
ATOM      6  C   UNL     1      34.911 -16.974 -22.253  0.00  0.00    +0.022 C 
ATOM      7  C   UNL     1      34.136 -14.656 -22.333  0.00  0.00    +0.135 C 
ATOM      8  C   UNL     1      34.342 -15.860 -24.368  0.00  0.00    +0.178 C 
ATOM      9  C   UNL     1      35.019 -16.903 -20.868  0.00  0.00    +0.003 C 
ATOM     10  C   UNL     1      34.252 -14.613 -20.946  0.00  0.00    +0.029 C 
ATOM     11  C   UNL     1      34.689 -15.721 -20.214  0.00  0.00    +0.003 C 
ATOM     12  C   UNL     1      33.631 -13.712 -24.361  0.00  0.00    +0.197 C 
ATOM     13  H   UNL     1      34.533 -16.946 -26.136  0.00  0.00    +0.144 HD
ATOM     14  H   UNL     1      34.955 -17.818 -24.733  0.00  0.00    +0.144 HD
ATOM     15  H   UNL     1      32.959 -11.750 -24.595  0.00  0.00    +0.156 HD
ATOM     16  H   UNL     1      33.107 -12.616 -26.057  0.00  0.00    +0.156 HD
ENDROOT
BRANCH   6  17
ATOM     17  S   UNL     1      35.388 -18.594 -22.882  0.00  0.00    -0.090 S 
BRANCH  17  18
ATOM     18  C   UNL     1      34.764 -19.648 -21.585  0.00  0.00    +0.029 C 
ATOM     19  C   UNL     1      33.788 -21.295 -19.558  0.00  0.00    -0.022 C 
ATOM     20  C   UNL     1      33.393 -19.714 -21.341  0.00  0.00    +0.006 C 
ATOM     21  C   UNL     1      35.647 -20.405 -20.817  0.00  0.00    +0.006 C 
ATOM     22  C   UNL     1      32.904 -20.538 -20.327  0.00  0.00    -0.004 C 
ATOM     23  C   UNL     1      35.159 -21.229 -19.803  0.00  0.00    -0.004 C 
ATOM     24  C   UNL     1      33.265 -22.177 -18.474  0.00  0.00    +0.031 C 
ENDBRANCH  17  18
ENDBRANCH   6  17
TORSDOF 2
ENDMDL
MODEL 3
REMARK VINA RESULT:     -10.0      1.403      2.552
REMARK  Name = 446245
REMARK  2 active torsions:
REMARK  status: ('A' for Active; 'I' for Inactive)
REMARK    1  A    between atoms: C_6  and  S_17
REMARK    2  A    between atoms: S_17  and  C_18
REMARK                            x       y       z     vdW  Elec       q    Type
REMARK                         _______ _______ _______ _____ _____    ______ ____
ROOT
ATOM      1  N   UNL     1      33.537 -16.406 -25.903  0.00  0.00    -0.332 NA
ATOM      2  N   UNL     1      33.840 -14.768 -24.162  0.00  0.00    -0.317 NA
ATOM      3  N   UNL     1      34.759 -15.297 -22.120  0.00  0.00    -0.335 N 
ATOM      4  N   UNL     1      32.897 -14.171 -26.222  0.00  0.00    -0.283 N 
ATOM      5  C   UNL     1      34.507 -17.064 -23.810  0.00  0.00    +0.149 C 
ATOM      6  C   UNL     1      35.058 -18.066 -22.992  0.00  0.00    +0.022 C 
ATOM      7  C   UNL     1      34.066 -17.356 -25.111  0.00  0.00    +0.135 C 
ATOM      8  C   UNL     1      34.364 -15.743 -23.396  0.00  0.00    +0.178 C 
ATOM      9  C   UNL     1      35.173 -19.368 -23.468  0.00  0.00    +0.003 C 
ATOM     10  C   UNL     1      34.193 -18.667 -25.563  0.00  0.00    +0.029 C 
ATOM     11  C   UNL     1      34.740 -19.669 -24.754  0.00  0.00    +0.003 C 
ATOM     12  C   UNL     1      33.453 -15.163 -25.385  0.00  0.00    +0.197 C 
ATOM     13  H   UNL     1      34.639 -14.353 -21.869  0.00  0.00    +0.144 HD
ATOM     14  H   UNL     1      35.156 -15.930 -21.478  0.00  0.00    +0.144 HD
ATOM     15  H   UNL     1      32.597 -14.404 -27.129  0.00  0.00    +0.156 HD
ATOM     16  H   UNL     1      32.811 -13.245 -25.897  0.00  0.00    +0.156 HD
ENDROOT
BRANCH   6  17
ATOM     17  S   UNL     1      35.679 -17.908 -21.307  0.00  0.00    -0.090 S 
BRANCH  17  18
ATOM     18  C   UNL     1      35.104 -19.441 -20.600  0.00  0.00    +0.029 C 
ATOM     19  C   UNL     1      34.205 -21.838 -19.493  0.00  0.00    -0.022 C 
ATOM     20  C   UNL     1      36.022 -20.370 -20.111  0.00  0.00    +0.006 C 
ATOM     21  C   UNL     1      33.738 -19.709 -20.536  0.00  0.00    +0.006 C 
ATOM     22  C   UNL     1      35.572 -21.569 -19.557  0.00  0.00    -0.004 C 
ATOM     23  C   UNL     1      33.288 -20.908 -19.982  0.00  0.00    -0.004 C 
ATOM     24  C   UNL     1      33.725 -23.120 -18.901  0.00  0.00    +0.031 C 
ENDBRANCH  17  18
ENDBRANCH   6  17
TORSDOF 2
ENDMDL
MODEL 4
REMARK VINA RESULT:      -9.1      8.408     11.846
REMARK  Name = 446245
REMARK  2 active torsions:
REMARK  status: ('A' for Active; 'I' for Inactive)
REMARK    1  A    between atoms: C_6  and  S_17
REMARK    2  A    between atoms: S_17  and  C_18
REMARK                            x       y       z     vdW  Elec       q    Type
REMARK                         _______ _______ _______ _____ _____    ______ ____
ROOT
ATOM      1  N   UNL     1      39.505 -25.204 -13.165  0.00  0.00    -0.332 NA
ATOM      2  N   UNL     1      38.613 -26.565 -14.942  0.00  0.00    -0.317 NA
ATOM      3  N   UNL     1      36.431 -26.390 -15.650  0.00  0.00    -0.335 N 
ATOM      4  N   UNL     1      40.845 -26.787 -14.263  0.00  0.00    -0.283 N 
ATOM      5  C   UNL     1      37.214 -24.941 -13.826  0.00  0.00    +0.149 C 
ATOM      6  C   UNL     1      35.974 -24.300 -13.666  0.00  0.00    +0.022 C 
ATOM      7  C   UNL     1      38.313 -24.598 -13.021  0.00  0.00    +0.135 C 
ATOM      8  C   UNL     1      37.434 -25.938 -14.771  0.00  0.00    +0.178 C 
ATOM      9  C   UNL     1      35.821 -23.310 -12.701  0.00  0.00    +0.003 C 
ATOM     10  C   UNL     1      38.133 -23.603 -12.064  0.00  0.00    +0.029 C 
ATOM     11  C   UNL     1      36.901 -22.961 -11.899  0.00  0.00    +0.003 C 
ATOM     12  C   UNL     1      39.590 -26.155 -14.118  0.00  0.00    +0.197 C 
ATOM     13  H   UNL     1      36.631 -27.099 -16.303  0.00  0.00    +0.144 HD
ATOM     14  H   UNL     1      35.529 -25.998 -15.611  0.00  0.00    +0.144 HD
ATOM     15  H   UNL     1      41.597 -26.526 -13.685  0.00  0.00    +0.156 HD
ATOM     16  H   UNL     1      40.966 -27.489 -14.942  0.00  0.00    +0.156 HD
ENDROOT
BRANCH   6  17
ATOM     17  S   UNL     1      34.449 -24.585 -14.584  0.00  0.00    -0.090 S 
BRANCH  17  18
ATOM     18  C   UNL     1      34.742 -23.585 -16.030  0.00  0.00    +0.029 C 
ATOM     19  C   UNL     1      35.200 -22.020 -18.293  0.00  0.00    -0.022 C 
ATOM     20  C   UNL     1      33.766 -23.492 -17.022  0.00  0.00    +0.006 C 
ATOM     21  C   UNL     1      35.946 -22.896 -16.169  0.00  0.00    +0.006 C 
ATOM     22  C   UNL     1      33.995 -22.709 -18.154  0.00  0.00    -0.004 C 
ATOM     23  C   UNL     1      36.175 -22.113 -17.300  0.00  0.00    -0.004 C 
ATOM     24  C   UNL     1      35.444 -21.183 -19.503  0.00  0.00    +0.031 C 
ENDBRANCH  17  18
ENDBRANCH   6  17
TORSDOF 2
ENDMDL
MODEL 5
REMARK VINA RESULT:      -9.1      3.705      7.467
REMARK  Name = 446245
REMARK  2 active torsions:
REMARK  status: ('A' for Active; 'I' for Inactive)
REMARK    1  A    between atoms: C_6  and  S_17
REMARK    2  A    between atoms: S_17  and  C_18
REMARK                            x       y       z     vdW  Elec       q    Type
REMARK                         _______ _______ _______ _____ _____    ______ ____
ROOT
ATOM      1  N   UNL     1      34.584 -16.714 -20.620  0.00  0.00    -0.332 NA
ATOM      2  N   UNL     1      35.523 -17.152 -22.795  0.00  0.00    -0.317 NA
ATOM      3  N   UNL     1      35.027 -15.861 -24.633  0.00  0.00    -0.335 N 
ATOM      4  N   UNL     1      36.064 -18.503 -20.959  0.00  0.00    -0.283 N 
ATOM      5  C   UNL     1      34.000 -15.304 -22.471  0.00  0.00    +0.149 C 
ATOM      6  C   UNL     1      33.287 -14.204 -22.978  0.00  0.00    +0.022 C 
ATOM      7  C   UNL     1      33.906 -15.663 -21.117  0.00  0.00    +0.135 C 
ATOM      8  C   UNL     1      34.830 -16.095 -23.259  0.00  0.00    +0.178 C 
ATOM      9  C   UNL     1      32.473 -13.454 -22.136  0.00  0.00    +0.003 C 
ATOM     10  C   UNL     1      33.085 -14.895 -20.295  0.00  0.00    +0.029 C 
ATOM     11  C   UNL     1      32.372 -13.800 -20.793  0.00  0.00    +0.003 C 
ATOM     12  C   UNL     1      35.355 -17.401 -21.487  0.00  0.00    +0.197 C 
ATOM     13  H   UNL     1      35.624 -16.447 -25.153  0.00  0.00    +0.144 HD
ATOM     14  H   UNL     1      34.568 -15.110 -25.076  0.00  0.00    +0.144 HD
ATOM     15  H   UNL     1      35.979 -18.731 -20.005  0.00  0.00    +0.156 HD
ATOM     16  H   UNL     1      36.644 -19.041 -21.545  0.00  0.00    +0.156 HD
ENDROOT
BRANCH   6  17
ATOM     17  S   UNL     1      33.265 -13.577 -24.668  0.00  0.00    -0.090 S 
BRANCH  17  18
ATOM     18  C   UNL     1      33.677 -11.864 -24.389  0.00  0.00    +0.029 C 
ATOM     19  C   UNL     1      34.322  -9.186 -23.953  0.00  0.00    -0.022 C 
ATOM     20  C   UNL     1      34.751 -11.287 -25.066  0.00  0.00    +0.006 C 
ATOM     21  C   UNL     1      32.926 -11.104 -23.494  0.00  0.00    +0.006 C 
ATOM     22  C   UNL     1      35.073  -9.947 -24.848  0.00  0.00    -0.004 C 
ATOM     23  C   UNL     1      33.248  -9.764 -23.276  0.00  0.00    -0.004 C 
ATOM     24  C   UNL     1      34.667  -7.754 -23.720  0.00  0.00    +0.031 C 
ENDBRANCH  17  18
ENDBRANCH   6  17
TORSDOF 2
ENDMDL
MODEL 6
REMARK VINA RESULT:      -8.9      1.594      2.930
REMARK  Name = 446245
REMARK  2 active torsions:
REMARK  status: ('A' for Active; 'I' for Inactive)
REMARK    1  A    between atoms: C_6  and  S_17
REMARK    2  A    between atoms: S_17  and  C_18
REMARK                            x       y       z     vdW  Elec       q    Type
REMARK                         _______ _______ _______ _____ _____    ______ ____
ROOT
ATOM      1  N   UNL     1      32.869 -14.647 -23.276  0.00  0.00    -0.332 NA
ATOM      2  N   UNL     1      33.689 -14.659 -21.010  0.00  0.00    -0.317 NA
ATOM      3  N   UNL     1      35.246 -16.183 -20.272  0.00  0.00    -0.335 N 
ATOM      4  N   UNL     1      32.102 -13.082 -21.706  0.00  0.00    -0.283 N 
ATOM      5  C   UNL     1      34.494 -16.281 -22.610  0.00  0.00    +0.149 C 
ATOM      6  C   UNL     1      35.311 -17.378 -22.933  0.00  0.00    +0.022 C 
ATOM      7  C   UNL     1      33.655 -15.698 -23.573  0.00  0.00    +0.135 C 
ATOM      8  C   UNL     1      34.462 -15.710 -21.342  0.00  0.00    +0.178 C 
ATOM      9  C   UNL     1      35.296 -17.902 -24.221  0.00  0.00    +0.003 C 
ATOM     10  C   UNL     1      33.660 -16.241 -24.855  0.00  0.00    +0.029 C 
ATOM     11  C   UNL     1      34.470 -17.333 -25.183  0.00  0.00    +0.003 C 
ATOM     12  C   UNL     1      32.929 -14.185 -22.010  0.00  0.00    +0.197 C 
ATOM     13  H   UNL     1      35.191 -15.748 -19.390  0.00  0.00    +0.144 HD
ATOM     14  H   UNL     1      35.850 -16.949 -20.405  0.00  0.00    +0.144 HD
ATOM     15  H   UNL     1      31.523 -12.693 -22.401  0.00  0.00    +0.156 HD
ATOM     16  H   UNL     1      32.103 -12.702 -20.798  0.00  0.00    +0.156 HD
ENDROOT
BRANCH   6  17
ATOM     17  S   UNL     1      36.451 -18.270 -21.858  0.00  0.00    -0.090 S 
BRANCH  17  18
ATOM     18  C   UNL     1      35.324 -19.374 -21.026  0.00  0.00    +0.029 C 
ATOM     19  C   UNL     1      33.561 -21.100 -19.726  0.00  0.00    -0.022 C 
ATOM     20  C   UNL     1      33.948 -19.205 -21.175  0.00  0.00    +0.006 C 
ATOM     21  C   UNL     1      35.819 -20.404 -20.229  0.00  0.00    +0.006 C 
ATOM     22  C   UNL     1      33.066 -20.069 -20.524  0.00  0.00    -0.004 C 
ATOM     23  C   UNL     1      34.938 -21.268 -19.579  0.00  0.00    -0.004 C 
ATOM     24  C   UNL     1      32.618 -22.023 -19.031  0.00  0.00    +0.031 C 
ENDBRANCH  17  18
ENDBRANCH   6  17
TORSDOF 2
ENDMDL
MODEL 7
REMARK VINA RESULT:      -8.9      6.679     10.420
REMARK  Name = 446245
REMARK  2 active torsions:
REMARK  status: ('A' for Active; 'I' for Inactive)
REMARK    1  A    between atoms: C_6  and  S_17
REMARK    2  A    between atoms: S_17  and  C_18
REMARK                            x       y       z     vdW  Elec       q    Type
REMARK                         _______ _______ _______ _____ _____    ______ ____
ROOT
ATOM      1  N   UNL     1      34.091 -12.816 -24.718  0.00  0.00    -0.332 NA
ATOM      2  N   UNL     1      32.270 -13.363 -23.238  0.00  0.00    -0.317 NA
ATOM      3  N   UNL     1      31.227 -11.781 -21.933  0.00  0.00    -0.335 N 
ATOM      4  N   UNL     1      33.295 -15.016 -24.543  0.00  0.00    -0.283 N 
ATOM      5  C   UNL     1      33.073 -11.089 -23.400  0.00  0.00    +0.149 C 
ATOM      6  C   UNL     1      33.006  -9.738 -23.017  0.00  0.00    +0.022 C 
ATOM      7  C   UNL     1      34.018 -11.526 -24.342  0.00  0.00    +0.135 C 
ATOM      8  C   UNL     1      32.225 -12.064 -22.884  0.00  0.00    +0.178 C 
ATOM      9  C   UNL     1      33.884  -8.813 -23.571  0.00  0.00    +0.003 C 
ATOM     10  C   UNL     1      34.885 -10.579 -24.883  0.00  0.00    +0.029 C 
ATOM     11  C   UNL     1      34.825  -9.234 -24.505  0.00  0.00    +0.003 C 
ATOM     12  C   UNL     1      33.213 -13.664 -24.144  0.00  0.00    +0.197 C 
ATOM     13  H   UNL     1      30.649 -12.503 -21.595  0.00  0.00    +0.144 HD
ATOM     14  H   UNL     1      31.106 -10.860 -21.605  0.00  0.00    +0.144 HD
ATOM     15  H   UNL     1      33.968 -15.294 -25.205  0.00  0.00    +0.156 HD
ATOM     16  H   UNL     1      32.679 -15.681 -24.158  0.00  0.00    +0.156 HD
ENDROOT
BRANCH   6  17
ATOM     17  S   UNL     1      31.881  -8.973 -21.835  0.00  0.00    -0.090 S 
BRANCH  17  18
ATOM     18  C   UNL     1      31.619  -7.388 -22.609  0.00  0.00    +0.029 C 
ATOM     19  C   UNL     1      31.209  -4.909 -23.819  0.00  0.00    -0.022 C 
ATOM     20  C   UNL     1      31.925  -6.216 -21.918  0.00  0.00    +0.006 C 
ATOM     21  C   UNL     1      31.108  -7.321 -23.904  0.00  0.00    +0.006 C 
ATOM     22  C   UNL     1      31.719  -4.976 -22.523  0.00  0.00    -0.004 C 
ATOM     23  C   UNL     1      30.904  -6.081 -24.510  0.00  0.00    -0.004 C 
ATOM     24  C   UNL     1      30.990  -3.582 -24.466  0.00  0.00    +0.031 C 
ENDBRANCH  17  18
ENDBRANCH   6  17
TORSDOF 2
ENDMDL
MODEL 8
REMARK VINA RESULT:      -8.9      3.793      7.846
REMARK  Name = 446245
REMARK  2 active torsions:
REMARK  status: ('A' for Active; 'I' for Inactive)
REMARK    1  A    between atoms: C_6  and  S_17
REMARK    2  A    between atoms: S_17  and  C_18
REMARK                            x       y       z     vdW  Elec       q    Type
REMARK                         _______ _______ _______ _____ _____    ______ ____
ROOT
ATOM      1  N   UNL     1      34.965 -16.878 -24.348  0.00  0.00    -0.332 NA
ATOM      2  N   UNL     1      35.008 -16.432 -21.981  0.00  0.00    -0.317 NA
ATOM      3  N   UNL     1      33.833 -14.697 -21.033  0.00  0.00    -0.335 N 
ATOM      4  N   UNL     1      36.226 -18.215 -22.891  0.00  0.00    -0.283 N 
ATOM      5  C   UNL     1      33.701 -15.041 -23.463  0.00  0.00    +0.149 C 
ATOM      6  C   UNL     1      32.834 -13.954 -23.672  0.00  0.00    +0.022 C 
ATOM      7  C   UNL     1      34.135 -15.835 -24.537  0.00  0.00    +0.135 C 
ATOM      8  C   UNL     1      34.178 -15.396 -22.205  0.00  0.00    +0.178 C 
ATOM      9  C   UNL     1      32.394 -13.652 -24.957  0.00  0.00    +0.003 C 
ATOM     10  C   UNL     1      33.679 -15.512 -25.812  0.00  0.00    +0.029 C 
ATOM     11  C   UNL     1      32.817 -14.432 -26.028  0.00  0.00    +0.003 C 
ATOM     12  C   UNL     1      35.356 -17.119 -23.080  0.00  0.00    +0.197 C 
ATOM     13  H   UNL     1      34.194 -14.983 -20.163  0.00  0.00    +0.144 HD
ATOM     14  H   UNL     1      33.229 -13.920 -21.082  0.00  0.00    +0.144 HD
ATOM     15  H   UNL     1      36.514 -18.754 -23.662  0.00  0.00    +0.156 HD
ATOM     16  H   UNL     1      36.545 -18.439 -21.986  0.00  0.00    +0.156 HD
ENDROOT
BRANCH   6  17
ATOM     17  S   UNL     1      32.163 -12.816 -22.447  0.00  0.00    -0.090 S 
BRANCH  17  18
ATOM     18  C   UNL     1      32.878 -11.279 -22.998  0.00  0.00    +0.029 C 
ATOM     19  C   UNL     1      33.996  -8.873 -23.860  0.00  0.00    -0.022 C 
ATOM     20  C   UNL     1      32.339 -10.066 -22.568  0.00  0.00    +0.006 C 
ATOM     21  C   UNL     1      33.974 -11.289 -23.858  0.00  0.00    +0.006 C 
ATOM     22  C   UNL     1      32.899  -8.863 -22.999  0.00  0.00    -0.004 C 
ATOM     23  C   UNL     1      34.534 -10.087 -24.289  0.00  0.00    -0.004 C 
ATOM     24  C   UNL     1      34.594  -7.587 -24.321  0.00  0.00    +0.031 C 
ENDBRANCH  17  18
ENDBRANCH   6  17
TORSDOF 2
ENDMDL
MODEL 9
REMARK VINA RESULT:      -8.7      9.990     11.761
REMARK  Name = 446245
REMARK  2 active torsions:
REMARK  status: ('A' for Active; 'I' for Inactive)
REMARK    1  A    between atoms: C_6  and  S_17
REMARK    2  A    between atoms: S_17  and  C_18
REMARK                            x       y       z     vdW  Elec       q    Type
REMARK                         _______ _______ _______ _____ _____    ______ ____
ROOT
ATOM      1  N   UNL     1      39.315 -24.644 -15.125  0.00  0.00    -0.332 NA
ATOM      2  N   UNL     1      38.643 -26.114 -13.338  0.00  0.00    -0.317 NA
ATOM      3  N   UNL     1      36.577 -25.969 -12.336  0.00  0.00    -0.335 N 
ATOM      4  N   UNL     1      40.761 -26.308 -14.321  0.00  0.00    -0.283 N 
ATOM      5  C   UNL     1      37.136 -24.408 -14.150  0.00  0.00    +0.149 C 
ATOM      6  C   UNL     1      35.896 -23.749 -14.101  0.00  0.00    +0.022 C 
ATOM      7  C   UNL     1      38.124 -24.020 -15.069  0.00  0.00    +0.135 C 
ATOM      8  C   UNL     1      37.463 -25.467 -13.308  0.00  0.00    +0.178 C 
ATOM      9  C   UNL     1      35.632 -22.696 -14.971  0.00  0.00    +0.003 C 
ATOM     10  C   UNL     1      37.835 -22.964 -15.929  0.00  0.00    +0.029 C 
ATOM     11  C   UNL     1      36.603 -22.303 -15.886  0.00  0.00    +0.003 C 
ATOM     12  C   UNL     1      39.509 -25.657 -14.256  0.00  0.00    +0.197 C 
ATOM     13  H   UNL     1      36.851 -26.721 -11.761  0.00  0.00    +0.144 HD
ATOM     14  H   UNL     1      35.684 -25.569 -12.229  0.00  0.00    +0.144 HD
ATOM     15  H   UNL     1      41.435 -26.014 -14.976  0.00  0.00    +0.156 HD
ATOM     16  H   UNL     1      40.959 -27.054 -13.711  0.00  0.00    +0.156 HD
ENDROOT
BRANCH   6  17
ATOM     17  S   UNL     1      34.502 -24.082 -13.008  0.00  0.00    -0.090 S 
BRANCH  17  18
ATOM     18  C   UNL     1      33.137 -23.682 -14.084  0.00  0.00    +0.029 C 
ATOM     19  C   UNL     1      31.002 -23.057 -15.766  0.00  0.00    -0.022 C 
ATOM     20  C   UNL     1      31.933 -23.229 -13.544  0.00  0.00    +0.006 C 
ATOM     21  C   UNL     1      33.273 -23.823 -15.464  0.00  0.00    +0.006 C 
ATOM     22  C   UNL     1      30.866 -22.916 -14.385  0.00  0.00    -0.004 C 
ATOM     23  C   UNL     1      32.206 -23.510 -16.305  0.00  0.00    -0.004 C 
ATOM     24  C   UNL     1      29.859 -22.722 -16.665  0.00  0.00    +0.031 C 
ENDBRANCH  17  18
ENDBRANCH   6  17
TORSDOF 2
ENDMDL
