MODEL 1
REMARK VINA RESULT:      -7.8      0.000      0.000
REMARK  Name = 446049
REMARK  6 active torsions:
REMARK  status: ('A' for Active; 'I' for Inactive)
REMARK    1  A    between atoms: CA_1  and  N_3
REMARK    2  A    between atoms: CA_1  and  C_11
REMARK    3  A    between atoms: CA_1  and  CB_14
REMARK    4  A    between atoms: N_4  and  O_8
REMARK    5  A    between atoms: C_11  and  O_12
REMARK    6  A    between atoms: CB_14  and  CG_15
REMARK                            x       y       z     vdW  Elec       q    Type
REMARK                         _______ _______ _______ _____ _____    ______ ____
ROOT
ATOM      1  CA  UNL     1      36.671 -24.731 -13.571  0.00  0.00    +0.177 C 
ENDROOT
BRANCH   1   3
ATOM      2  O   UNL     1      38.376 -26.748 -14.676  0.00  0.00    -0.251 OA
ATOM      3  N   UNL     1      37.904 -24.513 -14.286  0.00  0.00    -0.279 N 
ATOM      4  N   UNL     1      39.795 -25.095 -15.442  0.00  0.00    -0.181 N 
ATOM      5  C   ACE A   0      38.671 -25.559 -14.790  0.00  0.00    +0.323 C 
ATOM      6  H   UNL     1      38.215 -23.589 -14.422  0.00  0.00    +0.151 HD
ATOM      7  H   UNL     1      39.999 -24.135 -15.514  0.00  0.00    +0.184 HD
BRANCH   4   8
ATOM      8  O   UNL     1      40.627 -26.077 -15.997  0.00  0.00    -0.294 OA
ATOM      9  H   UNL     1      40.559 -26.051 -16.964  0.00  0.00    +0.241 HD
ENDBRANCH   4   8
ENDBRANCH   1   3
BRANCH   1  11
ATOM     10  OXT UNL     1      37.226 -24.476 -11.231  0.00  0.00    -0.248 OA
ATOM     11  C   UNL     1      36.939 -25.226 -12.157  0.00  0.00    +0.332 C 
BRANCH  11  12
ATOM     12  O   UNL     1      36.832 -26.566 -11.995  0.00  0.00    -0.479 OA
ATOM     13  H   UNL     1      36.416 -26.914 -11.230  0.00  0.00    +0.295 HD
ENDBRANCH  11  12
ENDBRANCH   1  11
BRANCH   1  14
ATOM     14  CB  UNL     1      35.818 -23.456 -13.527  0.00  0.00    +0.057 C 
BRANCH  14  15
ATOM     15  CG  UNL     1      34.716 -23.447 -14.560  0.00  0.00    -0.020 C 
ATOM     16  CD1 UNL     1      33.414 -23.710 -14.165  0.00  0.00    -0.004 C 
ATOM     17  CD2 UNL     1      35.027 -23.174 -15.882  0.00  0.00    -0.004 C 
ATOM     18  CE1 UNL     1      32.396 -23.701 -15.119  0.00  0.00    -0.000 C 
ATOM     19  CE2 UNL     1      34.009 -23.165 -16.836  0.00  0.00    -0.000 C 
ATOM     20  CZ  UNL     1      32.693 -23.428 -16.453  0.00  0.00    -0.000 C 
ENDBRANCH  14  15
ENDBRANCH   1  14
TORSDOF 6
ENDMDL
MODEL 2
REMARK VINA RESULT:      -7.7     10.048     11.692
REMARK  Name = 446049
REMARK  6 active torsions:
REMARK  status: ('A' for Active; 'I' for Inactive)
REMARK    1  A    between atoms: CA_1  and  N_3
REMARK    2  A    between atoms: CA_1  and  C_11
REMARK    3  A    between atoms: CA_1  and  CB_14
REMARK    4  A    between atoms: N_4  and  O_8
REMARK    5  A    between atoms: C_11  and  O_12
REMARK    6  A    between atoms: CB_14  and  CG_15
REMARK                            x       y       z     vdW  Elec       q    Type
REMARK                         _______ _______ _______ _____ _____    ______ ____
ROOT
ATOM      1  CA  UNL     1      34.669 -17.703 -23.087  0.00  0.00    +0.177 C 
ENDROOT
BRANCH   1   3
ATOM      2  O   UNL     1      32.951 -15.518 -22.402  0.00  0.00    -0.251 OA
ATOM      3  N   UNL     1      34.937 -16.303 -23.302  0.00  0.00    -0.279 N 
ATOM      4  N   UNL     1      34.527 -14.049 -23.232  0.00  0.00    -0.181 N 
ATOM      5  C   ACE A   0      34.039 -15.304 -22.935  0.00  0.00    +0.323 C 
ATOM      6  H   UNL     1      35.787 -16.043 -23.724  0.00  0.00    +0.151 HD
ATOM      7  H   UNL     1      35.404 -13.916 -23.659  0.00  0.00    +0.184 HD
BRANCH   4   8
ATOM      8  O   UNL     1      33.697 -12.974 -22.887  0.00  0.00    -0.294 OA
ATOM      9  H   UNL     1      33.780 -12.274 -23.552  0.00  0.00    +0.241 HD
ENDBRANCH   4   8
ENDBRANCH   1   3
BRANCH   1  11
ATOM     10  OXT UNL     1      34.965 -19.693 -24.429  0.00  0.00    -0.248 OA
ATOM     11  C   UNL     1      34.767 -18.484 -24.390  0.00  0.00    +0.332 C 
BRANCH  11  12
ATOM     12  O   UNL     1      34.614 -17.740 -25.511  0.00  0.00    -0.479 OA
ATOM     13  H   UNL     1      33.934 -17.097 -25.557  0.00  0.00    +0.295 HD
ENDBRANCH  11  12
ENDBRANCH   1  11
BRANCH   1  14
ATOM     14  CB  UNL     1      35.622 -18.301 -22.044  0.00  0.00    +0.057 C 
BRANCH  14  15
ATOM     15  CG  UNL     1      34.971 -19.358 -21.186  0.00  0.00    -0.020 C 
ATOM     16  CD1 UNL     1      35.765 -20.286 -20.532  0.00  0.00    -0.004 C 
ATOM     17  CD2 UNL     1      33.590 -19.379 -21.066  0.00  0.00    -0.004 C 
ATOM     18  CE1 UNL     1      35.163 -21.262 -19.738  0.00  0.00    -0.000 C 
ATOM     19  CE2 UNL     1      32.988 -20.355 -20.271  0.00  0.00    -0.000 C 
ATOM     20  CZ  UNL     1      33.775 -21.297 -19.608  0.00  0.00    -0.000 C 
ENDBRANCH  14  15
ENDBRANCH   1  14
TORSDOF 6
ENDMDL
MODEL 3
REMARK VINA RESULT:      -7.6      1.883      2.700
REMARK  Name = 446049
REMARK  6 active torsions:
REMARK  status: ('A' for Active; 'I' for Inactive)
REMARK    1  A    between atoms: CA_1  and  N_3
REMARK    2  A    between atoms: CA_1  and  C_11
REMARK    3  A    between atoms: CA_1  and  CB_14
REMARK    4  A    between atoms: N_4  and  O_8
REMARK    5  A    between atoms: C_11  and  O_12
REMARK    6  A    between atoms: CB_14  and  CG_15
REMARK                            x       y       z     vdW  Elec       q    Type
REMARK                         _______ _______ _______ _____ _____    ______ ____
ROOT
ATOM      1  CA  UNL     1      37.024 -24.415 -15.279  0.00  0.00    +0.177 C 
ENDROOT
BRANCH   1   3
ATOM      2  O   UNL     1      38.574 -26.798 -14.938  0.00  0.00    -0.251 OA
ATOM      3  N   UNL     1      38.405 -24.487 -14.870  0.00  0.00    -0.279 N 
ATOM      4  N   UNL     1      40.390 -25.502 -14.341  0.00  0.00    -0.181 N 
ATOM      5  C   ACE A   0      39.081 -25.696 -14.729  0.00  0.00    +0.323 C 
ATOM      6  H   UNL     1      38.887 -23.651 -14.682  0.00  0.00    +0.151 HD
ATOM      7  H   UNL     1      40.761 -24.605 -14.184  0.00  0.00    +0.184 HD
BRANCH   4   8
ATOM      8  O   UNL     1      41.158 -26.664 -14.185  0.00  0.00    -0.294 OA
ATOM      9  H   UNL     1      42.099 -26.431 -14.175  0.00  0.00    +0.241 HD
ENDBRANCH   4   8
ENDBRANCH   1   3
BRANCH   1  11
ATOM     10  OXT UNL     1      35.872 -24.867 -13.201  0.00  0.00    -0.248 OA
ATOM     11  C   UNL     1      36.134 -25.222 -14.345  0.00  0.00    +0.332 C 
BRANCH  11  12
ATOM     12  O   UNL     1      35.645 -26.369 -14.875  0.00  0.00    -0.479 OA
ATOM     13  H   UNL     1      34.739 -26.583 -14.772  0.00  0.00    +0.295 HD
ENDBRANCH  11  12
ENDBRANCH   1  11
BRANCH   1  14
ATOM     14  CB  UNL     1      36.536 -22.962 -15.343  0.00  0.00    +0.057 C 
BRANCH  14  15
ATOM     15  CG  UNL     1      35.925 -22.602 -16.676  0.00  0.00    -0.020 C 
ATOM     16  CD1 UNL     1      36.685 -21.911 -17.607  0.00  0.00    -0.004 C 
ATOM     17  CD2 UNL     1      34.617 -22.971 -16.945  0.00  0.00    -0.004 C 
ATOM     18  CE1 UNL     1      36.120 -21.580 -18.838  0.00  0.00    -0.000 C 
ATOM     19  CE2 UNL     1      34.053 -22.641 -18.177  0.00  0.00    -0.000 C 
ATOM     20  CZ  UNL     1      34.805 -21.944 -19.124  0.00  0.00    -0.000 C 
ENDBRANCH  14  15
ENDBRANCH   1  14
TORSDOF 6
ENDMDL
MODEL 4
REMARK VINA RESULT:      -7.5      5.137      6.847
REMARK  Name = 446049
REMARK  6 active torsions:
REMARK  status: ('A' for Active; 'I' for Inactive)
REMARK    1  A    between atoms: CA_1  and  N_3
REMARK    2  A    between atoms: CA_1  and  C_11
REMARK    3  A    between atoms: CA_1  and  CB_14
REMARK    4  A    between atoms: N_4  and  O_8
REMARK    5  A    between atoms: C_11  and  O_12
REMARK    6  A    between atoms: CB_14  and  CG_15
REMARK                            x       y       z     vdW  Elec       q    Type
REMARK                         _______ _______ _______ _____ _____    ______ ____
ROOT
ATOM      1  CA  UNL     1      33.309 -22.934 -16.743  0.00  0.00    +0.177 C 
ENDROOT
BRANCH   1   3
ATOM      2  O   UNL     1      30.559 -22.245 -17.146  0.00  0.00    -0.251 OA
ATOM      3  N   UNL     1      32.163 -23.652 -16.241  0.00  0.00    -0.279 N 
ATOM      4  N   UNL     1      29.939 -24.097 -15.914  0.00  0.00    -0.181 N 
ATOM      5  C   ACE A   0      30.856 -23.241 -16.488  0.00  0.00    +0.323 C 
ATOM      6  H   UNL     1      32.311 -24.462 -15.703  0.00  0.00    +0.151 HD
ATOM      7  H   UNL     1      30.214 -24.885 -15.394  0.00  0.00    +0.184 HD
BRANCH   4   8
ATOM      8  O   UNL     1      28.591 -23.773 -16.119  0.00  0.00    -0.294 OA
ATOM      9  H   UNL     1      28.513 -23.179 -16.882  0.00  0.00    +0.241 HD
ENDBRANCH   4   8
ENDBRANCH   1   3
BRANCH   1  11
ATOM     10  OXT UNL     1      35.557 -23.681 -16.255  0.00  0.00    -0.248 OA
ATOM     11  C   UNL     1      34.524 -23.155 -15.854  0.00  0.00    +0.332 C 
BRANCH  11  12
ATOM     12  O   UNL     1      34.383 -22.720 -14.579  0.00  0.00    -0.479 OA
ATOM     13  H   UNL     1      34.031 -23.291 -13.926  0.00  0.00    +0.295 HD
ENDBRANCH  11  12
ENDBRANCH   1  11
BRANCH   1  14
ATOM     14  CB  UNL     1      33.633 -23.339 -18.186  0.00  0.00    +0.057 C 
BRANCH  14  15
ATOM     15  CG  UNL     1      34.005 -22.165 -19.060  0.00  0.00    -0.020 C 
ATOM     16  CD1 UNL     1      35.339 -21.938 -19.360  0.00  0.00    -0.004 C 
ATOM     17  CD2 UNL     1      33.006 -21.338 -19.547  0.00  0.00    -0.004 C 
ATOM     18  CE1 UNL     1      35.682 -20.854 -20.168  0.00  0.00    -0.000 C 
ATOM     19  CE2 UNL     1      33.350 -20.255 -20.356  0.00  0.00    -0.000 C 
ATOM     20  CZ  UNL     1      34.688 -20.013 -20.666  0.00  0.00    -0.000 C 
ENDBRANCH  14  15
ENDBRANCH   1  14
TORSDOF 6
ENDMDL
MODEL 5
REMARK VINA RESULT:      -7.5     12.247     13.981
REMARK  Name = 446049
REMARK  6 active torsions:
REMARK  status: ('A' for Active; 'I' for Inactive)
REMARK    1  A    between atoms: CA_1  and  N_3
REMARK    2  A    between atoms: CA_1  and  C_11
REMARK    3  A    between atoms: CA_1  and  CB_14
REMARK    4  A    between atoms: N_4  and  O_8
REMARK    5  A    between atoms: C_11  and  O_12
REMARK    6  A    between atoms: CB_14  and  CG_15
REMARK                            x       y       z     vdW  Elec       q    Type
REMARK                         _______ _______ _______ _____ _____    ______ ____
ROOT
ATOM      1  CA  UNL     1      33.374 -15.131 -24.188  0.00  0.00    +0.177 C 
ENDROOT
BRANCH   1   3
ATOM      2  O   UNL     1      32.115 -14.645 -21.663  0.00  0.00    -0.251 OA
ATOM      3  N   UNL     1      33.014 -13.846 -23.644  0.00  0.00    -0.279 N 
ATOM      4  N   UNL     1      32.171 -12.378 -22.099  0.00  0.00    -0.181 N 
ATOM      5  C   ACE A   0      32.402 -13.704 -22.402  0.00  0.00    +0.323 C 
ATOM      6  H   UNL     1      33.208 -13.038 -24.171  0.00  0.00    +0.151 HD
ATOM      7  H   UNL     1      32.414 -11.651 -22.715  0.00  0.00    +0.184 HD
BRANCH   4   8
ATOM      8  O   UNL     1      31.566 -12.133 -20.858  0.00  0.00    -0.294 OA
ATOM      9  H   UNL     1      32.176 -11.631 -20.295  0.00  0.00    +0.241 HD
ENDBRANCH   4   8
ENDBRANCH   1   3
BRANCH   1  11
ATOM     10  OXT UNL     1      33.995 -15.798 -26.429  0.00  0.00    -0.248 OA
ATOM     11  C   UNL     1      33.261 -15.133 -25.706  0.00  0.00    +0.332 C 
BRANCH  11  12
ATOM     12  O   UNL     1      32.279 -14.344 -26.204  0.00  0.00    -0.479 OA
ATOM     13  H   UNL     1      31.381 -14.569 -26.064  0.00  0.00    +0.295 HD
ENDBRANCH  11  12
ENDBRANCH   1  11
BRANCH   1  14
ATOM     14  CB  UNL     1      34.792 -15.539 -23.768  0.00  0.00    +0.057 C 
BRANCH  14  15
ATOM     15  CG  UNL     1      34.847 -16.904 -23.124  0.00  0.00    -0.020 C 
ATOM     16  CD1 UNL     1      34.864 -17.003 -21.742  0.00  0.00    -0.004 C 
ATOM     17  CD2 UNL     1      34.878 -18.033 -23.928  0.00  0.00    -0.004 C 
ATOM     18  CE1 UNL     1      34.914 -18.264 -21.148  0.00  0.00    -0.000 C 
ATOM     19  CE2 UNL     1      34.927 -19.294 -23.334  0.00  0.00    -0.000 C 
ATOM     20  CZ  UNL     1      34.946 -19.409 -21.944  0.00  0.00    -0.000 C 
ENDBRANCH  14  15
ENDBRANCH   1  14
TORSDOF 6
ENDMDL
MODEL 6
REMARK VINA RESULT:      -7.3      9.535     10.806
REMARK  Name = 446049
REMARK  6 active torsions:
REMARK  status: ('A' for Active; 'I' for Inactive)
REMARK    1  A    between atoms: CA_1  and  N_3
REMARK    2  A    between atoms: CA_1  and  C_11
REMARK    3  A    between atoms: CA_1  and  CB_14
REMARK    4  A    between atoms: N_4  and  O_8
REMARK    5  A    between atoms: C_11  and  O_12
REMARK    6  A    between atoms: CB_14  and  CG_15
REMARK                            x       y       z     vdW  Elec       q    Type
REMARK                         _______ _______ _______ _____ _____    ______ ____
ROOT
ATOM      1  CA  UNL     1      34.819 -17.512 -21.413  0.00  0.00    +0.177 C 
ENDROOT
BRANCH   1   3
ATOM      2  O   UNL     1      33.516 -16.129 -23.555  0.00  0.00    -0.251 OA
ATOM      3  N   UNL     1      35.292 -17.394 -22.770  0.00  0.00    -0.279 N 
ATOM      4  N   UNL     1      35.251 -16.718 -24.960  0.00  0.00    -0.181 N 
ATOM      5  C   ACE A   0      34.589 -16.699 -23.750  0.00  0.00    +0.323 C 
ATOM      6  H   UNL     1      36.144 -17.821 -23.013  0.00  0.00    +0.151 HD
ATOM      7  H   UNL     1      36.109 -17.185 -25.079  0.00  0.00    +0.184 HD
BRANCH   4   8
ATOM      8  O   UNL     1      34.625 -16.032 -26.009  0.00  0.00    -0.294 OA
ATOM      9  H   UNL     1      35.093 -16.212 -26.839  0.00  0.00    +0.241 HD
ENDBRANCH   4   8
ENDBRANCH   1   3
BRANCH   1  11
ATOM     10  OXT UNL     1      35.062 -15.267 -20.548  0.00  0.00    -0.248 OA
ATOM     11  C   UNL     1      34.314 -16.174 -20.892  0.00  0.00    +0.332 C 
BRANCH  11  12
ATOM     12  O   UNL     1      32.965 -16.057 -20.841  0.00  0.00    -0.479 OA
ATOM     13  H   UNL     1      32.428 -16.581 -21.402  0.00  0.00    +0.295 HD
ENDBRANCH  11  12
ENDBRANCH   1  11
BRANCH   1  14
ATOM     14  CB  UNL     1      33.715 -18.571 -21.298  0.00  0.00    +0.057 C 
BRANCH  14  15
ATOM     15  CG  UNL     1      34.167 -19.820 -20.582  0.00  0.00    -0.020 C 
ATOM     16  CD1 UNL     1      33.222 -20.650 -20.000  0.00  0.00    -0.004 C 
ATOM     17  CD2 UNL     1      35.520 -20.116 -20.521  0.00  0.00    -0.004 C 
ATOM     18  CE1 UNL     1      33.640 -21.805 -19.339  0.00  0.00    -0.000 C 
ATOM     19  CE2 UNL     1      35.938 -21.271 -19.861  0.00  0.00    -0.000 C 
ATOM     20  CZ  UNL     1      34.998 -22.116 -19.270  0.00  0.00    -0.000 C 
ENDBRANCH  14  15
ENDBRANCH   1  14
TORSDOF 6
ENDMDL
MODEL 7
REMARK VINA RESULT:      -7.3      2.244      4.061
REMARK  Name = 446049
REMARK  6 active torsions:
REMARK  status: ('A' for Active; 'I' for Inactive)
REMARK    1  A    between atoms: CA_1  and  N_3
REMARK    2  A    between atoms: CA_1  and  C_11
REMARK    3  A    between atoms: CA_1  and  CB_14
REMARK    4  A    between atoms: N_4  and  O_8
REMARK    5  A    between atoms: C_11  and  O_12
REMARK    6  A    between atoms: CB_14  and  CG_15
REMARK                            x       y       z     vdW  Elec       q    Type
REMARK                         _______ _______ _______ _____ _____    ______ ____
ROOT
ATOM      1  CA  UNL     1      35.807 -24.113 -14.628  0.00  0.00    +0.177 C 
ENDROOT
BRANCH   1   3
ATOM      2  O   UNL     1      37.429 -23.659 -12.313  0.00  0.00    -0.251 OA
ATOM      3  N   UNL     1      35.403 -24.277 -13.254  0.00  0.00    -0.279 N 
ATOM      4  N   UNL     1      35.643 -24.249 -10.975  0.00  0.00    -0.181 N 
ATOM      5  C   ACE A   0      36.264 -24.033 -12.187  0.00  0.00    +0.323 C 
ATOM      6  H   UNL     1      34.485 -24.575 -13.062  0.00  0.00    +0.151 HD
ATOM      7  H   UNL     1      34.708 -24.548 -10.912  0.00  0.00    +0.184 HD
BRANCH   4   8
ATOM      8  O   UNL     1      36.428 -24.016  -9.837  0.00  0.00    -0.294 OA
ATOM      9  H   UNL     1      36.238 -24.692  -9.168  0.00  0.00    +0.241 HD
ENDBRANCH   4   8
ENDBRANCH   1   3
BRANCH   1  11
ATOM     10  OXT UNL     1      35.835 -26.327 -15.601  0.00  0.00    -0.248 OA
ATOM     11  C   UNL     1      36.469 -25.376 -15.158  0.00  0.00    +0.332 C 
BRANCH  11  12
ATOM     12  O   UNL     1      37.823 -25.370 -15.110  0.00  0.00    -0.479 OA
ATOM     13  H   UNL     1      38.283 -26.118 -14.783  0.00  0.00    +0.295 HD
ENDBRANCH  11  12
ENDBRANCH   1  11
BRANCH   1  14
ATOM     14  CB  UNL     1      34.616 -23.733 -15.517  0.00  0.00    +0.057 C 
BRANCH  14  15
ATOM     15  CG  UNL     1      35.023 -22.969 -16.755  0.00  0.00    -0.020 C 
ATOM     16  CD1 UNL     1      34.142 -22.885 -17.821  0.00  0.00    -0.004 C 
ATOM     17  CD2 UNL     1      36.269 -22.364 -16.800  0.00  0.00    -0.004 C 
ATOM     18  CE1 UNL     1      34.518 -22.179 -18.964  0.00  0.00    -0.000 C 
ATOM     19  CE2 UNL     1      36.644 -21.657 -17.942  0.00  0.00    -0.000 C 
ATOM     20  CZ  UNL     1      35.768 -21.565 -19.024  0.00  0.00    -0.000 C 
ENDBRANCH  14  15
ENDBRANCH   1  14
TORSDOF 6
ENDMDL
MODEL 8
REMARK VINA RESULT:      -7.2      1.743      2.266
REMARK  Name = 446049
REMARK  6 active torsions:
REMARK  status: ('A' for Active; 'I' for Inactive)
REMARK    1  A    between atoms: CA_1  and  N_3
REMARK    2  A    between atoms: CA_1  and  C_11
REMARK    3  A    between atoms: CA_1  and  CB_14
REMARK    4  A    between atoms: N_4  and  O_8
REMARK    5  A    between atoms: C_11  and  O_12
REMARK    6  A    between atoms: CB_14  and  CG_15
REMARK                            x       y       z     vdW  Elec       q    Type
REMARK                         _______ _______ _______ _____ _____    ______ ____
ROOT
ATOM      1  CA  UNL     1      36.178 -24.613 -14.816  0.00  0.00    +0.177 C 
ENDROOT
BRANCH   1   3
ATOM      2  O   UNL     1      38.714 -24.066 -13.606  0.00  0.00    -0.251 OA
ATOM      3  N   UNL     1      37.468 -25.028 -15.307  0.00  0.00    -0.279 N 
ATOM      4  N   UNL     1      39.751 -25.234 -15.307  0.00  0.00    -0.181 N 
ATOM      5  C   ACE A   0      38.655 -24.715 -14.649  0.00  0.00    +0.323 C 
ATOM      6  H   UNL     1      37.512 -25.552 -16.138  0.00  0.00    +0.151 HD
ATOM      7  H   UNL     1      39.665 -25.749 -16.141  0.00  0.00    +0.184 HD
BRANCH   4   8
ATOM      8  O   UNL     1      40.994 -24.981 -14.712  0.00  0.00    -0.294 OA
ATOM      9  H   UNL     1      41.624 -25.672 -14.971  0.00  0.00    +0.241 HD
ENDBRANCH   4   8
ENDBRANCH   1   3
BRANCH   1  11
ATOM     10  OXT UNL     1      35.492 -24.239 -12.527  0.00  0.00    -0.248 OA
ATOM     11  C   UNL     1      36.003 -24.988 -13.352  0.00  0.00    +0.332 C 
BRANCH  11  12
ATOM     12  O   UNL     1      36.453 -26.223 -13.024  0.00  0.00    -0.479 OA
ATOM     13  H   UNL     1      37.351 -26.347 -12.786  0.00  0.00    +0.295 HD
ENDBRANCH  11  12
ENDBRANCH   1  11
BRANCH   1  14
ATOM     14  CB  UNL     1      35.970 -23.104 -14.999  0.00  0.00    +0.057 C 
BRANCH  14  15
ATOM     15  CG  UNL     1      35.617 -22.724 -16.417  0.00  0.00    -0.020 C 
ATOM     16  CD1 UNL     1      34.363 -23.041 -16.913  0.00  0.00    -0.004 C 
ATOM     17  CD2 UNL     1      36.554 -22.064 -17.196  0.00  0.00    -0.004 C 
ATOM     18  CE1 UNL     1      34.037 -22.689 -18.223  0.00  0.00    -0.000 C 
ATOM     19  CE2 UNL     1      36.228 -21.711 -18.506  0.00  0.00    -0.000 C 
ATOM     20  CZ  UNL     1      34.969 -22.025 -19.019  0.00  0.00    -0.000 C 
ENDBRANCH  14  15
ENDBRANCH   1  14
TORSDOF 6
ENDMDL
MODEL 9
REMARK VINA RESULT:      -7.2      2.146      3.658
REMARK  Name = 446049
REMARK  6 active torsions:
REMARK  status: ('A' for Active; 'I' for Inactive)
REMARK    1  A    between atoms: CA_1  and  N_3
REMARK    2  A    between atoms: CA_1  and  C_11
REMARK    3  A    between atoms: CA_1  and  CB_14
REMARK    4  A    between atoms: N_4  and  O_8
REMARK    5  A    between atoms: C_11  and  O_12
REMARK    6  A    between atoms: CB_14  and  CG_15
REMARK                            x       y       z     vdW  Elec       q    Type
REMARK                         _______ _______ _______ _____ _____    ______ ____
ROOT
ATOM      1  CA  UNL     1      35.910 -23.312 -15.484  0.00  0.00    +0.177 C 
ENDROOT
BRANCH   1   3
ATOM      2  O   UNL     1      36.156 -24.049 -12.728  0.00  0.00    -0.251 OA
ATOM      3  N   UNL     1      36.278 -24.610 -14.974  0.00  0.00    -0.279 N 
ATOM      4  N   UNL     1      36.728 -26.190 -13.376  0.00  0.00    -0.181 N 
ATOM      5  C   ACE A   0      36.373 -24.878 -13.611  0.00  0.00    +0.323 C 
ATOM      6  H   UNL     1      36.470 -25.333 -15.613  0.00  0.00    +0.151 HD
ATOM      7  H   UNL     1      36.894 -26.826 -14.108  0.00  0.00    +0.184 HD
BRANCH   4   8
ATOM      8  O   UNL     1      36.837 -26.561 -12.029  0.00  0.00    -0.294 OA
ATOM      9  H   UNL     1      36.540 -27.477 -11.920  0.00  0.00    +0.241 HD
ENDBRANCH   4   8
ENDBRANCH   1   3
BRANCH   1  11
ATOM     10  OXT UNL     1      37.063 -21.447 -16.503  0.00  0.00    -0.248 OA
ATOM     11  C   UNL     1      37.128 -22.569 -16.014  0.00  0.00    +0.332 C 
BRANCH  11  12
ATOM     12  O   UNL     1      38.298 -23.241 -15.901  0.00  0.00    -0.479 OA
ATOM     13  H   UNL     1      38.920 -22.992 -15.245  0.00  0.00    +0.295 HD
ENDBRANCH  11  12
ENDBRANCH   1  11
BRANCH   1  14
ATOM     14  CB  UNL     1      34.846 -23.426 -16.583  0.00  0.00    +0.057 C 
BRANCH  14  15
ATOM     15  CG  UNL     1      33.439 -23.252 -16.062  0.00  0.00    -0.020 C 
ATOM     16  CD1 UNL     1      32.396 -23.099 -16.962  0.00  0.00    -0.004 C 
ATOM     17  CD2 UNL     1      33.217 -23.249 -14.694  0.00  0.00    -0.004 C 
ATOM     18  CE1 UNL     1      31.097 -22.939 -16.480  0.00  0.00    -0.000 C 
ATOM     19  CE2 UNL     1      31.917 -23.090 -14.213  0.00  0.00    -0.000 C 
ATOM     20  CZ  UNL     1      30.857 -22.934 -15.107  0.00  0.00    -0.000 C 
ENDBRANCH  14  15
ENDBRANCH   1  14
TORSDOF 6
ENDMDL
