MODEL 1
REMARK VINA RESULT:      -4.8      0.000      0.000
REMARK  Name = 199
REMARK  6 active torsions:
REMARK  status: ('A' for Active; 'I' for Inactive)
REMARK    1  A    between atoms: N_1  and  C_4
REMARK    2  A    between atoms: N_1  and  C_9
REMARK    3  A    between atoms: C_9  and  C_10
REMARK    4  A    between atoms: C_10  and  C_11
REMARK    5  A    between atoms: C_11  and  C_12
REMARK    6  A    between atoms: C_12  and  N_13
REMARK                            x       y       z     vdW  Elec       q    Type
REMARK                         _______ _______ _______ _____ _____    ______ ____
ROOT
ATOM      1  N   UNL     1      35.667 -18.290 -20.794  0.00  0.00    -0.240 NA
ENDROOT
BRANCH   1   4
ATOM      2  N   UNL     1      36.124 -17.985 -23.045  0.00  0.00    -0.370 N 
ATOM      3  N   UNL     1      34.940 -16.343 -21.998  0.00  0.00    -0.370 N 
ATOM      4  C   UNL     1      35.566 -17.562 -21.862  0.00  0.00    +0.189 C 
ATOM      5  H   UNL     1      36.602 -18.845 -23.084  0.00  0.00    +0.159 HD
ATOM      6  H   UNL     1      36.046 -17.429 -23.854  0.00  0.00    +0.159 HD
ATOM      7  H   UNL     1      34.499 -15.926 -21.223  0.00  0.00    +0.159 HD
ATOM      8  H   UNL     1      34.934 -15.888 -22.872  0.00  0.00    +0.159 HD
ENDBRANCH   1   4
BRANCH   1   9
ATOM      9  C   UNL     1      35.158 -19.660 -20.880  0.00  0.00    +0.128 C 
BRANCH   9  10
ATOM     10  C   UNL     1      33.658 -19.642 -21.154  0.00  0.00    +0.024 C 
BRANCH  10  11
ATOM     11  C   UNL     1      32.864 -20.449 -20.117  0.00  0.00    -0.022 C 
BRANCH  11  12
ATOM     12  C   UNL     1      33.688 -21.558 -19.462  0.00  0.00    -0.086 C 
BRANCH  12  13
ATOM     13  N   UNL     1      32.877 -22.402 -18.593  0.00  0.00    +0.380 N 
ATOM     14  H   UNL     1      32.575 -23.229 -19.107  0.00  0.00    -0.089 HD
ATOM     15  H   UNL     1      32.059 -21.880 -18.280  0.00  0.00    -0.089 HD
ATOM     16  H   UNL     1      33.428 -22.687 -17.784  0.00  0.00    -0.089 HD
ENDBRANCH  12  13
ENDBRANCH  11  12
ENDBRANCH  10  11
ENDBRANCH   9  10
ENDBRANCH   1   9
TORSDOF 6
ENDMDL
MODEL 2
REMARK VINA RESULT:      -4.6      3.347      4.890
REMARK  Name = 199
REMARK  6 active torsions:
REMARK  status: ('A' for Active; 'I' for Inactive)
REMARK    1  A    between atoms: N_1  and  C_4
REMARK    2  A    between atoms: N_1  and  C_9
REMARK    3  A    between atoms: C_9  and  C_10
REMARK    4  A    between atoms: C_10  and  C_11
REMARK    5  A    between atoms: C_11  and  C_12
REMARK    6  A    between atoms: C_12  and  N_13
REMARK                            x       y       z     vdW  Elec       q    Type
REMARK                         _______ _______ _______ _____ _____    ______ ____
ROOT
ATOM      1  N   UNL     1      34.073 -16.362 -25.903  0.00  0.00    -0.240 NA
ENDROOT
BRANCH   1   4
ATOM      2  N   UNL     1      33.427 -14.754 -24.365  0.00  0.00    -0.370 N 
ATOM      3  N   UNL     1      32.443 -14.675 -26.419  0.00  0.00    -0.370 N 
ATOM      4  C   UNL     1      33.346 -15.329 -25.610  0.00  0.00    +0.189 C 
ATOM      5  H   UNL     1      34.039 -15.126 -23.689  0.00  0.00    +0.159 HD
ATOM      6  H   UNL     1      32.873 -13.969 -24.147  0.00  0.00    +0.159 HD
ATOM      7  H   UNL     1      32.289 -14.988 -27.339  0.00  0.00    +0.159 HD
ATOM      8  H   UNL     1      31.950 -13.896 -26.075  0.00  0.00    +0.159 HD
ENDBRANCH   1   4
BRANCH   1   9
ATOM      9  C   UNL     1      34.909 -16.904 -24.829  0.00  0.00    +0.128 C 
BRANCH   9  10
ATOM     10  C   UNL     1      34.570 -18.373 -24.597  0.00  0.00    +0.024 C 
BRANCH  10  11
ATOM     11  C   UNL     1      34.976 -18.853 -23.197  0.00  0.00    -0.022 C 
BRANCH  11  12
ATOM     12  C   UNL     1      35.484 -17.723 -22.300  0.00  0.00    -0.086 C 
BRANCH  12  13
ATOM     13  N   UNL     1      35.575 -18.132 -20.904  0.00  0.00    +0.380 N 
ATOM     14  H   UNL     1      36.463 -17.817 -20.514  0.00  0.00    -0.089 HD
ATOM     15  H   UNL     1      35.519 -19.149 -20.843  0.00  0.00    -0.089 HD
ATOM     16  H   UNL     1      34.806 -17.718 -20.378  0.00  0.00    -0.089 HD
ENDBRANCH  12  13
ENDBRANCH  11  12
ENDBRANCH  10  11
ENDBRANCH   9  10
ENDBRANCH   1   9
TORSDOF 6
ENDMDL
MODEL 3
REMARK VINA RESULT:      -4.6      1.586      2.032
REMARK  Name = 199
REMARK  6 active torsions:
REMARK  status: ('A' for Active; 'I' for Inactive)
REMARK    1  A    between atoms: N_1  and  C_4
REMARK    2  A    between atoms: N_1  and  C_9
REMARK    3  A    between atoms: C_9  and  C_10
REMARK    4  A    between atoms: C_10  and  C_11
REMARK    5  A    between atoms: C_11  and  C_12
REMARK    6  A    between atoms: C_12  and  N_13
REMARK                            x       y       z     vdW  Elec       q    Type
REMARK                         _______ _______ _______ _____ _____    ______ ____
ROOT
ATOM      1  N   UNL     1      35.586 -19.045 -20.665  0.00  0.00    -0.240 NA
ENDROOT
BRANCH   1   4
ATOM      2  N   UNL     1      34.434 -19.300 -22.660  0.00  0.00    -0.370 N 
ATOM      3  N   UNL     1      36.389 -18.131 -22.737  0.00  0.00    -0.370 N 
ATOM      4  C   UNL     1      35.504 -18.823 -21.940  0.00  0.00    +0.189 C 
ATOM      5  H   UNL     1      33.726 -19.813 -22.208  0.00  0.00    +0.159 HD
ATOM      6  H   UNL     1      34.376 -19.130 -23.628  0.00  0.00    +0.159 HD
ATOM      7  H   UNL     1      37.201 -17.737 -22.344  0.00  0.00    +0.159 HD
ATOM      8  H   UNL     1      36.210 -18.032 -23.700  0.00  0.00    +0.159 HD
ENDBRANCH   1   4
BRANCH   1   9
ATOM      9  C   UNL     1      36.602 -20.005 -20.229  0.00  0.00    +0.128 C 
BRANCH   9  10
ATOM     10  C   UNL     1      36.023 -21.416 -20.235  0.00  0.00    +0.024 C 
BRANCH  10  11
ATOM     11  C   UNL     1      35.138 -21.691 -19.012  0.00  0.00    -0.022 C 
BRANCH  11  12
ATOM     12  C   UNL     1      33.679 -21.969 -19.378  0.00  0.00    -0.086 C 
BRANCH  12  13
ATOM     13  N   UNL     1      32.970 -20.753 -19.759  0.00  0.00    +0.380 N 
ATOM     14  H   UNL     1      31.966 -20.928 -19.748  0.00  0.00    -0.089 HD
ATOM     15  H   UNL     1      33.255 -20.473 -20.697  0.00  0.00    -0.089 HD
ATOM     16  H   UNL     1      33.193 -20.008 -19.100  0.00  0.00    -0.089 HD
ENDBRANCH  12  13
ENDBRANCH  11  12
ENDBRANCH  10  11
ENDBRANCH   9  10
ENDBRANCH   1   9
TORSDOF 6
ENDMDL
MODEL 4
REMARK VINA RESULT:      -4.5      2.209      4.925
REMARK  Name = 199
REMARK  6 active torsions:
REMARK  status: ('A' for Active; 'I' for Inactive)
REMARK    1  A    between atoms: N_1  and  C_4
REMARK    2  A    between atoms: N_1  and  C_9
REMARK    3  A    between atoms: C_9  and  C_10
REMARK    4  A    between atoms: C_10  and  C_11
REMARK    5  A    between atoms: C_11  and  C_12
REMARK    6  A    between atoms: C_12  and  N_13
REMARK                            x       y       z     vdW  Elec       q    Type
REMARK                         _______ _______ _______ _____ _____    ______ ____
ROOT
ATOM      1  N   UNL     1      33.811 -19.371 -21.446  0.00  0.00    -0.240 NA
ENDROOT
BRANCH   1   4
ATOM      2  N   UNL     1      32.786 -20.687 -19.837  0.00  0.00    -0.370 N 
ATOM      3  N   UNL     1      35.065 -20.658 -19.851  0.00  0.00    -0.370 N 
ATOM      4  C   UNL     1      33.914 -20.186 -20.443  0.00  0.00    +0.189 C 
ATOM      5  H   UNL     1      31.895 -20.427 -20.165  0.00  0.00    +0.159 HD
ATOM      6  H   UNL     1      32.868 -21.305 -19.075  0.00  0.00    +0.159 HD
ATOM      7  H   UNL     1      35.944 -20.375 -20.190  0.00  0.00    +0.159 HD
ATOM      8  H   UNL     1      35.007 -21.278 -19.089  0.00  0.00    +0.159 HD
ENDBRANCH   1   4
BRANCH   1   9
ATOM      9  C   UNL     1      34.776 -18.271 -21.503  0.00  0.00    +0.128 C 
BRANCH   9  10
ATOM     10  C   UNL     1      35.647 -18.406 -22.748  0.00  0.00    +0.024 C 
BRANCH  10  11
ATOM     11  C   UNL     1      34.906 -19.079 -23.910  0.00  0.00    -0.022 C 
BRANCH  11  12
ATOM     12  C   UNL     1      34.461 -18.090 -24.989  0.00  0.00    -0.086 C 
BRANCH  12  13
ATOM     13  N   UNL     1      35.117 -16.795 -24.849  0.00  0.00    +0.380 N 
ATOM     14  H   UNL     1      34.562 -16.198 -24.237  0.00  0.00    -0.089 HD
ATOM     15  H   UNL     1      35.203 -16.356 -25.765  0.00  0.00    -0.089 HD
ATOM     16  H   UNL     1      36.045 -16.926 -24.446  0.00  0.00    -0.089 HD
ENDBRANCH  12  13
ENDBRANCH  11  12
ENDBRANCH  10  11
ENDBRANCH   9  10
ENDBRANCH   1   9
TORSDOF 6
ENDMDL
MODEL 5
REMARK VINA RESULT:      -4.5      2.837      3.878
REMARK  Name = 199
REMARK  6 active torsions:
REMARK  status: ('A' for Active; 'I' for Inactive)
REMARK    1  A    between atoms: N_1  and  C_4
REMARK    2  A    between atoms: N_1  and  C_9
REMARK    3  A    between atoms: C_9  and  C_10
REMARK    4  A    between atoms: C_10  and  C_11
REMARK    5  A    between atoms: C_11  and  C_12
REMARK    6  A    between atoms: C_12  and  N_13
REMARK                            x       y       z     vdW  Elec       q    Type
REMARK                         _______ _______ _______ _____ _____    ______ ____
ROOT
ATOM      1  N   UNL     1      35.275 -16.067 -23.607  0.00  0.00    -0.240 NA
ENDROOT
BRANCH   1   4
ATOM      2  N   UNL     1      33.391 -14.953 -24.368  0.00  0.00    -0.370 N 
ATOM      3  N   UNL     1      34.491 -14.034 -22.596  0.00  0.00    -0.370 N 
ATOM      4  C   UNL     1      34.455 -15.069 -23.505  0.00  0.00    +0.189 C 
ATOM      5  H   UNL     1      33.250 -15.630 -25.068  0.00  0.00    +0.159 HD
ATOM      6  H   UNL     1      32.770 -14.192 -24.287  0.00  0.00    +0.159 HD
ATOM      7  H   UNL     1      35.206 -13.997 -21.920  0.00  0.00    +0.159 HD
ATOM      8  H   UNL     1      33.803 -13.331 -22.624  0.00  0.00    +0.159 HD
ENDBRANCH   1   4
BRANCH   1   9
ATOM      9  C   UNL     1      34.794 -17.243 -24.335  0.00  0.00    +0.128 C 
BRANCH   9  10
ATOM     10  C   UNL     1      35.398 -18.509 -23.735  0.00  0.00    +0.024 C 
BRANCH  10  11
ATOM     11  C   UNL     1      34.601 -19.022 -22.528  0.00  0.00    -0.022 C 
BRANCH  11  12
ATOM     12  C   UNL     1      35.338 -18.836 -21.201  0.00  0.00    -0.086 C 
BRANCH  12  13
ATOM     13  N   UNL     1      35.299 -17.453 -20.743  0.00  0.00    +0.380 N 
ATOM     14  H   UNL     1      34.666 -17.376 -19.947  0.00  0.00    -0.089 HD
ATOM     15  H   UNL     1      34.968 -16.854 -21.499  0.00  0.00    -0.089 HD
ATOM     16  H   UNL     1      36.235 -17.161 -20.463  0.00  0.00    -0.089 HD
ENDBRANCH  12  13
ENDBRANCH  11  12
ENDBRANCH  10  11
ENDBRANCH   9  10
ENDBRANCH   1   9
TORSDOF 6
ENDMDL
MODEL 6
REMARK VINA RESULT:      -4.5      9.196     10.514
REMARK  Name = 199
REMARK  6 active torsions:
REMARK  status: ('A' for Active; 'I' for Inactive)
REMARK    1  A    between atoms: N_1  and  C_4
REMARK    2  A    between atoms: N_1  and  C_9
REMARK    3  A    between atoms: C_9  and  C_10
REMARK    4  A    between atoms: C_10  and  C_11
REMARK    5  A    between atoms: C_11  and  C_12
REMARK    6  A    between atoms: C_12  and  N_13
REMARK                            x       y       z     vdW  Elec       q    Type
REMARK                         _______ _______ _______ _____ _____    ______ ____
ROOT
ATOM      1  N   UNL     1      41.801 -13.211 -15.830  0.00  0.00    -0.240 NA
ENDROOT
BRANCH   1   4
ATOM      2  N   UNL     1      40.680 -13.266 -13.803  0.00  0.00    -0.370 N 
ATOM      3  N   UNL     1      40.483 -15.098 -15.144  0.00  0.00    -0.370 N 
ATOM      4  C   UNL     1      41.034 -13.844 -14.999  0.00  0.00    +0.189 C 
ATOM      5  H   UNL     1      41.008 -12.366 -13.576  0.00  0.00    +0.159 HD
ATOM      6  H   UNL     1      40.097 -13.751 -13.174  0.00  0.00    +0.159 HD
ATOM      7  H   UNL     1      40.660 -15.623 -15.958  0.00  0.00    +0.159 HD
ATOM      8  H   UNL     1      39.913 -15.470 -14.433  0.00  0.00    +0.159 HD
ENDBRANCH   1   4
BRANCH   1   9
ATOM      9  C   UNL     1      41.769 -13.657 -17.225  0.00  0.00    +0.128 C 
BRANCH   9  10
ATOM     10  C   UNL     1      43.155 -14.129 -17.652  0.00  0.00    +0.024 C 
BRANCH  10  11
ATOM     11  C   UNL     1      43.421 -15.589 -17.265  0.00  0.00    -0.022 C 
BRANCH  11  12
ATOM     12  C   UNL     1      42.547 -16.582 -18.033  0.00  0.00    -0.086 C 
BRANCH  12  13
ATOM     13  N   UNL     1      42.840 -16.578 -19.461  0.00  0.00    +0.380 N 
ATOM     14  H   UNL     1      43.743 -16.134 -19.621  0.00  0.00    -0.089 HD
ATOM     15  H   UNL     1      42.114 -16.060 -19.956  0.00  0.00    -0.089 HD
ATOM     16  H   UNL     1      42.867 -17.538 -19.805  0.00  0.00    -0.089 HD
ENDBRANCH  12  13
ENDBRANCH  11  12
ENDBRANCH  10  11
ENDBRANCH   9  10
ENDBRANCH   1   9
TORSDOF 6
ENDMDL
MODEL 7
REMARK VINA RESULT:      -4.4      3.254      5.608
REMARK  Name = 199
REMARK  6 active torsions:
REMARK  status: ('A' for Active; 'I' for Inactive)
REMARK    1  A    between atoms: N_1  and  C_4
REMARK    2  A    between atoms: N_1  and  C_9
REMARK    3  A    between atoms: C_9  and  C_10
REMARK    4  A    between atoms: C_10  and  C_11
REMARK    5  A    between atoms: C_11  and  C_12
REMARK    6  A    between atoms: C_12  and  N_13
REMARK                            x       y       z     vdW  Elec       q    Type
REMARK                         _______ _______ _______ _____ _____    ______ ____
ROOT
ATOM      1  N   UNL     1      34.853 -16.083 -21.913  0.00  0.00    -0.240 NA
ENDROOT
BRANCH   1   4
ATOM      2  N   UNL     1      35.457 -18.049 -20.845  0.00  0.00    -0.370 N 
ATOM      3  N   UNL     1      35.992 -17.865 -23.053  0.00  0.00    -0.370 N 
ATOM      4  C   UNL     1      35.407 -17.254 -21.966  0.00  0.00    +0.189 C 
ATOM      5  H   UNL     1      35.072 -17.730 -19.998  0.00  0.00    +0.159 HD
ATOM      6  H   UNL     1      35.879 -18.938 -20.890  0.00  0.00    +0.159 HD
ATOM      7  H   UNL     1      36.024 -17.401 -23.920  0.00  0.00    +0.159 HD
ATOM      8  H   UNL     1      36.381 -18.765 -22.962  0.00  0.00    +0.159 HD
ENDBRANCH   1   4
BRANCH   1   9
ATOM      9  C   UNL     1      34.495 -15.583 -20.584  0.00  0.00    +0.128 C 
BRANCH   9  10
ATOM     10  C   UNL     1      33.310 -14.629 -20.689  0.00  0.00    +0.024 C 
BRANCH  10  11
ATOM     11  C   UNL     1      32.620 -14.701 -22.058  0.00  0.00    -0.022 C 
BRANCH  11  12
ATOM     12  C   UNL     1      32.780 -13.420 -22.878  0.00  0.00    -0.086 C 
BRANCH  12  13
ATOM     13  N   UNL     1      34.129 -13.278 -23.414  0.00  0.00    +0.380 N 
ATOM     14  H   UNL     1      34.729 -12.844 -22.713  0.00  0.00    -0.089 HD
ATOM     15  H   UNL     1      34.103 -12.692 -24.248  0.00  0.00    -0.089 HD
ATOM     16  H   UNL     1      34.497 -14.198 -23.655  0.00  0.00    -0.089 HD
ENDBRANCH  12  13
ENDBRANCH  11  12
ENDBRANCH  10  11
ENDBRANCH   9  10
ENDBRANCH   1   9
TORSDOF 6
ENDMDL
MODEL 8
REMARK VINA RESULT:      -4.4      9.720     10.649
REMARK  Name = 199
REMARK  6 active torsions:
REMARK  status: ('A' for Active; 'I' for Inactive)
REMARK    1  A    between atoms: N_1  and  C_4
REMARK    2  A    between atoms: N_1  and  C_9
REMARK    3  A    between atoms: C_9  and  C_10
REMARK    4  A    between atoms: C_10  and  C_11
REMARK    5  A    between atoms: C_11  and  C_12
REMARK    6  A    between atoms: C_12  and  N_13
REMARK                            x       y       z     vdW  Elec       q    Type
REMARK                         _______ _______ _______ _____ _____    ______ ____
ROOT
ATOM      1  N   UNL     1      38.654 -26.024 -13.310  0.00  0.00    -0.240 NA
ENDROOT
BRANCH   1   4
ATOM      2  N   UNL     1      40.699 -26.542 -14.269  0.00  0.00    -0.370 N 
ATOM      3  N   UNL     1      39.430 -24.971 -15.325  0.00  0.00    -0.370 N 
ATOM      4  C   UNL     1      39.520 -25.835 -14.256  0.00  0.00    +0.189 C 
ATOM      5  H   UNL     1      40.888 -27.196 -13.557  0.00  0.00    +0.159 HD
ATOM      6  H   UNL     1      41.354 -26.395 -14.989  0.00  0.00    +0.159 HD
ATOM      7  H   UNL     1      38.634 -24.403 -15.434  0.00  0.00    +0.159 HD
ATOM      8  H   UNL     1      40.164 -24.921 -15.980  0.00  0.00    +0.159 HD
ENDBRANCH   1   4
BRANCH   1   9
ATOM      9  C   UNL     1      37.290 -26.359 -13.724  0.00  0.00    +0.128 C 
BRANCH   9  10
ATOM     10  C   UNL     1      36.374 -25.156 -13.524  0.00  0.00    +0.024 C 
BRANCH  10  11
ATOM     11  C   UNL     1      36.129 -24.847 -12.041  0.00  0.00    -0.022 C 
BRANCH  11  12
ATOM     12  C   UNL     1      36.675 -23.483 -11.616  0.00  0.00    -0.086 C 
BRANCH  12  13
ATOM     13  N   UNL     1      38.133 -23.457 -11.603  0.00  0.00    +0.380 N 
ATOM     14  H   UNL     1      38.470 -22.912 -12.396  0.00  0.00    -0.089 HD
ATOM     15  H   UNL     1      38.490 -24.410 -11.670  0.00  0.00    -0.089 HD
ATOM     16  H   UNL     1      38.458 -23.032 -10.735  0.00  0.00    -0.089 HD
ENDBRANCH  12  13
ENDBRANCH  11  12
ENDBRANCH  10  11
ENDBRANCH   9  10
ENDBRANCH   1   9
TORSDOF 6
ENDMDL
MODEL 9
REMARK VINA RESULT:      -4.4      9.589     10.619
REMARK  Name = 199
REMARK  6 active torsions:
REMARK  status: ('A' for Active; 'I' for Inactive)
REMARK    1  A    between atoms: N_1  and  C_4
REMARK    2  A    between atoms: N_1  and  C_9
REMARK    3  A    between atoms: C_9  and  C_10
REMARK    4  A    between atoms: C_10  and  C_11
REMARK    5  A    between atoms: C_11  and  C_12
REMARK    6  A    between atoms: C_12  and  N_13
REMARK                            x       y       z     vdW  Elec       q    Type
REMARK                         _______ _______ _______ _____ _____    ______ ____
ROOT
ATOM      1  N   UNL     1      36.475 -25.470 -11.830  0.00  0.00    -0.240 NA
ENDROOT
BRANCH   1   4
ATOM      2  N   UNL     1      35.099 -23.633 -12.149  0.00  0.00    -0.370 N 
ATOM      3  N   UNL     1      36.888 -23.357 -10.765  0.00  0.00    -0.370 N 
ATOM      4  C   UNL     1      36.198 -24.229 -11.578  0.00  0.00    +0.189 C 
ATOM      5  H   UNL     1      34.518 -24.150 -12.753  0.00  0.00    +0.159 HD
ATOM      6  H   UNL     1      34.893 -22.690 -11.955  0.00  0.00    +0.159 HD
ATOM      7  H   UNL     1      37.698 -23.659 -10.294  0.00  0.00    +0.159 HD
ATOM      8  H   UNL     1      36.571 -22.431 -10.656  0.00  0.00    +0.159 HD
ENDBRANCH   1   4
BRANCH   1   9
ATOM      9  C   UNL     1      37.833 -25.760 -12.296  0.00  0.00    +0.128 C 
BRANCH   9  10
ATOM     10  C   UNL     1      38.017 -25.241 -13.718  0.00  0.00    +0.024 C 
BRANCH  10  11
ATOM     11  C   UNL     1      38.079 -26.374 -14.751  0.00  0.00    -0.022 C 
BRANCH  11  12
ATOM     12  C   UNL     1      36.703 -26.767 -15.292  0.00  0.00    -0.086 C 
BRANCH  12  13
ATOM     13  N   UNL     1      35.682 -25.782 -14.957  0.00  0.00    +0.380 N 
ATOM     14  H   UNL     1      35.442 -25.245 -15.789  0.00  0.00    -0.089 HD
ATOM     15  H   UNL     1      36.039 -25.153 -14.238  0.00  0.00    -0.089 HD
ATOM     16  H   UNL     1      34.851 -26.259 -14.609  0.00  0.00    -0.089 HD
ENDBRANCH  12  13
ENDBRANCH  11  12
ENDBRANCH  10  11
ENDBRANCH   9  10
ENDBRANCH   1   9
TORSDOF 6
ENDMDL
