MODEL 1
REMARK VINA RESULT:     -10.2      0.000      0.000
REMARK  Name = 11304895
REMARK  9 active torsions:
REMARK  status: ('A' for Active; 'I' for Inactive)
REMARK    1  A    between atoms: N_2  and  C_6
REMARK    2  A    between atoms: C_3  and  C_22
REMARK    3  A    between atoms: C_9  and  C_17
REMARK    4  A    between atoms: C_21  and  S_27
REMARK    5  A    between atoms: S_27  and  O_30
REMARK    6  A    between atoms: O_30  and  C_31
REMARK    7  A    between atoms: C_31  and  C_32
REMARK    8  A    between atoms: C_32  and  C_33
REMARK    9  A    between atoms: C_33  and  O_34
REMARK                            x       y       z     vdW  Elec       q    Type
REMARK                         _______ _______ _______ _____ _____    ______ ____
ROOT
ATOM      1  O   UNL     1      33.483 -24.039 -18.655  0.00  0.00    -0.270 OA
ATOM      2  N   UNL     1      32.486 -22.241 -17.518  0.00  0.00    -0.280 N 
ATOM      3  C   UNL     1      33.393 -22.845 -18.395  0.00  0.00    +0.250 C 
ATOM      4  H   UNL     1      32.556 -21.264 -17.429  0.00  0.00    +0.155 HD
ENDROOT
BRANCH   2   6
ATOM      5  C   UNL     1      31.791 -23.538 -15.558  0.00  0.00    +0.014 C 
ATOM      6  C   UNL     1      31.491 -22.860 -16.751  0.00  0.00    +0.050 C 
ATOM      7  C   UNL     1      30.744 -24.147 -14.826  0.00  0.00    +0.001 C 
ATOM      8  C   UNL     1      33.107 -23.626 -15.077  0.00  0.00    +0.004 C 
ATOM      9  C   UNL     1      33.387 -24.303 -13.889  0.00  0.00    +0.031 C 
ATOM     10  C   UNL     1      30.177 -22.783 -17.215  0.00  0.00    +0.015 C 
ATOM     11  C   UNL     1      31.044 -24.825 -13.633  0.00  0.00    +0.000 C 
ATOM     12  C   UNL     1      29.427 -24.058 -15.308  0.00  0.00    +0.000 C 
ATOM     13  C   UNL     1      32.357 -24.902 -13.169  0.00  0.00    +0.003 C 
ATOM     14  C   UNL     1      29.148 -23.381 -16.495  0.00  0.00    +0.001 C 
BRANCH   9  17
ATOM     15  N   UNL     1      35.656 -25.311 -13.928  0.00  0.00    -0.343 N 
ATOM     16  N   UNL     1      35.161 -23.579 -12.439  0.00  0.00    -0.285 NA
ATOM     17  C   UNL     1      34.755 -24.387 -13.403  0.00  0.00    +0.117 C 
ATOM     18  H   UNL     1      36.578 -25.351 -13.584  0.00  0.00    +0.144 HD
ATOM     19  H   UNL     1      35.372 -25.924 -14.644  0.00  0.00    +0.144 HD
ATOM     20  H   UNL     1      36.087 -23.634 -12.109  0.00  0.00    +0.188 HD
ENDBRANCH   9  17
ENDBRANCH   2   6
BRANCH   3  22
ATOM     21  C   UNL     1      34.770 -20.011 -20.422  0.00  0.00    +0.110 C 
ATOM     22  C   UNL     1      34.355 -21.918 -19.047  0.00  0.00    +0.055 C 
ATOM     23  C   UNL     1      33.866 -20.879 -19.811  0.00  0.00    +0.023 C 
ATOM     24  C   UNL     1      36.141 -20.201 -20.256  0.00  0.00    +0.019 C 
ATOM     25  C   UNL     1      35.706 -22.129 -18.866  0.00  0.00    +0.005 C 
ATOM     26  C   UNL     1      36.609 -21.260 -19.478  0.00  0.00    +0.001 C 
BRANCH  21  27
ATOM     27  S   UNL     1      34.185 -18.684 -21.393  0.00  0.00    +0.013 S 
ATOM     28  O   UNL     1      32.782 -18.501 -21.050  0.00  0.00    -0.067 OA
ATOM     29  O   UNL     1      35.131 -17.585 -21.261  0.00  0.00    -0.067 OA
BRANCH  27  30
ATOM     30  O   UNL     1      34.276 -19.224 -22.939  0.00  0.00    -0.238 OA
BRANCH  30  31
ATOM     31  C   UNL     1      35.266 -18.694 -23.807  0.00  0.00    +0.175 C 
BRANCH  31  32
ATOM     32  C   UNL     1      34.605 -17.875 -24.904  0.00  0.00    +0.066 C 
BRANCH  32  33
ATOM     33  C   UNL     1      34.557 -16.395 -24.560  0.00  0.00    +0.140 C 
BRANCH  33  34
ATOM     34  O   UNL     1      35.630 -16.093 -23.680  0.00  0.00    -0.382 OA
ATOM     35  H   UNL     1      36.220 -15.446 -24.097  0.00  0.00    +0.210 HD
ENDBRANCH  33  34
ENDBRANCH  32  33
ENDBRANCH  31  32
ENDBRANCH  30  31
ENDBRANCH  27  30
ENDBRANCH  21  27
ENDBRANCH   3  22
TORSDOF 9
ENDMDL
MODEL 2
REMARK VINA RESULT:     -10.2      2.248      3.925
REMARK  Name = 11304895
REMARK  9 active torsions:
REMARK  status: ('A' for Active; 'I' for Inactive)
REMARK    1  A    between atoms: N_2  and  C_6
REMARK    2  A    between atoms: C_3  and  C_22
REMARK    3  A    between atoms: C_9  and  C_17
REMARK    4  A    between atoms: C_21  and  S_27
REMARK    5  A    between atoms: S_27  and  O_30
REMARK    6  A    between atoms: O_30  and  C_31
REMARK    7  A    between atoms: C_31  and  C_32
REMARK    8  A    between atoms: C_32  and  C_33
REMARK    9  A    between atoms: C_33  and  O_34
REMARK                            x       y       z     vdW  Elec       q    Type
REMARK                         _______ _______ _______ _____ _____    ______ ____
ROOT
ATOM      1  O   UNL     1      37.043 -21.829 -19.063  0.00  0.00    -0.270 OA
ATOM      2  N   UNL     1      35.302 -22.021 -17.497  0.00  0.00    -0.280 N 
ATOM      3  C   UNL     1      35.878 -21.662 -18.719  0.00  0.00    +0.250 C 
ATOM      4  H   UNL     1      34.347 -21.811 -17.390  0.00  0.00    +0.155 HD
ENDROOT
BRANCH   2   6
ATOM      5  C   UNL     1      35.179 -23.189 -15.345  0.00  0.00    +0.014 C 
ATOM      6  C   UNL     1      35.922 -22.645 -16.406  0.00  0.00    +0.050 C 
ATOM      7  C   UNL     1      35.860 -23.806 -14.268  0.00  0.00    +0.001 C 
ATOM      8  C   UNL     1      33.776 -23.133 -15.329  0.00  0.00    +0.004 C 
ATOM      9  C   UNL     1      33.054 -23.679 -14.267  0.00  0.00    +0.031 C 
ATOM     10  C   UNL     1      37.316 -22.709 -16.405  0.00  0.00    +0.015 C 
ATOM     11  C   UNL     1      35.117 -24.350 -13.208  0.00  0.00    +0.000 C 
ATOM     12  C   UNL     1      37.263 -23.862 -14.285  0.00  0.00    +0.000 C 
ATOM     13  C   UNL     1      33.723 -24.286 -13.209  0.00  0.00    +0.003 C 
ATOM     14  C   UNL     1      37.984 -23.316 -15.347  0.00  0.00    +0.001 C 
BRANCH   9  17
ATOM     15  N   UNL     1      30.888 -23.271 -15.411  0.00  0.00    -0.343 N 
ATOM     16  N   UNL     1      30.934 -23.878 -13.154  0.00  0.00    -0.285 NA
ATOM     17  C   UNL     1      31.601 -23.614 -14.264  0.00  0.00    +0.117 C 
ATOM     18  H   UNL     1      29.904 -23.233 -15.386  0.00  0.00    +0.144 HD
ATOM     19  H   UNL     1      31.367 -23.068 -16.246  0.00  0.00    +0.144 HD
ATOM     20  H   UNL     1      29.950 -23.834 -13.150  0.00  0.00    +0.188 HD
ENDBRANCH   9  17
ENDBRANCH   2   6
BRANCH   3  22
ATOM     21  C   UNL     1      34.644 -19.548 -21.556  0.00  0.00    +0.110 C 
ATOM     22  C   UNL     1      34.963 -20.984 -19.674  0.00  0.00    +0.055 C 
ATOM     23  C   UNL     1      35.503 -20.184 -20.660  0.00  0.00    +0.023 C 
ATOM     24  C   UNL     1      33.266 -19.726 -21.446  0.00  0.00    +0.019 C 
ATOM     25  C   UNL     1      33.604 -21.177 -19.543  0.00  0.00    +0.005 C 
ATOM     26  C   UNL     1      32.746 -20.540 -20.439  0.00  0.00    +0.001 C 
BRANCH  21  27
ATOM     27  S   UNL     1      35.295 -18.531 -22.817  0.00  0.00    +0.013 S 
ATOM     28  O   UNL     1      36.702 -18.326 -22.504  0.00  0.00    -0.067 OA
ATOM     29  O   UNL     1      34.894 -19.099 -24.096  0.00  0.00    -0.067 OA
BRANCH  27  30
ATOM     30  O   UNL     1      34.510 -17.101 -22.648  0.00  0.00    -0.238 OA
BRANCH  30  31
ATOM     31  C   UNL     1      35.006 -15.950 -23.315  0.00  0.00    +0.175 C 
BRANCH  31  32
ATOM     32  C   UNL     1      33.889 -15.299 -24.116  0.00  0.00    +0.066 C 
BRANCH  32  33
ATOM     33  C   UNL     1      33.681 -15.979 -25.459  0.00  0.00    +0.140 C 
BRANCH  33  34
ATOM     34  O   UNL     1      34.856 -16.703 -25.795  0.00  0.00    -0.382 OA
ATOM     35  H   UNL     1      35.379 -16.194 -26.434  0.00  0.00    +0.210 HD
ENDBRANCH  33  34
ENDBRANCH  32  33
ENDBRANCH  31  32
ENDBRANCH  30  31
ENDBRANCH  27  30
ENDBRANCH  21  27
ENDBRANCH   3  22
TORSDOF 9
ENDMDL
MODEL 3
REMARK VINA RESULT:     -10.1      7.944     11.412
REMARK  Name = 11304895
REMARK  9 active torsions:
REMARK  status: ('A' for Active; 'I' for Inactive)
REMARK    1  A    between atoms: N_2  and  C_6
REMARK    2  A    between atoms: C_3  and  C_22
REMARK    3  A    between atoms: C_9  and  C_17
REMARK    4  A    between atoms: C_21  and  S_27
REMARK    5  A    between atoms: S_27  and  O_30
REMARK    6  A    between atoms: O_30  and  C_31
REMARK    7  A    between atoms: C_31  and  C_32
REMARK    8  A    between atoms: C_32  and  C_33
REMARK    9  A    between atoms: C_33  and  O_34
REMARK                            x       y       z     vdW  Elec       q    Type
REMARK                         _______ _______ _______ _____ _____    ______ ____
ROOT
ATOM      1  O   UNL     1      31.587 -13.994 -21.645  0.00  0.00    -0.270 OA
ATOM      2  N   UNL     1      32.811 -12.752 -23.220  0.00  0.00    -0.280 N 
ATOM      3  C   UNL     1      32.105 -12.951 -22.030  0.00  0.00    +0.250 C 
ATOM      4  H   UNL     1      33.161 -11.845 -23.370  0.00  0.00    +0.155 HD
ENDROOT
BRANCH   2   6
ATOM      5  C   UNL     1      33.704 -14.916 -23.944  0.00  0.00    +0.014 C 
ATOM      6  C   UNL     1      33.082 -13.690 -24.225  0.00  0.00    +0.050 C 
ATOM      7  C   UNL     1      33.954 -15.825 -25.001  0.00  0.00    +0.001 C 
ATOM      8  C   UNL     1      34.085 -15.262 -22.637  0.00  0.00    +0.004 C 
ATOM      9  C   UNL     1      34.703 -16.486 -22.376  0.00  0.00    +0.031 C 
ATOM     10  C   UNL     1      32.710 -13.363 -25.530  0.00  0.00    +0.015 C 
ATOM     11  C   UNL     1      34.577 -17.052 -24.719  0.00  0.00    +0.000 C 
ATOM     12  C   UNL     1      33.572 -15.479 -26.308  0.00  0.00    +0.000 C 
ATOM     13  C   UNL     1      34.948 -17.378 -23.415  0.00  0.00    +0.003 C 
ATOM     14  C   UNL     1      32.955 -14.256 -26.568  0.00  0.00    +0.001 C 
BRANCH   9  17
ATOM     15  N   UNL     1      35.624 -18.081 -20.711  0.00  0.00    -0.343 N 
ATOM     16  N   UNL     1      34.940 -15.947 -20.046  0.00  0.00    -0.285 NA
ATOM     17  C   UNL     1      35.093 -16.830 -21.018  0.00  0.00    +0.117 C 
ATOM     18  H   UNL     1      35.882 -18.293 -19.784  0.00  0.00    +0.144 HD
ATOM     19  H   UNL     1      35.743 -18.753 -21.420  0.00  0.00    +0.144 HD
ATOM     20  H   UNL     1      35.203 -16.179 -19.126  0.00  0.00    +0.188 HD
ENDBRANCH   9  17
ENDBRANCH   2   6
BRANCH   3  22
ATOM     21  C   UNL     1      31.904  -9.370 -20.949  0.00  0.00    +0.110 C 
ATOM     22  C   UNL     1      31.959 -11.747 -21.172  0.00  0.00    +0.055 C 
ATOM     23  C   UNL     1      32.041 -10.499 -21.755  0.00  0.00    +0.023 C 
ATOM     24  C   UNL     1      31.687  -9.513 -19.579  0.00  0.00    +0.019 C 
ATOM     25  C   UNL     1      31.745 -11.917 -19.820  0.00  0.00    +0.005 C 
ATOM     26  C   UNL     1      31.608 -10.786 -19.014  0.00  0.00    +0.001 C 
BRANCH  21  27
ATOM     27  S   UNL     1      32.000  -7.776 -21.655  0.00  0.00    +0.013 S 
ATOM     28  O   UNL     1      31.209  -7.811 -22.876  0.00  0.00    -0.067 OA
ATOM     29  O   UNL     1      31.707  -6.808 -20.608  0.00  0.00    -0.067 OA
BRANCH  27  30
ATOM     30  O   UNL     1      33.579  -7.593 -22.062  0.00  0.00    -0.238 OA
BRANCH  30  31
ATOM     31  C   UNL     1      33.920  -7.243 -23.395  0.00  0.00    +0.175 C 
BRANCH  31  32
ATOM     32  C   UNL     1      34.875  -8.277 -23.970  0.00  0.00    +0.066 C 
BRANCH  32  33
ATOM     33  C   UNL     1      34.161  -9.568 -24.337  0.00  0.00    +0.140 C 
BRANCH  33  34
ATOM     34  O   UNL     1      35.003 -10.666 -24.016  0.00  0.00    -0.382 OA
ATOM     35  H   UNL     1      35.217 -10.646 -23.070  0.00  0.00    +0.210 HD
ENDBRANCH  33  34
ENDBRANCH  32  33
ENDBRANCH  31  32
ENDBRANCH  30  31
ENDBRANCH  27  30
ENDBRANCH  21  27
ENDBRANCH   3  22
TORSDOF 9
ENDMDL
MODEL 4
REMARK VINA RESULT:     -10.0      2.154      4.046
REMARK  Name = 11304895
REMARK  9 active torsions:
REMARK  status: ('A' for Active; 'I' for Inactive)
REMARK    1  A    between atoms: N_2  and  C_6
REMARK    2  A    between atoms: C_3  and  C_22
REMARK    3  A    between atoms: C_9  and  C_17
REMARK    4  A    between atoms: C_21  and  S_27
REMARK    5  A    between atoms: S_27  and  O_30
REMARK    6  A    between atoms: O_30  and  C_31
REMARK    7  A    between atoms: C_31  and  C_32
REMARK    8  A    between atoms: C_32  and  C_33
REMARK    9  A    between atoms: C_33  and  O_34
REMARK                            x       y       z     vdW  Elec       q    Type
REMARK                         _______ _______ _______ _____ _____    ______ ____
ROOT
ATOM      1  O   UNL     1      34.787 -23.187 -19.424  0.00  0.00    -0.270 OA
ATOM      2  N   UNL     1      35.385 -21.609 -17.789  0.00  0.00    -0.280 N 
ATOM      3  C   UNL     1      34.859 -22.035 -19.012  0.00  0.00    +0.250 C 
ATOM      4  H   UNL     1      35.362 -20.640 -17.622  0.00  0.00    +0.155 HD
ENDROOT
BRANCH   2   6
ATOM      5  C   UNL     1      35.137 -23.096 -15.857  0.00  0.00    +0.014 C 
ATOM      6  C   UNL     1      35.940 -22.397 -16.772  0.00  0.00    +0.050 C 
ATOM      7  C   UNL     1      35.753 -23.876 -14.850  0.00  0.00    +0.001 C 
ATOM      8  C   UNL     1      33.735 -23.039 -15.920  0.00  0.00    +0.004 C 
ATOM      9  C   UNL     1      32.952 -23.742 -15.002  0.00  0.00    +0.031 C 
ATOM     10  C   UNL     1      37.331 -22.465 -16.695  0.00  0.00    +0.015 C 
ATOM     11  C   UNL     1      34.950 -24.576 -13.935  0.00  0.00    +0.000 C 
ATOM     12  C   UNL     1      37.156 -23.934 -14.788  0.00  0.00    +0.000 C 
ATOM     13  C   UNL     1      33.559 -24.508 -14.012  0.00  0.00    +0.003 C 
ATOM     14  C   UNL     1      37.937 -23.231 -15.705  0.00  0.00    +0.001 C 
BRANCH   9  17
ATOM     15  N   UNL     1      30.694 -24.357 -14.172  0.00  0.00    -0.343 N 
ATOM     16  N   UNL     1      30.926 -22.953 -16.026  0.00  0.00    -0.285 NA
ATOM     17  C   UNL     1      31.501 -23.672 -15.078  0.00  0.00    +0.117 C 
ATOM     18  H   UNL     1      29.714 -24.296 -14.242  0.00  0.00    +0.144 HD
ATOM     19  H   UNL     1      31.103 -24.901 -13.461  0.00  0.00    +0.144 HD
ATOM     20  H   UNL     1      29.944 -22.905 -16.079  0.00  0.00    +0.188 HD
ENDBRANCH   9  17
ENDBRANCH   2   6
BRANCH   3  22
ATOM     21  C   UNL     1      34.811 -19.230 -21.496  0.00  0.00    +0.110 C 
ATOM     22  C   UNL     1      34.365 -20.950 -19.901  0.00  0.00    +0.055 C 
ATOM     23  C   UNL     1      35.275 -20.247 -20.663  0.00  0.00    +0.023 C 
ATOM     24  C   UNL     1      33.449 -18.938 -21.548  0.00  0.00    +0.019 C 
ATOM     25  C   UNL     1      33.013 -20.681 -19.933  0.00  0.00    +0.005 C 
ATOM     26  C   UNL     1      32.550 -19.663 -20.766  0.00  0.00    +0.001 C 
BRANCH  21  27
ATOM     27  S   UNL     1      35.936 -18.323 -22.476  0.00  0.00    +0.013 S 
ATOM     28  O   UNL     1      37.262 -18.576 -21.933  0.00  0.00    -0.067 OA
ATOM     29  O   UNL     1      35.639 -18.610 -23.873  0.00  0.00    -0.067 OA
BRANCH  27  30
ATOM     30  O   UNL     1      35.553 -16.751 -22.208  0.00  0.00    -0.238 OA
BRANCH  30  31
ATOM     31  C   UNL     1      34.982 -15.982 -23.255  0.00  0.00    +0.175 C 
BRANCH  31  32
ATOM     32  C   UNL     1      34.183 -14.828 -22.670  0.00  0.00    +0.066 C 
BRANCH  32  33
ATOM     33  C   UNL     1      33.761 -15.098 -21.234  0.00  0.00    +0.140 C 
BRANCH  33  34
ATOM     34  O   UNL     1      34.877 -14.892 -20.381  0.00  0.00    -0.382 OA
ATOM     35  H   UNL     1      34.573 -14.806 -19.464  0.00  0.00    +0.210 HD
ENDBRANCH  33  34
ENDBRANCH  32  33
ENDBRANCH  31  32
ENDBRANCH  30  31
ENDBRANCH  27  30
ENDBRANCH  21  27
ENDBRANCH   3  22
TORSDOF 9
ENDMDL
MODEL 5
REMARK VINA RESULT:      -9.9      7.995     11.941
REMARK  Name = 11304895
REMARK  9 active torsions:
REMARK  status: ('A' for Active; 'I' for Inactive)
REMARK    1  A    between atoms: N_2  and  C_6
REMARK    2  A    between atoms: C_3  and  C_22
REMARK    3  A    between atoms: C_9  and  C_17
REMARK    4  A    between atoms: C_21  and  S_27
REMARK    5  A    between atoms: S_27  and  O_30
REMARK    6  A    between atoms: O_30  and  C_31
REMARK    7  A    between atoms: C_31  and  C_32
REMARK    8  A    between atoms: C_32  and  C_33
REMARK    9  A    between atoms: C_33  and  O_34
REMARK                            x       y       z     vdW  Elec       q    Type
REMARK                         _______ _______ _______ _____ _____    ______ ____
ROOT
ATOM      1  O   UNL     1      31.603 -13.869 -21.677  0.00  0.00    -0.270 OA
ATOM      2  N   UNL     1      32.849 -12.656 -23.257  0.00  0.00    -0.280 N 
ATOM      3  C   UNL     1      32.138 -12.837 -22.067  0.00  0.00    +0.250 C 
ATOM      4  H   UNL     1      33.213 -11.755 -23.411  0.00  0.00    +0.155 HD
ENDROOT
BRANCH   2   6
ATOM      5  C   UNL     1      33.708 -14.839 -23.967  0.00  0.00    +0.014 C 
ATOM      6  C   UNL     1      33.106 -13.603 -24.256  0.00  0.00    +0.050 C 
ATOM      7  C   UNL     1      33.946 -15.757 -25.018  0.00  0.00    +0.001 C 
ATOM      8  C   UNL     1      34.081 -15.183 -22.657  0.00  0.00    +0.004 C 
ATOM      9  C   UNL     1      34.678 -16.416 -22.388  0.00  0.00    +0.031 C 
ATOM     10  C   UNL     1      32.743 -13.278 -25.563  0.00  0.00    +0.015 C 
ATOM     11  C   UNL     1      34.548 -16.992 -24.729  0.00  0.00    +0.000 C 
ATOM     12  C   UNL     1      33.572 -15.412 -26.328  0.00  0.00    +0.000 C 
ATOM     13  C   UNL     1      34.911 -17.317 -23.422  0.00  0.00    +0.003 C 
ATOM     14  C   UNL     1      32.975 -14.180 -26.596  0.00  0.00    +0.001 C 
BRANCH   9  17
ATOM     15  N   UNL     1      35.586 -18.010 -20.715  0.00  0.00    -0.343 N 
ATOM     16  N   UNL     1      34.903 -15.874 -20.058  0.00  0.00    -0.285 NA
ATOM     17  C   UNL     1      35.060 -16.758 -21.027  0.00  0.00    +0.117 C 
ATOM     18  H   UNL     1      35.837 -18.221 -19.787  0.00  0.00    +0.144 HD
ATOM     19  H   UNL     1      35.707 -18.684 -21.423  0.00  0.00    +0.144 HD
ATOM     20  H   UNL     1      35.161 -16.104 -19.136  0.00  0.00    +0.188 HD
ENDBRANCH   9  17
ENDBRANCH   2   6
BRANCH   3  22
ATOM     21  C   UNL     1      32.111  -9.251 -20.982  0.00  0.00    +0.110 C 
ATOM     22  C   UNL     1      32.009 -11.626 -21.216  0.00  0.00    +0.055 C 
ATOM     23  C   UNL     1      32.232 -10.388 -21.781  0.00  0.00    +0.023 C 
ATOM     24  C   UNL     1      31.771  -9.379 -19.635  0.00  0.00    +0.019 C 
ATOM     25  C   UNL     1      31.671 -11.780 -19.888  0.00  0.00    +0.005 C 
ATOM     26  C   UNL     1      31.551 -10.644 -19.089  0.00  0.00    +0.001 C 
BRANCH  21  27
ATOM     27  S   UNL     1      32.384  -7.669 -21.666  0.00  0.00    +0.013 S 
ATOM     28  O   UNL     1      32.084  -6.703 -20.619  0.00  0.00    -0.067 OA
ATOM     29  O   UNL     1      33.689  -7.684 -22.312  0.00  0.00    -0.067 OA
BRANCH  27  30
ATOM     30  O   UNL     1      31.255  -7.523 -22.847  0.00  0.00    -0.238 OA
BRANCH  30  31
ATOM     31  C   UNL     1      31.617  -6.943 -24.091  0.00  0.00    +0.175 C 
BRANCH  31  32
ATOM     32  C   UNL     1      30.879  -5.626 -24.278  0.00  0.00    +0.066 C 
BRANCH  32  33
ATOM     33  C   UNL     1      31.352  -4.564 -23.298  0.00  0.00    +0.140 C 
BRANCH  33  34
ATOM     34  O   UNL     1      30.504  -4.581 -22.159  0.00  0.00    -0.382 OA
ATOM     35  H   UNL     1      29.666  -4.141 -22.371  0.00  0.00    +0.210 HD
ENDBRANCH  33  34
ENDBRANCH  32  33
ENDBRANCH  31  32
ENDBRANCH  30  31
ENDBRANCH  27  30
ENDBRANCH  21  27
ENDBRANCH   3  22
TORSDOF 9
ENDMDL
MODEL 6
REMARK VINA RESULT:      -9.5      2.121      3.288
REMARK  Name = 11304895
REMARK  9 active torsions:
REMARK  status: ('A' for Active; 'I' for Inactive)
REMARK    1  A    between atoms: N_2  and  C_6
REMARK    2  A    between atoms: C_3  and  C_22
REMARK    3  A    between atoms: C_9  and  C_17
REMARK    4  A    between atoms: C_21  and  S_27
REMARK    5  A    between atoms: S_27  and  O_30
REMARK    6  A    between atoms: O_30  and  C_31
REMARK    7  A    between atoms: C_31  and  C_32
REMARK    8  A    between atoms: C_32  and  C_33
REMARK    9  A    between atoms: C_33  and  O_34
REMARK                            x       y       z     vdW  Elec       q    Type
REMARK                         _______ _______ _______ _____ _____    ______ ____
ROOT
ATOM      1  O   UNL     1      33.890 -23.587 -18.010  0.00  0.00    -0.270 OA
ATOM      2  N   UNL     1      35.205 -22.563 -16.353  0.00  0.00    -0.280 N 
ATOM      3  C   UNL     1      34.710 -22.751 -17.647  0.00  0.00    +0.250 C 
ATOM      4  H   UNL     1      35.862 -21.840 -16.242  0.00  0.00    +0.155 HD
ENDROOT
BRANCH   2   6
ATOM      5  C   UNL     1      35.819 -24.075 -14.525  0.00  0.00    +0.014 C 
ATOM      6  C   UNL     1      34.876 -23.280 -15.196  0.00  0.00    +0.050 C 
ATOM      7  C   UNL     1      35.429 -24.779 -13.360  0.00  0.00    +0.001 C 
ATOM      8  C   UNL     1      37.142 -24.187 -14.984  0.00  0.00    +0.004 C 
ATOM      9  C   UNL     1      38.067 -24.980 -14.304  0.00  0.00    +0.031 C 
ATOM     10  C   UNL     1      33.566 -23.181 -14.725  0.00  0.00    +0.015 C 
ATOM     11  C   UNL     1      36.373 -25.573 -12.689  0.00  0.00    +0.000 C 
ATOM     12  C   UNL     1      34.106 -24.666 -12.901  0.00  0.00    +0.000 C 
ATOM     13  C   UNL     1      37.683 -25.672 -13.160  0.00  0.00    +0.003 C 
ATOM     14  C   UNL     1      33.183 -23.872 -13.581  0.00  0.00    +0.001 C 
BRANCH   9  17
ATOM     15  N   UNL     1      40.304 -26.058 -14.301  0.00  0.00    -0.343 N 
ATOM     16  N   UNL     1      39.869 -24.249 -15.716  0.00  0.00    -0.285 NA
ATOM     17  C   UNL     1      39.433 -25.087 -14.792  0.00  0.00    +0.117 C 
ATOM     18  H   UNL     1      41.225 -26.112 -14.646  0.00  0.00    +0.144 HD
ATOM     19  H   UNL     1      39.999 -26.689 -13.610  0.00  0.00    +0.144 HD
ATOM     20  H   UNL     1      40.793 -24.320 -16.047  0.00  0.00    +0.188 HD
ENDBRANCH   9  17
ENDBRANCH   2   6
BRANCH   3  22
ATOM     21  C   UNL     1      34.947 -20.266 -20.442  0.00  0.00    +0.110 C 
ATOM     22  C   UNL     1      35.277 -21.843 -18.679  0.00  0.00    +0.055 C 
ATOM     23  C   UNL     1      34.415 -21.118 -19.474  0.00  0.00    +0.023 C 
ATOM     24  C   UNL     1      36.329 -20.161 -20.593  0.00  0.00    +0.019 C 
ATOM     25  C   UNL     1      36.647 -21.758 -18.808  0.00  0.00    +0.005 C 
ATOM     26  C   UNL     1      37.179 -20.907 -19.776  0.00  0.00    +0.001 C 
BRANCH  21  27
ATOM     27  S   UNL     1      33.884 -19.331 -21.463  0.00  0.00    +0.013 S 
ATOM     28  O   UNL     1      32.561 -19.929 -21.348  0.00  0.00    -0.067 OA
ATOM     29  O   UNL     1      34.092 -17.925 -21.150  0.00  0.00    -0.067 OA
BRANCH  27  30
ATOM     30  O   UNL     1      34.438 -19.581 -22.986  0.00  0.00    -0.238 OA
BRANCH  30  31
ATOM     31  C   UNL     1      35.291 -18.618 -23.586  0.00  0.00    +0.175 C 
BRANCH  31  32
ATOM     32  C   UNL     1      34.609 -18.014 -24.804  0.00  0.00    +0.066 C 
BRANCH  32  33
ATOM     33  C   UNL     1      34.651 -16.495 -24.785  0.00  0.00    +0.140 C 
BRANCH  33  34
ATOM     34  O   UNL     1      35.593 -16.072 -23.811  0.00  0.00    -0.382 OA
ATOM     35  H   UNL     1      35.608 -15.103 -23.772  0.00  0.00    +0.210 HD
ENDBRANCH  33  34
ENDBRANCH  32  33
ENDBRANCH  31  32
ENDBRANCH  30  31
ENDBRANCH  27  30
ENDBRANCH  21  27
ENDBRANCH   3  22
TORSDOF 9
ENDMDL
MODEL 7
REMARK VINA RESULT:      -9.3      6.970     12.288
REMARK  Name = 11304895
REMARK  9 active torsions:
REMARK  status: ('A' for Active; 'I' for Inactive)
REMARK    1  A    between atoms: N_2  and  C_6
REMARK    2  A    between atoms: C_3  and  C_22
REMARK    3  A    between atoms: C_9  and  C_17
REMARK    4  A    between atoms: C_21  and  S_27
REMARK    5  A    between atoms: S_27  and  O_30
REMARK    6  A    between atoms: O_30  and  C_31
REMARK    7  A    between atoms: C_31  and  C_32
REMARK    8  A    between atoms: C_32  and  C_33
REMARK    9  A    between atoms: C_33  and  O_34
REMARK                            x       y       z     vdW  Elec       q    Type
REMARK                         _______ _______ _______ _____ _____    ______ ____
ROOT
ATOM      1  O   UNL     1      33.128 -14.150 -20.820  0.00  0.00    -0.270 OA
ATOM      2  N   UNL     1      32.436 -12.482 -22.324  0.00  0.00    -0.280 N 
ATOM      3  C   UNL     1      32.936 -13.735 -21.958  0.00  0.00    +0.250 C 
ATOM      4  H   UNL     1      32.346 -12.317 -23.289  0.00  0.00    +0.155 HD
ENDROOT
BRANCH   2   6
ATOM      5  C   UNL     1      32.424 -10.104 -21.731  0.00  0.00    +0.014 C 
ATOM      6  C   UNL     1      32.046 -11.434 -21.480  0.00  0.00    +0.050 C 
ATOM      7  C   UNL     1      32.002  -9.086 -20.843  0.00  0.00    +0.001 C 
ATOM      8  C   UNL     1      33.211  -9.763 -22.842  0.00  0.00    +0.004 C 
ATOM      9  C   UNL     1      33.577  -8.437 -23.076  0.00  0.00    +0.031 C 
ATOM     10  C   UNL     1      31.264 -11.754 -20.371  0.00  0.00    +0.015 C 
ATOM     11  C   UNL     1      32.379  -7.756 -21.093  0.00  0.00    +0.000 C 
ATOM     12  C   UNL     1      31.213  -9.427 -19.731  0.00  0.00    +0.000 C 
ATOM     13  C   UNL     1      33.162  -7.436 -22.203  0.00  0.00    +0.003 C 
ATOM     14  C   UNL     1      30.848 -10.753 -19.499  0.00  0.00    +0.001 C 
BRANCH   9  17
ATOM     15  N   UNL     1      34.465  -6.792 -24.710  0.00  0.00    -0.343 N 
ATOM     16  N   UNL     1      35.082  -9.043 -24.848  0.00  0.00    -0.285 NA
ATOM     17  C   UNL     1      34.394  -8.098 -24.231  0.00  0.00    +0.117 C 
ATOM     18  H   UNL     1      35.025  -6.586 -25.494  0.00  0.00    +0.144 HD
ATOM     19  H   UNL     1      33.957  -6.076 -24.266  0.00  0.00    +0.144 HD
ATOM     20  H   UNL     1      35.635  -8.815 -25.630  0.00  0.00    +0.188 HD
ENDBRANCH   9  17
ENDBRANCH   2   6
BRANCH   3  22
ATOM     21  C   UNL     1      34.201 -16.691 -23.881  0.00  0.00    +0.110 C 
ATOM     22  C   UNL     1      33.290 -14.631 -23.090  0.00  0.00    +0.055 C 
ATOM     23  C   UNL     1      33.870 -15.852 -22.818  0.00  0.00    +0.023 C 
ATOM     24  C   UNL     1      33.946 -16.290 -25.192  0.00  0.00    +0.019 C 
ATOM     25  C   UNL     1      33.027 -14.210 -24.377  0.00  0.00    +0.005 C 
ATOM     26  C   UNL     1      33.359 -15.049 -25.440  0.00  0.00    +0.001 C 
BRANCH  21  27
ATOM     27  S   UNL     1      34.934 -18.245 -23.571  0.00  0.00    +0.013 S 
ATOM     28  O   UNL     1      34.710 -19.058 -24.758  0.00  0.00    -0.067 OA
ATOM     29  O   UNL     1      36.283 -18.009 -23.077  0.00  0.00    -0.067 OA
BRANCH  27  30
ATOM     30  O   UNL     1      34.064 -18.880 -22.334  0.00  0.00    -0.238 OA
BRANCH  30  31
ATOM     31  C   UNL     1      34.614 -18.888 -21.025  0.00  0.00    +0.175 C 
BRANCH  31  32
ATOM     32  C   UNL     1      34.847 -20.321 -20.574  0.00  0.00    +0.066 C 
BRANCH  32  33
ATOM     33  C   UNL     1      33.619 -20.913 -19.900  0.00  0.00    +0.140 C 
BRANCH  33  34
ATOM     34  O   UNL     1      32.475 -20.617 -20.689  0.00  0.00    -0.382 OA
ATOM     35  H   UNL     1      32.185 -19.709 -20.512  0.00  0.00    +0.210 HD
ENDBRANCH  33  34
ENDBRANCH  32  33
ENDBRANCH  31  32
ENDBRANCH  30  31
ENDBRANCH  27  30
ENDBRANCH  21  27
ENDBRANCH   3  22
TORSDOF 9
ENDMDL
MODEL 8
REMARK VINA RESULT:      -9.3      5.677     11.420
REMARK  Name = 11304895
REMARK  9 active torsions:
REMARK  status: ('A' for Active; 'I' for Inactive)
REMARK    1  A    between atoms: N_2  and  C_6
REMARK    2  A    between atoms: C_3  and  C_22
REMARK    3  A    between atoms: C_9  and  C_17
REMARK    4  A    between atoms: C_21  and  S_27
REMARK    5  A    between atoms: S_27  and  O_30
REMARK    6  A    between atoms: O_30  and  C_31
REMARK    7  A    between atoms: C_31  and  C_32
REMARK    8  A    between atoms: C_32  and  C_33
REMARK    9  A    between atoms: C_33  and  O_34
REMARK                            x       y       z     vdW  Elec       q    Type
REMARK                         _______ _______ _______ _____ _____    ______ ____
ROOT
ATOM      1  O   UNL     1      34.939 -14.713 -20.562  0.00  0.00    -0.270 OA
ATOM      2  N   UNL     1      33.145 -14.477 -22.061  0.00  0.00    -0.280 N 
ATOM      3  C   UNL     1      34.233 -15.130 -21.474  0.00  0.00    +0.250 C 
ATOM      4  H   UNL     1      32.689 -14.962 -22.786  0.00  0.00    +0.155 HD
ENDROOT
BRANCH   2   6
ATOM      5  C   UNL     1      32.813 -12.105 -22.577  0.00  0.00    +0.014 C 
ATOM      6  C   UNL     1      32.624 -13.217 -21.741  0.00  0.00    +0.050 C 
ATOM      7  C   UNL     1      32.265 -10.855 -22.201  0.00  0.00    +0.001 C 
ATOM      8  C   UNL     1      33.535 -12.205 -23.778  0.00  0.00    +0.004 C 
ATOM      9  C   UNL     1      33.712 -11.089 -24.597  0.00  0.00    +0.031 C 
ATOM     10  C   UNL     1      31.905 -13.099 -20.551  0.00  0.00    +0.015 C 
ATOM     11  C   UNL     1      32.454  -9.742 -23.038  0.00  0.00    +0.000 C 
ATOM     12  C   UNL     1      31.543 -10.755 -21.000  0.00  0.00    +0.000 C 
ATOM     13  C   UNL     1      33.174  -9.861 -24.227  0.00  0.00    +0.003 C 
ATOM     14  C   UNL     1      31.366 -11.871 -20.182  0.00  0.00    +0.001 C 
BRANCH   9  17
ATOM     15  N   UNL     1      35.566 -10.397 -26.098  0.00  0.00    -0.343 N 
ATOM     16  N   UNL     1      34.096 -12.095 -26.745  0.00  0.00    -0.285 NA
ATOM     17  C   UNL     1      34.463 -11.207 -25.837  0.00  0.00    +0.117 C 
ATOM     18  H   UNL     1      36.059 -10.494 -26.944  0.00  0.00    +0.144 HD
ATOM     19  H   UNL     1      35.852  -9.727 -25.435  0.00  0.00    +0.144 HD
ATOM     20  H   UNL     1      34.603 -12.177 -27.585  0.00  0.00    +0.188 HD
ENDBRANCH   9  17
ENDBRANCH   2   6
BRANCH   3  22
ATOM     21  C   UNL     1      35.125 -18.758 -21.750  0.00  0.00    +0.110 C 
ATOM     22  C   UNL     1      34.564 -16.457 -22.055  0.00  0.00    +0.055 C 
ATOM     23  C   UNL     1      34.815 -17.513 -21.204  0.00  0.00    +0.023 C 
ATOM     24  C   UNL     1      35.178 -18.919 -23.134  0.00  0.00    +0.019 C 
ATOM     25  C   UNL     1      34.610 -16.588 -23.427  0.00  0.00    +0.005 C 
ATOM     26  C   UNL     1      34.921 -17.834 -23.973  0.00  0.00    +0.001 C 
BRANCH  21  27
ATOM     27  S   UNL     1      35.446 -20.116 -20.701  0.00  0.00    +0.013 S 
ATOM     28  O   UNL     1      35.639 -21.274 -21.563  0.00  0.00    -0.067 OA
ATOM     29  O   UNL     1      36.478 -19.713 -19.757  0.00  0.00    -0.067 OA
BRANCH  27  30
ATOM     30  O   UNL     1      34.059 -20.325 -19.851  0.00  0.00    -0.238 OA
BRANCH  30  31
ATOM     31  C   UNL     1      33.485 -21.620 -19.758  0.00  0.00    +0.175 C 
BRANCH  31  32
ATOM     32  C   UNL     1      34.236 -22.443 -18.723  0.00  0.00    +0.066 C 
BRANCH  32  33
ATOM     33  C   UNL     1      33.307 -23.010 -17.662  0.00  0.00    +0.140 C 
BRANCH  33  34
ATOM     34  O   UNL     1      31.994 -22.518 -17.891  0.00  0.00    -0.382 OA
ATOM     35  H   UNL     1      31.517 -22.465 -17.048  0.00  0.00    +0.210 HD
ENDBRANCH  33  34
ENDBRANCH  32  33
ENDBRANCH  31  32
ENDBRANCH  30  31
ENDBRANCH  27  30
ENDBRANCH  21  27
ENDBRANCH   3  22
TORSDOF 9
ENDMDL
MODEL 9
REMARK VINA RESULT:      -9.3      1.345      3.231
REMARK  Name = 11304895
REMARK  9 active torsions:
REMARK  status: ('A' for Active; 'I' for Inactive)
REMARK    1  A    between atoms: N_2  and  C_6
REMARK    2  A    between atoms: C_3  and  C_22
REMARK    3  A    between atoms: C_9  and  C_17
REMARK    4  A    between atoms: C_21  and  S_27
REMARK    5  A    between atoms: S_27  and  O_30
REMARK    6  A    between atoms: O_30  and  C_31
REMARK    7  A    between atoms: C_31  and  C_32
REMARK    8  A    between atoms: C_32  and  C_33
REMARK    9  A    between atoms: C_33  and  O_34
REMARK                            x       y       z     vdW  Elec       q    Type
REMARK                         _______ _______ _______ _____ _____    ______ ____
ROOT
ATOM      1  O   UNL     1      33.997 -23.801 -18.161  0.00  0.00    -0.270 OA
ATOM      2  N   UNL     1      34.896 -22.548 -16.389  0.00  0.00    -0.280 N 
ATOM      3  C   UNL     1      34.610 -22.832 -17.728  0.00  0.00    +0.250 C 
ATOM      4  H   UNL     1      35.402 -21.721 -16.221  0.00  0.00    +0.155 HD
ENDROOT
BRANCH   2   6
ATOM      5  C   UNL     1      33.213 -23.639 -14.981  0.00  0.00    +0.014 C 
ATOM      6  C   UNL     1      34.546 -23.297 -15.258  0.00  0.00    +0.050 C 
ATOM      7  C   UNL     1      32.919 -24.397 -13.822  0.00  0.00    +0.001 C 
ATOM      8  C   UNL     1      32.164 -23.244 -15.827  0.00  0.00    +0.004 C 
ATOM      9  C   UNL     1      30.844 -23.593 -15.537  0.00  0.00    +0.031 C 
ATOM     10  C   UNL     1      35.576 -23.698 -14.406  0.00  0.00    +0.015 C 
ATOM     11  C   UNL     1      31.585 -24.739 -13.545  0.00  0.00    +0.000 C 
ATOM     12  C   UNL     1      33.969 -24.792 -12.976  0.00  0.00    +0.000 C 
ATOM     13  C   UNL     1      30.556 -24.338 -14.397  0.00  0.00    +0.003 C 
ATOM     14  C   UNL     1      35.287 -24.443 -13.267  0.00  0.00    +0.001 C 
BRANCH   9  17
ATOM     15  N   UNL     1      28.625 -23.955 -16.589  0.00  0.00    -0.343 N 
ATOM     16  N   UNL     1      29.869 -22.041 -17.090  0.00  0.00    -0.285 NA
ATOM     17  C   UNL     1      29.768 -23.177 -16.422  0.00  0.00    +0.117 C 
ATOM     18  H   UNL     1      27.909 -23.654 -17.194  0.00  0.00    +0.144 HD
ATOM     19  H   UNL     1      28.533 -24.806 -16.103  0.00  0.00    +0.144 HD
ATOM     20  H   UNL     1      29.142 -21.758 -17.690  0.00  0.00    +0.188 HD
ENDBRANCH   9  17
ENDBRANCH   2   6
BRANCH   3  22
ATOM     21  C   UNL     1      34.758 -20.215 -20.405  0.00  0.00    +0.110 C 
ATOM     22  C   UNL     1      35.144 -21.853 -18.711  0.00  0.00    +0.055 C 
ATOM     23  C   UNL     1      34.256 -21.134 -19.483  0.00  0.00    +0.023 C 
ATOM     24  C   UNL     1      36.134 -20.038 -20.534  0.00  0.00    +0.019 C 
ATOM     25  C   UNL     1      36.510 -21.697 -18.818  0.00  0.00    +0.005 C 
ATOM     26  C   UNL     1      37.011 -20.779 -19.741  0.00  0.00    +0.001 C 
BRANCH  21  27
ATOM     27  S   UNL     1      33.661 -19.286 -21.396  0.00  0.00    +0.013 S 
ATOM     28  O   UNL     1      32.335 -19.854 -21.198  0.00  0.00    -0.067 OA
ATOM     29  O   UNL     1      33.912 -17.876 -21.133  0.00  0.00    -0.067 OA
BRANCH  27  30
ATOM     30  O   UNL     1      34.132 -19.588 -22.938  0.00  0.00    -0.238 OA
BRANCH  30  31
ATOM     31  C   UNL     1      35.196 -18.837 -23.503  0.00  0.00    +0.175 C 
BRANCH  31  32
ATOM     32  C   UNL     1      34.671 -17.979 -24.644  0.00  0.00    +0.066 C 
BRANCH  32  33
ATOM     33  C   UNL     1      34.551 -16.516 -24.248  0.00  0.00    +0.140 C 
BRANCH  33  34
ATOM     34  O   UNL     1      35.617 -16.189 -23.368  0.00  0.00    -0.382 OA
ATOM     35  H   UNL     1      35.599 -16.784 -22.602  0.00  0.00    +0.210 HD
ENDBRANCH  33  34
ENDBRANCH  32  33
ENDBRANCH  31  32
ENDBRANCH  30  31
ENDBRANCH  27  30
ENDBRANCH  21  27
ENDBRANCH   3  22
TORSDOF 9
ENDMDL
