MODEL 1
REMARK VINA RESULT:      -6.9      0.000      0.000
REMARK  Name = 204
REMARK  1 active torsions:
REMARK  status: ('A' for Active; 'I' for Inactive)
REMARK    1  A    between atoms: C_5  and  N_11
REMARK                            x       y       z     vdW  Elec       q    Type
REMARK                         _______ _______ _______ _____ _____    ______ ____
ROOT
ATOM      1  O   UNL     1      34.919 -25.003 -11.318  0.00  0.00    -0.271 OA
ATOM      2  O   UNL     1      38.978 -22.897 -11.664  0.00  0.00    -0.252 OA
ATOM      3  N   UNL     1      38.224 -24.994 -12.377  0.00  0.00    -0.267 N 
ATOM      4  N   UNL     1      36.816 -23.664 -11.278  0.00  0.00    -0.237 N 
ATOM      5  C   UNL     1      37.011 -25.762 -12.307  0.00  0.00    +0.229 C 
ATOM      6  C   UNL     1      36.096 -24.798 -11.573  0.00  0.00    +0.267 C 
ATOM      7  C   UNL     1      38.104 -23.747 -11.758  0.00  0.00    +0.308 C 
ATOM      8  H   UNL     1      39.048 -25.310 -12.813  0.00  0.00    +0.153 HD
ATOM      9  H   UNL     1      36.455 -22.890 -10.788  0.00  0.00    +0.159 HD
ENDROOT
BRANCH   5  11
ATOM     10  O   UNL     1      38.300 -27.139 -14.510  0.00  0.00    -0.253 OA
ATOM     11  N   UNL     1      36.446 -26.080 -13.580  0.00  0.00    -0.268 N 
ATOM     12  N   UNL     1      36.365 -26.934 -15.728  0.00  0.00    -0.313 N 
ATOM     13  C   UNL     1      37.137 -26.749 -14.594  0.00  0.00    +0.299 C 
ATOM     14  H   UNL     1      35.515 -25.812 -13.754  0.00  0.00    +0.153 HD
ATOM     15  H   UNL     1      36.743 -27.394 -16.511  0.00  0.00    +0.146 HD
ATOM     16  H   UNL     1      35.437 -26.604 -15.751  0.00  0.00    +0.146 HD
ENDBRANCH   5  11
TORSDOF 1
ENDMDL
MODEL 2
REMARK VINA RESULT:      -6.7      1.637      4.457
REMARK  Name = 204
REMARK  1 active torsions:
REMARK  status: ('A' for Active; 'I' for Inactive)
REMARK    1  A    between atoms: C_5  and  N_11
REMARK                            x       y       z     vdW  Elec       q    Type
REMARK                         _______ _______ _______ _____ _____    ______ ____
ROOT
ATOM      1  O   UNL     1      40.093 -24.976 -14.081  0.00  0.00    -0.271 OA
ATOM      2  O   UNL     1      36.241 -26.788 -15.785  0.00  0.00    -0.252 OA
ATOM      3  N   UNL     1      36.946 -26.356 -13.596  0.00  0.00    -0.267 N 
ATOM      4  N   UNL     1      38.318 -25.871 -15.282  0.00  0.00    -0.237 N 
ATOM      5  C   UNL     1      38.113 -25.828 -12.946  0.00  0.00    +0.229 C 
ATOM      6  C   UNL     1      38.991 -25.500 -14.141  0.00  0.00    +0.267 C 
ATOM      7  C   UNL     1      37.075 -26.385 -14.987  0.00  0.00    +0.308 C 
ATOM      8  H   UNL     1      36.143 -26.663 -13.116  0.00  0.00    +0.153 HD
ATOM      9  H   UNL     1      38.680 -25.779 -16.193  0.00  0.00    +0.159 HD
ENDROOT
BRANCH   5  11
ATOM     10  O   UNL     1      35.835 -25.251 -11.247  0.00  0.00    -0.253 OA
ATOM     11  N   UNL     1      37.874 -24.639 -12.190  0.00  0.00    -0.268 N 
ATOM     12  N   UNL     1      36.754 -23.203 -10.765  0.00  0.00    -0.313 N 
ATOM     13  C   UNL     1      36.745 -24.437 -11.392  0.00  0.00    +0.299 C 
ATOM     14  H   UNL     1      38.544 -23.919 -12.234  0.00  0.00    +0.153 HD
ATOM     15  H   UNL     1      36.009 -22.946 -10.175  0.00  0.00    +0.146 HD
ATOM     16  H   UNL     1      37.504 -22.583 -10.910  0.00  0.00    +0.146 HD
ENDBRANCH   5  11
TORSDOF 1
ENDMDL
MODEL 3
REMARK VINA RESULT:      -6.6      2.657      3.439
REMARK  Name = 204
REMARK  1 active torsions:
REMARK  status: ('A' for Active; 'I' for Inactive)
REMARK    1  A    between atoms: C_5  and  N_11
REMARK                            x       y       z     vdW  Elec       q    Type
REMARK                         _______ _______ _______ _____ _____    ______ ____
ROOT
ATOM      1  O   UNL     1      36.752 -26.072 -11.774  0.00  0.00    -0.271 OA
ATOM      2  O   UNL     1      35.482 -24.489 -15.887  0.00  0.00    -0.252 OA
ATOM      3  N   UNL     1      37.539 -24.510 -14.772  0.00  0.00    -0.267 N 
ATOM      4  N   UNL     1      35.755 -25.365 -13.749  0.00  0.00    -0.237 N 
ATOM      5  C   UNL     1      38.049 -24.943 -13.500  0.00  0.00    +0.229 C 
ATOM      6  C   UNL     1      36.798 -25.530 -12.869  0.00  0.00    +0.267 C 
ATOM      7  C   UNL     1      36.172 -24.758 -14.914  0.00  0.00    +0.308 C 
ATOM      8  H   UNL     1      38.092 -24.086 -15.468  0.00  0.00    +0.153 HD
ATOM      9  H   UNL     1      34.829 -25.646 -13.570  0.00  0.00    +0.159 HD
ENDROOT
BRANCH   5  11
ATOM     10  O   UNL     1      40.730 -24.662 -14.569  0.00  0.00    -0.253 OA
ATOM     11  N   UNL     1      39.058 -25.951 -13.586  0.00  0.00    -0.268 N 
ATOM     12  N   UNL     1      41.119 -26.873 -14.086  0.00  0.00    -0.313 N 
ATOM     13  C   UNL     1      40.332 -25.735 -14.118  0.00  0.00    +0.299 C 
ATOM     14  H   UNL     1      38.843 -26.851 -13.251  0.00  0.00    +0.153 HD
ATOM     15  H   UNL     1      42.039 -26.844 -14.434  0.00  0.00    +0.146 HD
ATOM     16  H   UNL     1      40.758 -27.710 -13.715  0.00  0.00    +0.146 HD
ENDBRANCH   5  11
TORSDOF 1
ENDMDL
MODEL 4
REMARK VINA RESULT:      -6.6      1.814      3.086
REMARK  Name = 204
REMARK  1 active torsions:
REMARK  status: ('A' for Active; 'I' for Inactive)
REMARK    1  A    between atoms: C_5  and  N_11
REMARK                            x       y       z     vdW  Elec       q    Type
REMARK                         _______ _______ _______ _____ _____    ______ ____
ROOT
ATOM      1  O   UNL     1      39.079 -23.109 -11.699  0.00  0.00    -0.271 OA
ATOM      2  O   UNL     1      34.927 -24.962 -11.100  0.00  0.00    -0.252 OA
ATOM      3  N   UNL     1      36.501 -25.143 -12.822  0.00  0.00    -0.267 N 
ATOM      4  N   UNL     1      36.958 -23.828 -11.083  0.00  0.00    -0.237 N 
ATOM      5  C   UNL     1      37.797 -24.605 -13.132  0.00  0.00    +0.229 C 
ATOM      6  C   UNL     1      38.055 -23.743 -11.908  0.00  0.00    +0.267 C 
ATOM      7  C   UNL     1      36.003 -24.674 -11.604  0.00  0.00    +0.308 C 
ATOM      8  H   UNL     1      36.017 -25.774 -13.402  0.00  0.00    +0.153 HD
ATOM      9  H   UNL     1      36.868 -23.347 -10.230  0.00  0.00    +0.159 HD
ENDROOT
BRANCH   5  11
ATOM     10  O   UNL     1      40.010 -24.620 -15.005  0.00  0.00    -0.253 OA
ATOM     11  N   UNL     1      38.826 -25.588 -13.249  0.00  0.00    -0.268 N 
ATOM     12  N   UNL     1      40.729 -26.599 -14.090  0.00  0.00    -0.313 N 
ATOM     13  C   UNL     1      39.863 -25.523 -14.184  0.00  0.00    +0.299 C 
ATOM     14  H   UNL     1      38.804 -26.358 -12.636  0.00  0.00    +0.153 HD
ATOM     15  H   UNL     1      41.500 -26.664 -14.697  0.00  0.00    +0.146 HD
ATOM     16  H   UNL     1      40.572 -27.299 -13.416  0.00  0.00    +0.146 HD
ENDBRANCH   5  11
TORSDOF 1
ENDMDL
MODEL 5
REMARK VINA RESULT:      -6.5      2.500      3.705
REMARK  Name = 204
REMARK  1 active torsions:
REMARK  status: ('A' for Active; 'I' for Inactive)
REMARK    1  A    between atoms: C_5  and  N_11
REMARK                            x       y       z     vdW  Elec       q    Type
REMARK                         _______ _______ _______ _____ _____    ______ ____
ROOT
ATOM      1  O   UNL     1      37.031 -27.135 -16.019  0.00  0.00    -0.271 OA
ATOM      2  O   UNL     1      36.805 -26.081 -11.562  0.00  0.00    -0.252 OA
ATOM      3  N   UNL     1      38.343 -25.530 -13.236  0.00  0.00    -0.267 N 
ATOM      4  N   UNL     1      36.616 -26.837 -13.754  0.00  0.00    -0.237 N 
ATOM      5  C   UNL     1      38.535 -25.813 -14.632  0.00  0.00    +0.229 C 
ATOM      6  C   UNL     1      37.323 -26.681 -14.923  0.00  0.00    +0.267 C 
ATOM      7  C   UNL     1      37.203 -26.147 -12.716  0.00  0.00    +0.308 C 
ATOM      8  H   UNL     1      38.948 -24.963 -12.705  0.00  0.00    +0.153 HD
ATOM      9  H   UNL     1      35.795 -27.374 -13.670  0.00  0.00    +0.159 HD
ENDROOT
BRANCH   5  11
ATOM     10  O   UNL     1      36.654 -23.608 -14.529  0.00  0.00    -0.253 OA
ATOM     11  N   UNL     1      38.506 -24.658 -15.473  0.00  0.00    -0.268 N 
ATOM     12  N   UNL     1      37.753 -22.631 -16.292  0.00  0.00    -0.313 N 
ATOM     13  C   UNL     1      37.562 -23.635 -15.359  0.00  0.00    +0.299 C 
ATOM     14  H   UNL     1      39.192 -24.578 -16.174  0.00  0.00    +0.153 HD
ATOM     15  H   UNL     1      37.149 -21.854 -16.311  0.00  0.00    +0.146 HD
ATOM     16  H   UNL     1      38.494 -22.694 -16.938  0.00  0.00    +0.146 HD
ENDBRANCH   5  11
TORSDOF 1
ENDMDL
MODEL 6
REMARK VINA RESULT:      -6.5      1.604      2.619
REMARK  Name = 204
REMARK  1 active torsions:
REMARK  status: ('A' for Active; 'I' for Inactive)
REMARK    1  A    between atoms: C_5  and  N_11
REMARK                            x       y       z     vdW  Elec       q    Type
REMARK                         _______ _______ _______ _____ _____    ______ ____
ROOT
ATOM      1  O   UNL     1      37.951 -22.732 -12.795  0.00  0.00    -0.271 OA
ATOM      2  O   UNL     1      35.252 -24.594  -9.590  0.00  0.00    -0.252 OA
ATOM      3  N   UNL     1      35.226 -24.698 -11.927  0.00  0.00    -0.267 N 
ATOM      4  N   UNL     1      36.792 -23.471 -10.924  0.00  0.00    -0.237 N 
ATOM      5  C   UNL     1      35.983 -24.150 -13.019  0.00  0.00    +0.229 C 
ATOM      6  C   UNL     1      37.037 -23.351 -12.272  0.00  0.00    +0.267 C 
ATOM      7  C   UNL     1      35.707 -24.286 -10.682  0.00  0.00    +0.308 C 
ATOM      8  H   UNL     1      34.454 -25.297 -12.043  0.00  0.00    +0.153 HD
ATOM      9  H   UNL     1      37.324 -23.032 -10.222  0.00  0.00    +0.159 HD
ENDROOT
BRANCH   5  11
ATOM     10  O   UNL     1      37.274 -26.598 -12.151  0.00  0.00    -0.253 OA
ATOM     11  N   UNL     1      36.621 -25.131 -13.838  0.00  0.00    -0.268 N 
ATOM     12  N   UNL     1      37.770 -27.074 -14.342  0.00  0.00    -0.313 N 
ATOM     13  C   UNL     1      37.224 -26.290 -13.341  0.00  0.00    +0.299 C 
ATOM     14  H   UNL     1      36.638 -24.982 -14.811  0.00  0.00    +0.153 HD
ATOM     15  H   UNL     1      38.223 -27.918 -14.114  0.00  0.00    +0.146 HD
ATOM     16  H   UNL     1      37.706 -26.787 -15.282  0.00  0.00    +0.146 HD
ENDBRANCH   5  11
TORSDOF 1
ENDMDL
MODEL 7
REMARK VINA RESULT:      -6.4      2.528      3.327
REMARK  Name = 204
REMARK  1 active torsions:
REMARK  status: ('A' for Active; 'I' for Inactive)
REMARK    1  A    between atoms: C_5  and  N_11
REMARK                            x       y       z     vdW  Elec       q    Type
REMARK                         _______ _______ _______ _____ _____    ______ ____
ROOT
ATOM      1  O   UNL     1      37.099 -26.389 -12.264  0.00  0.00    -0.271 OA
ATOM      2  O   UNL     1      40.795 -25.087 -14.645  0.00  0.00    -0.252 OA
ATOM      3  N   UNL     1      38.569 -25.454 -15.265  0.00  0.00    -0.267 N 
ATOM      4  N   UNL     1      39.162 -25.789 -13.145  0.00  0.00    -0.237 N 
ATOM      5  C   UNL     1      37.351 -25.879 -14.633  0.00  0.00    +0.229 C 
ATOM      6  C   UNL     1      37.817 -26.067 -13.199  0.00  0.00    +0.267 C 
ATOM      7  C   UNL     1      39.646 -25.407 -14.377  0.00  0.00    +0.308 C 
ATOM      8  H   UNL     1      38.638 -25.221 -16.219  0.00  0.00    +0.153 HD
ATOM      9  H   UNL     1      39.709 -25.853 -12.329  0.00  0.00    +0.159 HD
ENDROOT
BRANCH   5  11
ATOM     10  O   UNL     1      37.568 -23.034 -14.119  0.00  0.00    -0.253 OA
ATOM     11  N   UNL     1      36.303 -24.910 -14.670  0.00  0.00    -0.268 N 
ATOM     12  N   UNL     1      35.315 -22.825 -14.510  0.00  0.00    -0.313 N 
ATOM     13  C   UNL     1      36.490 -23.550 -14.408  0.00  0.00    +0.299 C 
ATOM     14  H   UNL     1      35.395 -25.217 -14.894  0.00  0.00    +0.153 HD
ATOM     15  H   UNL     1      35.320 -21.854 -14.348  0.00  0.00    +0.146 HD
ATOM     16  H   UNL     1      34.474 -23.280 -14.745  0.00  0.00    +0.146 HD
ENDBRANCH   5  11
TORSDOF 1
ENDMDL
MODEL 8
REMARK VINA RESULT:      -6.4      2.191      2.767
REMARK  Name = 204
REMARK  1 active torsions:
REMARK  status: ('A' for Active; 'I' for Inactive)
REMARK    1  A    between atoms: C_5  and  N_11
REMARK                            x       y       z     vdW  Elec       q    Type
REMARK                         _______ _______ _______ _____ _____    ______ ____
ROOT
ATOM      1  O   UNL     1      35.424 -22.770 -14.771  0.00  0.00    -0.271 OA
ATOM      2  O   UNL     1      35.402 -24.938 -10.730  0.00  0.00    -0.252 OA
ATOM      3  N   UNL     1      36.213 -25.543 -12.839  0.00  0.00    -0.267 N 
ATOM      4  N   UNL     1      35.206 -23.571 -12.602  0.00  0.00    -0.237 N 
ATOM      5  C   UNL     1      36.256 -24.977 -14.159  0.00  0.00    +0.229 C 
ATOM      6  C   UNL     1      35.580 -23.637 -13.924  0.00  0.00    +0.267 C 
ATOM      7  C   UNL     1      35.582 -24.706 -11.917  0.00  0.00    +0.308 C 
ATOM      8  H   UNL     1      36.587 -26.425 -12.609  0.00  0.00    +0.153 HD
ATOM      9  H   UNL     1      34.732 -22.810 -12.197  0.00  0.00    +0.159 HD
ENDROOT
BRANCH   5  11
ATOM     10  O   UNL     1      38.334 -26.962 -14.546  0.00  0.00    -0.253 OA
ATOM     11  N   UNL     1      37.576 -24.763 -14.661  0.00  0.00    -0.268 N 
ATOM     12  N   UNL     1      39.724 -25.307 -15.322  0.00  0.00    -0.313 N 
ATOM     13  C   UNL     1      38.524 -25.778 -14.818  0.00  0.00    +0.299 C 
ATOM     14  H   UNL     1      37.834 -23.846 -14.911  0.00  0.00    +0.153 HD
ATOM     15  H   UNL     1      40.471 -25.930 -15.476  0.00  0.00    +0.146 HD
ATOM     16  H   UNL     1      39.832 -24.350 -15.525  0.00  0.00    +0.146 HD
ENDBRANCH   5  11
TORSDOF 1
ENDMDL
MODEL 9
REMARK VINA RESULT:      -6.3      2.760      3.995
REMARK  Name = 204
REMARK  1 active torsions:
REMARK  status: ('A' for Active; 'I' for Inactive)
REMARK    1  A    between atoms: C_5  and  N_11
REMARK                            x       y       z     vdW  Elec       q    Type
REMARK                         _______ _______ _______ _____ _____    ______ ____
ROOT
ATOM      1  O   UNL     1      36.702 -27.267 -16.158  0.00  0.00    -0.271 OA
ATOM      2  O   UNL     1      37.254 -26.275 -11.714  0.00  0.00    -0.252 OA
ATOM      3  N   UNL     1      36.753 -24.949 -13.575  0.00  0.00    -0.267 N 
ATOM      4  N   UNL     1      37.080 -27.132 -13.870  0.00  0.00    -0.237 N 
ATOM      5  C   UNL     1      36.583 -25.132 -14.991  0.00  0.00    +0.229 C 
ATOM      6  C   UNL     1      36.795 -26.631 -15.119  0.00  0.00    +0.267 C 
ATOM      7  C   UNL     1      37.054 -26.141 -12.913  0.00  0.00    +0.308 C 
ATOM      8  H   UNL     1      36.666 -24.079 -13.122  0.00  0.00    +0.153 HD
ATOM      9  H   UNL     1      37.276 -28.078 -13.684  0.00  0.00    +0.159 HD
ENDROOT
BRANCH   5  11
ATOM     10  O   UNL     1      35.384 -22.494 -15.107  0.00  0.00    -0.253 OA
ATOM     11  N   UNL     1      35.282 -24.792 -15.472  0.00  0.00    -0.268 N 
ATOM     12  N   UNL     1      33.491 -23.430 -16.008  0.00  0.00    -0.313 N 
ATOM     13  C   UNL     1      34.775 -23.489 -15.495  0.00  0.00    +0.299 C 
ATOM     14  H   UNL     1      34.707 -25.517 -15.808  0.00  0.00    +0.153 HD
ATOM     15  H   UNL     1      33.027 -22.564 -16.075  0.00  0.00    +0.146 HD
ATOM     16  H   UNL     1      33.041 -24.254 -16.307  0.00  0.00    +0.146 HD
ENDBRANCH   5  11
TORSDOF 1
ENDMDL
