MODEL 1
REMARK VINA RESULT:      -3.5      0.000      0.000
REMARK  Name = 3520
REMARK  0 active torsions:
REMARK  status: ('A' for Active; 'I' for Inactive)
REMARK                            x       y       z     vdW  Elec       q    Type
REMARK                         _______ _______ _______ _____ _____    ______ ____
ROOT
ATOM      1  N   UNL     1      40.637 -13.051 -13.531  0.00  0.00    -0.370 N 
ATOM      2  N   UNL     1      41.717 -13.228 -15.548  0.00  0.00    -0.370 N 
ATOM      3  N   UNL     1      40.459 -15.046 -14.762  0.00  0.00    -0.269 NA
ATOM      4  C   UNL     1      40.915 -13.834 -14.619  0.00  0.00    +0.185 C 
ATOM      5  H   UNL     1      41.007 -12.140 -13.472  0.00  0.00    +0.159 HD
ATOM      6  H   UNL     1      40.068 -13.397 -12.807  0.00  0.00    +0.159 HD
ATOM      7  H   UNL     1      42.038 -12.309 -15.397  0.00  0.00    +0.159 HD
ATOM      8  H   UNL     1      41.974 -13.710 -16.367  0.00  0.00    +0.159 HD
ATOM      9  H   UNL     1      39.885 -15.442 -14.066  0.00  0.00    +0.190 HD
ENDROOT
TORSDOF 0
ENDMDL
MODEL 2
REMARK VINA RESULT:      -3.4     12.423     13.336
REMARK  Name = 3520
REMARK  0 active torsions:
REMARK  status: ('A' for Active; 'I' for Inactive)
REMARK                            x       y       z     vdW  Elec       q    Type
REMARK                         _______ _______ _______ _____ _____    ______ ____
ROOT
ATOM      1  N   UNL     1      36.838 -26.941 -13.845  0.00  0.00    -0.370 N 
ATOM      2  N   UNL     1      37.870 -25.409 -15.208  0.00  0.00    -0.370 N 
ATOM      3  N   UNL     1      36.742 -27.224 -16.178  0.00  0.00    -0.269 NA
ATOM      4  C   UNL     1      37.130 -26.559 -15.127  0.00  0.00    +0.185 C 
ATOM      5  H   UNL     1      37.156 -26.401 -13.085  0.00  0.00    +0.159 HD
ATOM      6  H   UNL     1      36.310 -27.755 -13.682  0.00  0.00    +0.159 HD
ATOM      7  H   UNL     1      38.142 -24.939 -14.385  0.00  0.00    +0.159 HD
ATOM      8  H   UNL     1      38.132 -25.052 -16.087  0.00  0.00    +0.159 HD
ATOM      9  H   UNL     1      36.211 -28.046 -16.071  0.00  0.00    +0.190 HD
ENDROOT
TORSDOF 0
ENDMDL
MODEL 3
REMARK VINA RESULT:      -3.4     12.408     13.396
REMARK  Name = 3520
REMARK  0 active torsions:
REMARK  status: ('A' for Active; 'I' for Inactive)
REMARK                            x       y       z     vdW  Elec       q    Type
REMARK                         _______ _______ _______ _____ _____    ______ ____
ROOT
ATOM      1  N   UNL     1      37.843 -25.384 -15.211  0.00  0.00    -0.370 N 
ATOM      2  N   UNL     1      36.850 -26.942 -13.849  0.00  0.00    -0.370 N 
ATOM      3  N   UNL     1      36.744 -27.225 -16.177  0.00  0.00    -0.269 NA
ATOM      4  C   UNL     1      37.128 -26.549 -15.132  0.00  0.00    +0.185 C 
ATOM      5  H   UNL     1      38.108 -24.911 -14.389  0.00  0.00    +0.159 HD
ATOM      6  H   UNL     1      38.092 -25.018 -16.090  0.00  0.00    +0.159 HD
ATOM      7  H   UNL     1      37.161 -26.398 -13.089  0.00  0.00    +0.159 HD
ATOM      8  H   UNL     1      36.340 -27.768 -13.686  0.00  0.00    +0.159 HD
ATOM      9  H   UNL     1      36.967 -26.903 -17.080  0.00  0.00    +0.190 HD
ENDROOT
TORSDOF 0
ENDMDL
MODEL 4
REMARK VINA RESULT:      -3.3     11.523     12.218
REMARK  Name = 3520
REMARK  0 active torsions:
REMARK  status: ('A' for Active; 'I' for Inactive)
REMARK                            x       y       z     vdW  Elec       q    Type
REMARK                         _______ _______ _______ _____ _____    ______ ____
ROOT
ATOM      1  N   UNL     1      39.463 -24.911 -15.394  0.00  0.00    -0.370 N 
ATOM      2  N   UNL     1      39.026 -25.936 -13.387  0.00  0.00    -0.370 N 
ATOM      3  N   UNL     1      40.934 -26.566 -14.601  0.00  0.00    -0.269 NA
ATOM      4  C   UNL     1      39.861 -25.839 -14.469  0.00  0.00    +0.185 C 
ATOM      5  H   UNL     1      38.642 -24.388 -15.245  0.00  0.00    +0.159 HD
ATOM      6  H   UNL     1      39.997 -24.767 -16.208  0.00  0.00    +0.159 HD
ATOM      7  H   UNL     1      38.225 -25.366 -13.330  0.00  0.00    +0.159 HD
ATOM      8  H   UNL     1      39.226 -26.576 -12.666  0.00  0.00    +0.159 HD
ATOM      9  H   UNL     1      41.505 -26.461 -15.397  0.00  0.00    +0.190 HD
ENDROOT
TORSDOF 0
ENDMDL
MODEL 5
REMARK VINA RESULT:      -3.2     11.315     11.977
REMARK  Name = 3520
REMARK  0 active torsions:
REMARK  status: ('A' for Active; 'I' for Inactive)
REMARK                            x       y       z     vdW  Elec       q    Type
REMARK                         _______ _______ _______ _____ _____    ______ ____
ROOT
ATOM      1  N   UNL     1      35.189 -23.577 -12.372  0.00  0.00    -0.370 N 
ATOM      2  N   UNL     1      37.020 -23.432 -10.996  0.00  0.00    -0.370 N 
ATOM      3  N   UNL     1      35.359 -25.021 -10.523  0.00  0.00    -0.269 NA
ATOM      4  C   UNL     1      35.831 -24.057 -11.262  0.00  0.00    +0.185 C 
ATOM      5  H   UNL     1      35.590 -22.846 -12.895  0.00  0.00    +0.159 HD
ATOM      6  H   UNL     1      34.326 -23.962 -12.646  0.00  0.00    +0.159 HD
ATOM      7  H   UNL     1      37.338 -22.707 -11.583  0.00  0.00    +0.159 HD
ATOM      8  H   UNL     1      37.558 -23.705 -10.218  0.00  0.00    +0.159 HD
ATOM      9  H   UNL     1      34.499 -25.441 -10.753  0.00  0.00    +0.190 HD
ENDROOT
TORSDOF 0
ENDMDL
MODEL 6
REMARK VINA RESULT:      -3.1     13.683     14.226
REMARK  Name = 3520
REMARK  0 active torsions:
REMARK  status: ('A' for Active; 'I' for Inactive)
REMARK                            x       y       z     vdW  Elec       q    Type
REMARK                         _______ _______ _______ _____ _____    ______ ____
ROOT
ATOM      1  N   UNL     1      41.809 -20.847 -27.980  0.00  0.00    -0.370 N 
ATOM      2  N   UNL     1      43.568 -19.725 -27.023  0.00  0.00    -0.370 N 
ATOM      3  N   UNL     1      42.351 -21.259 -25.729  0.00  0.00    -0.269 NA
ATOM      4  C   UNL     1      42.564 -20.641 -26.856  0.00  0.00    +0.185 C 
ATOM      5  H   UNL     1      42.013 -20.353 -28.808  0.00  0.00    +0.159 HD
ATOM      6  H   UNL     1      41.063 -21.488 -27.962  0.00  0.00    +0.159 HD
ATOM      7  H   UNL     1      43.691 -19.282 -27.894  0.00  0.00    +0.159 HD
ATOM      8  H   UNL     1      44.166 -19.507 -26.272  0.00  0.00    +0.159 HD
ATOM      9  H   UNL     1      41.616 -21.911 -25.656  0.00  0.00    +0.190 HD
ENDROOT
TORSDOF 0
ENDMDL
MODEL 7
REMARK VINA RESULT:      -3.1     14.908     15.717
REMARK  Name = 3520
REMARK  0 active torsions:
REMARK  status: ('A' for Active; 'I' for Inactive)
REMARK                            x       y       z     vdW  Elec       q    Type
REMARK                         _______ _______ _______ _____ _____    ______ ____
ROOT
ATOM      1  N   UNL     1      27.607 -22.390 -15.748  0.00  0.00    -0.370 N 
ATOM      2  N   UNL     1      29.625 -22.663 -16.807  0.00  0.00    -0.370 N 
ATOM      3  N   UNL     1      27.668 -23.409 -17.867  0.00  0.00    -0.269 NA
ATOM      4  C   UNL     1      28.269 -22.848 -16.856  0.00  0.00    +0.185 C 
ATOM      5  H   UNL     1      28.110 -21.973 -15.011  0.00  0.00    +0.159 HD
ATOM      6  H   UNL     1      26.629 -22.478 -15.688  0.00  0.00    +0.159 HD
ATOM      7  H   UNL     1      30.036 -22.233 -16.021  0.00  0.00    +0.159 HD
ATOM      8  H   UNL     1      30.191 -22.959 -17.557  0.00  0.00    +0.159 HD
ATOM      9  H   UNL     1      26.690 -23.522 -17.857  0.00  0.00    +0.190 HD
ENDROOT
TORSDOF 0
ENDMDL
MODEL 8
REMARK VINA RESULT:      -3.0     12.373     13.082
REMARK  Name = 3520
REMARK  0 active torsions:
REMARK  status: ('A' for Active; 'I' for Inactive)
REMARK                            x       y       z     vdW  Elec       q    Type
REMARK                         _______ _______ _______ _____ _____    ______ ____
ROOT
ATOM      1  N   UNL     1      38.534 -25.522 -12.939  0.00  0.00    -0.370 N 
ATOM      2  N   UNL     1      37.054 -27.086 -13.736  0.00  0.00    -0.370 N 
ATOM      3  N   UNL     1      36.460 -25.798 -11.866  0.00  0.00    -0.269 NA
ATOM      4  C   UNL     1      37.309 -26.118 -12.800  0.00  0.00    +0.185 C 
ATOM      5  H   UNL     1      39.138 -25.802 -13.665  0.00  0.00    +0.159 HD
ATOM      6  H   UNL     1      38.810 -24.814 -12.315  0.00  0.00    +0.159 HD
ATOM      7  H   UNL     1      37.726 -27.295 -14.424  0.00  0.00    +0.159 HD
ATOM      8  H   UNL     1      36.199 -27.574 -13.720  0.00  0.00    +0.159 HD
ATOM      9  H   UNL     1      36.687 -25.095 -11.214  0.00  0.00    +0.190 HD
ENDROOT
TORSDOF 0
ENDMDL
MODEL 9
REMARK VINA RESULT:      -3.0     10.660     10.909
REMARK  Name = 3520
REMARK  0 active torsions:
REMARK  status: ('A' for Active; 'I' for Inactive)
REMARK                            x       y       z     vdW  Elec       q    Type
REMARK                         _______ _______ _______ _____ _____    ______ ____
ROOT
ATOM      1  N   UNL     1      38.670  -4.056 -10.563  0.00  0.00    -0.370 N 
ATOM      2  N   UNL     1      37.902  -5.447  -8.908  0.00  0.00    -0.370 N 
ATOM      3  N   UNL     1      36.368  -4.511 -10.417  0.00  0.00    -0.269 NA
ATOM      4  C   UNL     1      37.587  -4.663  -9.986  0.00  0.00    +0.185 C 
ATOM      5  H   UNL     1      39.572  -4.204 -10.197  0.00  0.00    +0.159 HD
ATOM      6  H   UNL     1      38.548  -3.471 -11.345  0.00  0.00    +0.159 HD
ATOM      7  H   UNL     1      38.839  -5.532  -8.617  0.00  0.00    +0.159 HD
ATOM      8  H   UNL     1      37.191  -5.927  -8.423  0.00  0.00    +0.159 HD
ATOM      9  H   UNL     1      36.190  -3.936 -11.197  0.00  0.00    +0.190 HD
ENDROOT
TORSDOF 0
ENDMDL
