MODEL 1
REMARK VINA RESULT:     -10.0      0.000      0.000
REMARK  Name = 3334
REMARK  4 active torsions:
REMARK  status: ('A' for Active; 'I' for Inactive)
REMARK    1  A    between atoms: N_4  and  C_9
REMARK    2  A    between atoms: C_8  and  S_18
REMARK    3  A    between atoms: C_12  and  O_16
REMARK    4  A    between atoms: S_18  and  C_19
REMARK                            x       y       z     vdW  Elec       q    Type
REMARK                         _______ _______ _______ _____ _____    ______ ____
ROOT
ATOM      1  N   UNL     1      33.383 -14.352 -21.761  0.00  0.00    -0.302 N 
ATOM      2  N   UNL     1      32.971 -14.434 -23.943  0.00  0.00    -0.302 N 
ATOM      3  C   UNL     1      34.055 -15.456 -22.219  0.00  0.00    +0.061 C 
ATOM      4  C   UNL     1      33.782 -15.485 -23.584  0.00  0.00    +0.060 C 
ATOM      5  C   UNL     1      34.854 -16.402 -21.576  0.00  0.00    +0.022 C 
ATOM      6  C   UNL     1      35.392 -17.418 -22.374  0.00  0.00    +0.031 C 
ATOM      7  C   UNL     1      32.751 -13.775 -22.828  0.00  0.00    +0.229 C 
ATOM      8  C   UNL     1      34.330 -16.512 -24.370  0.00  0.00    +0.016 C 
ATOM      9  C   UNL     1      35.136 -17.474 -23.746  0.00  0.00    +0.008 C 
ATOM     10  H   UNL     1      33.360 -14.031 -20.830  0.00  0.00    +0.150 HD
ATOM     11  H   UNL     1      32.630 -14.221 -24.842  0.00  0.00    +0.150 HD
ENDROOT
BRANCH   7  13
ATOM     12  O   UNL     1      31.907 -12.423 -20.318  0.00  0.00    -0.226 OA
ATOM     13  N   UNL     1      31.998 -12.643 -22.657  0.00  0.00    -0.240 N 
ATOM     14  C   UNL     1      31.629 -12.047 -21.450  0.00  0.00    +0.404 C 
ATOM     15  H   UNL     1      31.683 -12.200 -23.477  0.00  0.00    +0.156 HD
BRANCH  14  16
ATOM     16  O   UNL     1      30.876 -10.931 -21.707  0.00  0.00    -0.431 OA
ATOM     17  C   UNL     1      31.529  -9.884 -22.436  0.00  0.00    +0.257 C 
ENDBRANCH  14  16
ENDBRANCH   7  13
BRANCH   6  18
ATOM     18  S   UNL     1      36.423 -18.666 -21.620  0.00  0.00    -0.087 S 
BRANCH  18  19
ATOM     19  C   UNL     1      35.196 -19.706 -20.845  0.00  0.00    +0.029 C 
ATOM     20  C   UNL     1      33.842 -19.451 -21.049  0.00  0.00    +0.006 C 
ATOM     21  C   UNL     1      35.597 -20.769 -20.039  0.00  0.00    +0.006 C 
ATOM     22  C   UNL     1      32.883 -20.264 -20.444  0.00  0.00    +0.001 C 
ATOM     23  C   UNL     1      34.638 -21.581 -19.433  0.00  0.00    +0.001 C 
ATOM     24  C   UNL     1      33.281 -21.329 -19.636  0.00  0.00    +0.000 C 
ENDBRANCH  18  19
ENDBRANCH   6  18
TORSDOF 4
ENDMDL
MODEL 2
REMARK VINA RESULT:      -9.9      5.514      8.645
REMARK  Name = 3334
REMARK  4 active torsions:
REMARK  status: ('A' for Active; 'I' for Inactive)
REMARK    1  A    between atoms: N_4  and  C_9
REMARK    2  A    between atoms: C_8  and  S_18
REMARK    3  A    between atoms: C_12  and  O_16
REMARK    4  A    between atoms: S_18  and  C_19
REMARK                            x       y       z     vdW  Elec       q    Type
REMARK                         _______ _______ _______ _____ _____    ______ ____
ROOT
ATOM      1  N   UNL     1      35.100 -22.055 -18.608  0.00  0.00    -0.302 N 
ATOM      2  N   UNL     1      32.885 -22.035 -18.791  0.00  0.00    -0.302 N 
ATOM      3  C   UNL     1      34.824 -21.161 -19.610  0.00  0.00    +0.061 C 
ATOM      4  C   UNL     1      33.435 -21.165 -19.704  0.00  0.00    +0.060 C 
ATOM      5  C   UNL     1      35.645 -20.371 -20.416  0.00  0.00    +0.022 C 
ATOM      6  C   UNL     1      35.007 -19.555 -21.356  0.00  0.00    +0.031 C 
ATOM      7  C   UNL     1      33.910 -22.550 -18.152  0.00  0.00    +0.229 C 
ATOM      8  C   UNL     1      32.811 -20.340 -20.655  0.00  0.00    +0.016 C 
ATOM      9  C   UNL     1      33.615 -19.538 -21.475  0.00  0.00    +0.008 C 
ATOM     10  H   UNL     1      35.995 -22.298 -18.277  0.00  0.00    +0.150 HD
ATOM     11  H   UNL     1      31.930 -22.228 -18.648  0.00  0.00    +0.150 HD
ENDROOT
BRANCH   7  13
ATOM     12  O   UNL     1      35.383 -22.568 -15.569  0.00  0.00    -0.226 OA
ATOM     13  N   UNL     1      33.888 -23.475 -17.139  0.00  0.00    -0.240 N 
ATOM     14  C   UNL     1      34.603 -23.434 -15.941  0.00  0.00    +0.404 C 
ATOM     15  H   UNL     1      33.301 -24.254 -17.272  0.00  0.00    +0.156 HD
BRANCH  14  16
ATOM     16  O   UNL     1      34.303 -24.546 -15.197  0.00  0.00    -0.431 OA
ATOM     17  C   UNL     1      33.511 -24.325 -14.024  0.00  0.00    +0.257 C 
ENDBRANCH  14  16
ENDBRANCH   7  13
BRANCH   6  18
ATOM     18  S   UNL     1      35.994 -18.518 -22.424  0.00  0.00    -0.087 S 
BRANCH  18  19
ATOM     19  C   UNL     1      35.227 -16.926 -22.166  0.00  0.00    +0.029 C 
ATOM     20  C   UNL     1      34.949 -16.105 -23.256  0.00  0.00    +0.006 C 
ATOM     21  C   UNL     1      34.906 -16.513 -20.875  0.00  0.00    +0.006 C 
ATOM     22  C   UNL     1      34.350 -14.861 -23.054  0.00  0.00    +0.001 C 
ATOM     23  C   UNL     1      34.307 -15.269 -20.673  0.00  0.00    +0.001 C 
ATOM     24  C   UNL     1      34.028 -14.443 -21.762  0.00  0.00    +0.000 C 
ENDBRANCH  18  19
ENDBRANCH   6  18
TORSDOF 4
ENDMDL
MODEL 3
REMARK VINA RESULT:      -9.7      5.074      7.972
REMARK  Name = 3334
REMARK  4 active torsions:
REMARK  status: ('A' for Active; 'I' for Inactive)
REMARK    1  A    between atoms: N_4  and  C_9
REMARK    2  A    between atoms: C_8  and  S_18
REMARK    3  A    between atoms: C_12  and  O_16
REMARK    4  A    between atoms: S_18  and  C_19
REMARK                            x       y       z     vdW  Elec       q    Type
REMARK                         _______ _______ _______ _____ _____    ______ ____
ROOT
ATOM      1  N   UNL     1      32.912 -20.783 -20.007  0.00  0.00    -0.302 N 
ATOM      2  N   UNL     1      34.785 -21.578 -19.113  0.00  0.00    -0.302 N 
ATOM      3  C   UNL     1      33.929 -20.092 -20.613  0.00  0.00    +0.061 C 
ATOM      4  C   UNL     1      35.088 -20.608 -20.039  0.00  0.00    +0.060 C 
ATOM      5  C   UNL     1      33.935 -19.092 -21.587  0.00  0.00    +0.022 C 
ATOM      6  C   UNL     1      35.186 -18.606 -21.981  0.00  0.00    +0.031 C 
ATOM      7  C   UNL     1      33.474 -21.658 -19.119  0.00  0.00    +0.229 C 
ATOM      8  C   UNL     1      36.336 -20.106 -20.447  0.00  0.00    +0.016 C 
ATOM      9  C   UNL     1      36.366 -19.102 -21.423  0.00  0.00    +0.008 C 
ATOM     10  H   UNL     1      31.949 -20.669 -20.179  0.00  0.00    +0.150 HD
ATOM     11  H   UNL     1      35.415 -22.101 -18.565  0.00  0.00    +0.150 HD
ENDROOT
BRANCH   7  13
ATOM     12  O   UNL     1      34.108 -23.123 -16.610  0.00  0.00    -0.226 OA
ATOM     13  N   UNL     1      32.681 -22.484 -18.365  0.00  0.00    -0.240 N 
ATOM     14  C   UNL     1      33.029 -23.150 -17.189  0.00  0.00    +0.404 C 
ATOM     15  H   UNL     1      31.762 -22.622 -18.689  0.00  0.00    +0.156 HD
BRANCH  14  16
ATOM     16  O   UNL     1      31.956 -23.876 -16.744  0.00  0.00    -0.431 OA
ATOM     17  C   UNL     1      30.926 -23.135 -16.079  0.00  0.00    +0.257 C 
ENDBRANCH  14  16
ENDBRANCH   7  13
BRANCH   6  18
ATOM     18  S   UNL     1      35.271 -17.323 -23.222  0.00  0.00    -0.087 S 
BRANCH  18  19
ATOM     19  C   UNL     1      34.321 -16.027 -22.445  0.00  0.00    +0.029 C 
ATOM     20  C   UNL     1      33.504 -15.206 -23.219  0.00  0.00    +0.006 C 
ATOM     21  C   UNL     1      34.399 -15.841 -21.067  0.00  0.00    +0.006 C 
ATOM     22  C   UNL     1      32.761 -14.194 -22.612  0.00  0.00    +0.001 C 
ATOM     23  C   UNL     1      33.656 -14.828 -20.460  0.00  0.00    +0.001 C 
ATOM     24  C   UNL     1      32.837 -14.004 -21.233  0.00  0.00    +0.000 C 
ENDBRANCH  18  19
ENDBRANCH   6  18
TORSDOF 4
ENDMDL
MODEL 4
REMARK VINA RESULT:      -9.3      1.640      2.392
REMARK  Name = 3334
REMARK  4 active torsions:
REMARK  status: ('A' for Active; 'I' for Inactive)
REMARK    1  A    between atoms: N_4  and  C_9
REMARK    2  A    between atoms: C_8  and  S_18
REMARK    3  A    between atoms: C_12  and  O_16
REMARK    4  A    between atoms: S_18  and  C_19
REMARK                            x       y       z     vdW  Elec       q    Type
REMARK                         _______ _______ _______ _____ _____    ______ ____
ROOT
ATOM      1  N   UNL     1      33.632 -13.309 -23.304  0.00  0.00    -0.302 N 
ATOM      2  N   UNL     1      32.405 -13.279 -21.451  0.00  0.00    -0.302 N 
ATOM      3  C   UNL     1      33.866 -14.513 -22.690  0.00  0.00    +0.061 C 
ATOM      4  C   UNL     1      33.088 -14.470 -21.537  0.00  0.00    +0.060 C 
ATOM      5  C   UNL     1      34.665 -15.603 -23.036  0.00  0.00    +0.022 C 
ATOM      6  C   UNL     1      34.662 -16.690 -22.156  0.00  0.00    +0.031 C 
ATOM      7  C   UNL     1      32.754 -12.608 -22.525  0.00  0.00    +0.229 C 
ATOM      8  C   UNL     1      33.097 -15.571 -20.663  0.00  0.00    +0.016 C 
ATOM      9  C   UNL     1      33.893 -16.677 -20.990  0.00  0.00    +0.008 C 
ATOM     10  H   UNL     1      34.027 -13.004 -24.153  0.00  0.00    +0.150 HD
ATOM     11  H   UNL     1      31.788 -12.992 -20.739  0.00  0.00    +0.150 HD
ENDROOT
BRANCH   7  13
ATOM     12  O   UNL     1      34.209 -10.514 -24.053  0.00  0.00    -0.226 OA
ATOM     13  N   UNL     1      32.341 -11.356 -22.902  0.00  0.00    -0.240 N 
ATOM     14  C   UNL     1      33.068 -10.407 -23.623  0.00  0.00    +0.404 C 
ATOM     15  H   UNL     1      31.430 -11.098 -22.636  0.00  0.00    +0.156 HD
BRANCH  14  16
ATOM     16  O   UNL     1      32.301  -9.285 -23.796  0.00  0.00    -0.431 OA
ATOM     17  C   UNL     1      31.610  -8.809 -22.635  0.00  0.00    +0.257 C 
ENDBRANCH  14  16
ENDBRANCH   7  13
BRANCH   6  18
ATOM     18  S   UNL     1      35.663 -18.121 -22.532  0.00  0.00    -0.087 S 
BRANCH  18  19
ATOM     19  C   UNL     1      34.965 -19.333 -21.422  0.00  0.00    +0.029 C 
ATOM     20  C   UNL     1      35.802 -20.085 -20.601  0.00  0.00    +0.006 C 
ATOM     21  C   UNL     1      33.586 -19.521 -21.380  0.00  0.00    +0.006 C 
ATOM     22  C   UNL     1      35.257 -21.032 -19.733  0.00  0.00    +0.001 C 
ATOM     23  C   UNL     1      33.040 -20.468 -20.512  0.00  0.00    +0.001 C 
ATOM     24  C   UNL     1      33.876 -21.223 -19.689  0.00  0.00    +0.000 C 
ENDBRANCH  18  19
ENDBRANCH   6  18
TORSDOF 4
ENDMDL
MODEL 5
REMARK VINA RESULT:      -9.2      4.889      9.385
REMARK  Name = 3334
REMARK  4 active torsions:
REMARK  status: ('A' for Active; 'I' for Inactive)
REMARK    1  A    between atoms: N_4  and  C_9
REMARK    2  A    between atoms: C_8  and  S_18
REMARK    3  A    between atoms: C_12  and  O_16
REMARK    4  A    between atoms: S_18  and  C_19
REMARK                            x       y       z     vdW  Elec       q    Type
REMARK                         _______ _______ _______ _____ _____    ______ ____
ROOT
ATOM      1  N   UNL     1      33.168 -12.409 -23.965  0.00  0.00    -0.302 N 
ATOM      2  N   UNL     1      32.310 -13.784 -22.443  0.00  0.00    -0.302 N 
ATOM      3  C   UNL     1      32.652 -11.598 -22.988  0.00  0.00    +0.061 C 
ATOM      4  C   UNL     1      32.124 -12.479 -22.049  0.00  0.00    +0.060 C 
ATOM      5  C   UNL     1      32.606 -10.210 -22.848  0.00  0.00    +0.022 C 
ATOM      6  C   UNL     1      31.989  -9.714 -21.695  0.00  0.00    +0.031 C 
ATOM      7  C   UNL     1      32.939 -13.706 -23.594  0.00  0.00    +0.229 C 
ATOM      8  C   UNL     1      31.507 -11.963 -20.896  0.00  0.00    +0.016 C 
ATOM      9  C   UNL     1      31.448 -10.573 -20.735  0.00  0.00    +0.008 C 
ATOM     10  H   UNL     1      33.621 -12.112 -24.787  0.00  0.00    +0.150 HD
ATOM     11  H   UNL     1      32.034 -14.599 -21.965  0.00  0.00    +0.150 HD
ENDROOT
BRANCH   7  13
ATOM     12  O   UNL     1      32.587 -14.092 -26.521  0.00  0.00    -0.226 OA
ATOM     13  N   UNL     1      33.353 -14.738 -24.395  0.00  0.00    -0.240 N 
ATOM     14  C   UNL     1      33.161 -14.871 -25.771  0.00  0.00    +0.404 C 
ATOM     15  H   UNL     1      33.842 -15.467 -23.950  0.00  0.00    +0.156 HD
BRANCH  14  16
ATOM     16  O   UNL     1      33.726 -16.045 -26.196  0.00  0.00    -0.431 OA
ATOM     17  C   UNL     1      34.505 -16.757 -25.227  0.00  0.00    +0.257 C 
ENDBRANCH  14  16
ENDBRANCH   7  13
BRANCH   6  18
ATOM     18  S   UNL     1      31.890  -7.947 -21.449  0.00  0.00    -0.087 S 
BRANCH  18  19
ATOM     19  C   UNL     1      32.830  -7.351 -22.845  0.00  0.00    +0.029 C 
ATOM     20  C   UNL     1      34.186  -7.653 -22.949  0.00  0.00    +0.006 C 
ATOM     21  C   UNL     1      32.204  -6.587 -23.828  0.00  0.00    +0.006 C 
ATOM     22  C   UNL     1      34.920  -7.188 -24.039  0.00  0.00    +0.001 C 
ATOM     23  C   UNL     1      32.939  -6.122 -24.919  0.00  0.00    +0.001 C 
ATOM     24  C   UNL     1      34.297  -6.423 -25.025  0.00  0.00    +0.000 C 
ENDBRANCH  18  19
ENDBRANCH   6  18
TORSDOF 4
ENDMDL
MODEL 6
REMARK VINA RESULT:      -9.1      3.771      8.487
REMARK  Name = 3334
REMARK  4 active torsions:
REMARK  status: ('A' for Active; 'I' for Inactive)
REMARK    1  A    between atoms: N_4  and  C_9
REMARK    2  A    between atoms: C_8  and  S_18
REMARK    3  A    between atoms: C_12  and  O_16
REMARK    4  A    between atoms: S_18  and  C_19
REMARK                            x       y       z     vdW  Elec       q    Type
REMARK                         _______ _______ _______ _____ _____    ______ ____
ROOT
ATOM      1  N   UNL     1      33.734 -15.440 -20.467  0.00  0.00    -0.302 N 
ATOM      2  N   UNL     1      34.869 -15.577 -22.373  0.00  0.00    -0.302 N 
ATOM      3  C   UNL     1      33.278 -14.404 -21.240  0.00  0.00    +0.061 C 
ATOM      4  C   UNL     1      34.001 -14.511 -22.425  0.00  0.00    +0.060 C 
ATOM      5  C   UNL     1      32.323 -13.412 -21.012  0.00  0.00    +0.022 C 
ATOM      6  C   UNL     1      32.107 -12.496 -22.047  0.00  0.00    +0.031 C 
ATOM      7  C   UNL     1      34.683 -16.111 -21.188  0.00  0.00    +0.229 C 
ATOM      8  C   UNL     1      33.771 -13.582 -23.454  0.00  0.00    +0.016 C 
ATOM      9  C   UNL     1      32.817 -12.578 -23.247  0.00  0.00    +0.008 C 
ATOM     10  H   UNL     1      33.433 -15.662 -19.556  0.00  0.00    +0.150 HD
ATOM     11  H   UNL     1      35.493 -15.876 -23.074  0.00  0.00    +0.150 HD
ENDROOT
BRANCH   7  13
ATOM     12  O   UNL     1      35.520 -18.646 -22.497  0.00  0.00    -0.226 OA
ATOM     13  N   UNL     1      35.314 -17.204 -20.652  0.00  0.00    -0.240 N 
ATOM     14  C   UNL     1      35.687 -18.375 -21.315  0.00  0.00    +0.404 C 
ATOM     15  H   UNL     1      35.530 -17.158 -19.693  0.00  0.00    +0.156 HD
BRANCH  14  16
ATOM     16  O   UNL     1      36.293 -19.225 -20.427  0.00  0.00    -0.431 OA
ATOM     17  C   UNL     1      35.758 -20.552 -20.358  0.00  0.00    +0.257 C 
ENDBRANCH  14  16
ENDBRANCH   7  13
BRANCH   6  18
ATOM     18  S   UNL     1      30.900 -11.198 -21.825  0.00  0.00    -0.087 S 
BRANCH  18  19
ATOM     19  C   UNL     1      31.917  -9.744 -22.025  0.00  0.00    +0.029 C 
ATOM     20  C   UNL     1      32.230  -8.959 -20.917  0.00  0.00    +0.006 C 
ATOM     21  C   UNL     1      32.396  -9.400 -23.287  0.00  0.00    +0.006 C 
ATOM     22  C   UNL     1      33.025  -7.823 -21.073  0.00  0.00    +0.001 C 
ATOM     23  C   UNL     1      33.191  -8.264 -23.442  0.00  0.00    +0.001 C 
ATOM     24  C   UNL     1      33.505  -7.475 -22.335  0.00  0.00    +0.000 C 
ENDBRANCH  18  19
ENDBRANCH   6  18
TORSDOF 4
ENDMDL
MODEL 7
REMARK VINA RESULT:      -9.1      7.635     10.724
REMARK  Name = 3334
REMARK  4 active torsions:
REMARK  status: ('A' for Active; 'I' for Inactive)
REMARK    1  A    between atoms: N_4  and  C_9
REMARK    2  A    between atoms: C_8  and  S_18
REMARK    3  A    between atoms: C_12  and  O_16
REMARK    4  A    between atoms: S_18  and  C_19
REMARK                            x       y       z     vdW  Elec       q    Type
REMARK                         _______ _______ _______ _____ _____    ______ ____
ROOT
ATOM      1  N   UNL     1      34.942 -23.367 -14.578  0.00  0.00    -0.302 N 
ATOM      2  N   UNL     1      37.055 -22.679 -14.594  0.00  0.00    -0.302 N 
ATOM      3  C   UNL     1      35.173 -22.924 -15.855  0.00  0.00    +0.061 C 
ATOM      4  C   UNL     1      36.499 -22.501 -15.839  0.00  0.00    +0.060 C 
ATOM      5  C   UNL     1      34.361 -22.861 -16.988  0.00  0.00    +0.022 C 
ATOM      6  C   UNL     1      34.941 -22.339 -18.150  0.00  0.00    +0.031 C 
ATOM      7  C   UNL     1      36.095 -23.200 -13.863  0.00  0.00    +0.229 C 
ATOM      8  C   UNL     1      37.066 -21.980 -17.015  0.00  0.00    +0.016 C 
ATOM      9  C   UNL     1      36.269 -21.906 -18.165  0.00  0.00    +0.008 C 
ATOM     10  H   UNL     1      34.096 -23.738 -14.237  0.00  0.00    +0.150 HD
ATOM     11  H   UNL     1      37.974 -22.465 -14.312  0.00  0.00    +0.150 HD
ENDROOT
BRANCH   7  13
ATOM     12  O   UNL     1      38.087 -22.471 -11.779  0.00  0.00    -0.226 OA
ATOM     13  N   UNL     1      36.150 -23.563 -12.543  0.00  0.00    -0.240 N 
ATOM     14  C   UNL     1      37.112 -23.190 -11.602  0.00  0.00    +0.404 C 
ATOM     15  H   UNL     1      35.429 -24.151 -12.221  0.00  0.00    +0.156 HD
BRANCH  14  16
ATOM     16  O   UNL     1      36.809 -23.762 -10.394  0.00  0.00    -0.431 OA
ATOM     17  C   UNL     1      35.593 -24.518 -10.341  0.00  0.00    +0.257 C 
ENDBRANCH  14  16
ENDBRANCH   7  13
BRANCH   6  18
ATOM     18  S   UNL     1      33.962 -22.226 -19.639  0.00  0.00    -0.087 S 
BRANCH  18  19
ATOM     19  C   UNL     1      34.506 -20.655 -20.291  0.00  0.00    +0.029 C 
ATOM     20  C   UNL     1      33.567 -19.694 -20.658  0.00  0.00    +0.006 C 
ATOM     21  C   UNL     1      35.867 -20.395 -20.429  0.00  0.00    +0.006 C 
ATOM     22  C   UNL     1      33.992 -18.466 -21.167  0.00  0.00    +0.001 C 
ATOM     23  C   UNL     1      36.292 -19.168 -20.939  0.00  0.00    +0.001 C 
ATOM     24  C   UNL     1      35.354 -18.203 -21.308  0.00  0.00    +0.000 C 
ENDBRANCH  18  19
ENDBRANCH   6  18
TORSDOF 4
ENDMDL
MODEL 8
REMARK VINA RESULT:      -9.1      9.188     10.617
REMARK  Name = 3334
REMARK  4 active torsions:
REMARK  status: ('A' for Active; 'I' for Inactive)
REMARK    1  A    between atoms: N_4  and  C_9
REMARK    2  A    between atoms: C_8  and  S_18
REMARK    3  A    between atoms: C_12  and  O_16
REMARK    4  A    between atoms: S_18  and  C_19
REMARK                            x       y       z     vdW  Elec       q    Type
REMARK                         _______ _______ _______ _____ _____    ______ ____
ROOT
ATOM      1  N   UNL     1      31.255 -22.864 -17.244  0.00  0.00    -0.302 N 
ATOM      2  N   UNL     1      30.421 -23.484 -15.280  0.00  0.00    -0.302 N 
ATOM      3  C   UNL     1      32.342 -23.080 -16.436  0.00  0.00    +0.061 C 
ATOM      4  C   UNL     1      31.795 -23.467 -15.216  0.00  0.00    +0.060 C 
ATOM      5  C   UNL     1      33.715 -22.976 -16.662  0.00  0.00    +0.022 C 
ATOM      6  C   UNL     1      34.555 -23.282 -15.586  0.00  0.00    +0.031 C 
ATOM      7  C   UNL     1      30.132 -23.118 -16.508  0.00  0.00    +0.229 C 
ATOM      8  C   UNL     1      32.654 -23.770 -14.146  0.00  0.00    +0.016 C 
ATOM      9  C   UNL     1      34.036 -23.671 -14.349  0.00  0.00    +0.008 C 
ATOM     10  H   UNL     1      31.280 -22.577 -18.186  0.00  0.00    +0.150 HD
ATOM     11  H   UNL     1      29.791 -23.720 -14.561  0.00  0.00    +0.150 HD
ENDROOT
BRANCH   7  13
ATOM     12  O   UNL     1      27.674 -21.870 -15.393  0.00  0.00    -0.226 OA
ATOM     13  N   UNL     1      28.889 -22.980 -17.071  0.00  0.00    -0.240 N 
ATOM     14  C   UNL     1      27.764 -22.382 -16.501  0.00  0.00    +0.404 C 
ATOM     15  H   UNL     1      28.779 -23.341 -17.979  0.00  0.00    +0.156 HD
BRANCH  14  16
ATOM     16  O   UNL     1      26.720 -22.446 -17.386  0.00  0.00    -0.431 OA
ATOM     17  C   UNL     1      26.109 -21.197 -17.732  0.00  0.00    +0.257 C 
ENDBRANCH  14  16
ENDBRANCH   7  13
BRANCH   6  18
ATOM     18  S   UNL     1      36.325 -23.168 -15.801  0.00  0.00    -0.087 S 
BRANCH  18  19
ATOM     19  C   UNL     1      36.900 -24.275 -14.523  0.00  0.00    +0.029 C 
ATOM     20  C   UNL     1      36.853 -25.652 -14.727  0.00  0.00    +0.006 C 
ATOM     21  C   UNL     1      37.394 -23.758 -13.328  0.00  0.00    +0.006 C 
ATOM     22  C   UNL     1      37.302 -26.518 -13.729  0.00  0.00    +0.001 C 
ATOM     23  C   UNL     1      37.843 -24.624 -12.330  0.00  0.00    +0.001 C 
ATOM     24  C   UNL     1      37.797 -26.004 -12.531  0.00  0.00    +0.000 C 
ENDBRANCH  18  19
ENDBRANCH   6  18
TORSDOF 4
ENDMDL
MODEL 9
REMARK VINA RESULT:      -9.0      5.200      8.397
REMARK  Name = 3334
REMARK  4 active torsions:
REMARK  status: ('A' for Active; 'I' for Inactive)
REMARK    1  A    between atoms: N_4  and  C_9
REMARK    2  A    between atoms: C_8  and  S_18
REMARK    3  A    between atoms: C_12  and  O_16
REMARK    4  A    between atoms: S_18  and  C_19
REMARK                            x       y       z     vdW  Elec       q    Type
REMARK                         _______ _______ _______ _____ _____    ______ ____
ROOT
ATOM      1  N   UNL     1      36.506 -20.707 -19.311  0.00  0.00    -0.302 N 
ATOM      2  N   UNL     1      34.479 -21.605 -19.156  0.00  0.00    -0.302 N 
ATOM      3  C   UNL     1      35.739 -20.041 -20.232  0.00  0.00    +0.061 C 
ATOM      4  C   UNL     1      34.478 -20.619 -20.115  0.00  0.00    +0.060 C 
ATOM      5  C   UNL     1      36.031 -19.013 -21.129  0.00  0.00    +0.022 C 
ATOM      6  C   UNL     1      34.980 -18.565 -21.936  0.00  0.00    +0.031 C 
ATOM      7  C   UNL     1      35.709 -21.631 -18.695  0.00  0.00    +0.229 C 
ATOM      8  C   UNL     1      33.435 -20.157 -20.934  0.00  0.00    +0.016 C 
ATOM      9  C   UNL     1      33.704 -19.125 -21.842  0.00  0.00    +0.008 C 
ATOM     10  H   UNL     1      37.461 -20.549 -19.127  0.00  0.00    +0.150 HD
ATOM     11  H   UNL     1      33.722 -22.168 -18.875  0.00  0.00    +0.150 HD
ENDROOT
BRANCH   7  13
ATOM     12  O   UNL     1      37.646 -21.007 -16.527  0.00  0.00    -0.226 OA
ATOM     13  N   UNL     1      36.221 -22.447 -17.719  0.00  0.00    -0.240 N 
ATOM     14  C   UNL     1      37.133 -22.102 -16.720  0.00  0.00    +0.404 C 
ATOM     15  H   UNL     1      35.911 -23.381 -17.723  0.00  0.00    +0.156 HD
BRANCH  14  16
ATOM     16  O   UNL     1      37.393 -23.201 -15.944  0.00  0.00    -0.431 OA
ATOM     17  C   UNL     1      36.272 -23.763 -15.251  0.00  0.00    +0.257 C 
ENDBRANCH  14  16
ENDBRANCH   7  13
BRANCH   6  18
ATOM     18  S   UNL     1      35.280 -17.252 -23.110  0.00  0.00    -0.087 S 
BRANCH  18  19
ATOM     19  C   UNL     1      34.261 -15.949 -22.438  0.00  0.00    +0.029 C 
ATOM     20  C   UNL     1      34.186 -15.768 -21.059  0.00  0.00    +0.006 C 
ATOM     21  C   UNL     1      33.545 -15.116 -23.295  0.00  0.00    +0.006 C 
ATOM     22  C   UNL     1      33.390 -14.749 -20.534  0.00  0.00    +0.001 C 
ATOM     23  C   UNL     1      32.749 -14.098 -22.770  0.00  0.00    +0.001 C 
ATOM     24  C   UNL     1      32.671 -13.915 -21.389  0.00  0.00    +0.000 C 
ENDBRANCH  18  19
ENDBRANCH   6  18
TORSDOF 4
ENDMDL
