MODEL 1
REMARK VINA RESULT:     -11.1      0.000      0.000
REMARK  Name = 22049997
REMARK  5 active torsions:
REMARK  status: ('A' for Active; 'I' for Inactive)
REMARK    1  A    between atoms: N_3  and  C_10
REMARK    2  A    between atoms: C_7  and  O_22
REMARK    3  A    between atoms: C_13  and  C_19
REMARK    4  A    between atoms: O_22  and  C_23
REMARK    5  A    between atoms: C_23  and  C_26
REMARK                            x       y       z     vdW  Elec       q    Type
REMARK                         _______ _______ _______ _____ _____    ______ ____
ROOT
ATOM      1 BR   UNL     1      33.059 -22.111 -18.935  0.00  0.00    -0.041 Br
ATOM      2  O   UNL     1      32.845 -19.787 -20.863  0.00  0.00    -0.269 OA
ATOM      3  N   UNL     1      35.104 -19.245 -21.228  0.00  0.00    -0.237 N 
ATOM      4  C   UNL     1      36.447 -19.528 -20.914  0.00  0.00    +0.039 C 
ATOM      5  C   UNL     1      34.043 -20.000 -20.659  0.00  0.00    +0.265 C 
ATOM      6  C   UNL     1      36.749 -20.513 -20.050  0.00  0.00    +0.048 C 
ATOM      7  C   UNL     1      35.724 -21.297 -19.428  0.00  0.00    +0.151 C 
ATOM      8  C   UNL     1      34.428 -21.096 -19.705  0.00  0.00    +0.122 C 
ATOM      9  C   UNL     1      37.574 -18.821 -21.623  0.00  0.00    +0.048 C 
ENDROOT
BRANCH   3  10
ATOM     10  C   UNL     1      34.726 -18.176 -22.119  0.00  0.00    +0.054 C 
ATOM     11  C   UNL     1      34.751 -18.355 -23.502  0.00  0.00    -0.008 C 
ATOM     12  C   UNL     1      34.329 -16.952 -21.581  0.00  0.00    +0.019 C 
ATOM     13  C   UNL     1      33.959 -15.907 -22.426  0.00  0.00    +0.055 C 
ATOM     14  C   UNL     1      34.380 -17.310 -24.347  0.00  0.00    -0.003 C 
ATOM     15  C   UNL     1      33.984 -16.085 -23.810  0.00  0.00    +0.004 C 
ATOM     16  C   UNL     1      35.171 -19.656 -24.105  0.00  0.00    +0.032 C 
BRANCH  13  19
ATOM     17  O   UNL     1      33.971 -14.259 -20.758  0.00  0.00    -0.270 OA
ATOM     18  N   UNL     1      32.682 -13.845 -22.640  0.00  0.00    -0.299 N 
ATOM     19  C   UNL     1      33.547 -14.628 -21.866  0.00  0.00    +0.246 C 
ATOM     20  C   UNL     1      32.203 -12.543 -22.233  0.00  0.00    +0.111 C 
ATOM     21  H   UNL     1      32.385 -14.199 -23.509  0.00  0.00    +0.150 HD
ENDBRANCH  13  19
ENDBRANCH   3  10
BRANCH   7  22
ATOM     22  O   UNL     1      36.192 -22.262 -18.565  0.00  0.00    -0.470 OA
BRANCH  22  23
ATOM     23  C   UNL     1      36.731 -21.673 -17.396  0.00  0.00    +0.234 C 
BRANCH  23  26
ATOM     24  F   UNL     1      38.767 -23.135 -16.080  0.00  0.00    -0.204 F 
ATOM     25  F   UNL     1      35.722 -25.059 -13.013  0.00  0.00    -0.204 F 
ATOM     26  C   UNL     1      36.464 -22.575 -16.226  0.00  0.00    +0.049 C 
ATOM     27  C   UNL     1      37.514 -23.268 -15.623  0.00  0.00    +0.142 C 
ATOM     28  C   UNL     1      35.164 -22.722 -15.744  0.00  0.00    +0.004 C 
ATOM     29  C   UNL     1      37.263 -24.107 -14.538  0.00  0.00    +0.059 C 
ATOM     30  C   UNL     1      34.914 -23.560 -14.658  0.00  0.00    +0.030 C 
ATOM     31  C   UNL     1      35.963 -24.253 -14.055  0.00  0.00    +0.142 C 
ENDBRANCH  23  26
ENDBRANCH  22  23
ENDBRANCH   7  22
TORSDOF 5
ENDMDL
MODEL 2
REMARK VINA RESULT:     -10.3      4.883     10.011
REMARK  Name = 22049997
REMARK  5 active torsions:
REMARK  status: ('A' for Active; 'I' for Inactive)
REMARK    1  A    between atoms: N_3  and  C_10
REMARK    2  A    between atoms: C_7  and  O_22
REMARK    3  A    between atoms: C_13  and  C_19
REMARK    4  A    between atoms: O_22  and  C_23
REMARK    5  A    between atoms: C_23  and  C_26
REMARK                            x       y       z     vdW  Elec       q    Type
REMARK                         _______ _______ _______ _____ _____    ______ ____
ROOT
ATOM      1 BR   UNL     1      34.518 -13.892 -21.123  0.00  0.00    -0.041 Br
ATOM      2  O   UNL     1      35.186 -16.641 -20.048  0.00  0.00    -0.269 OA
ATOM      3  N   UNL     1      35.036 -17.972 -21.982  0.00  0.00    -0.237 N 
ATOM      4  C   UNL     1      34.753 -18.016 -23.360  0.00  0.00    +0.039 C 
ATOM      5  C   UNL     1      34.983 -16.749 -21.261  0.00  0.00    +0.265 C 
ATOM      6  C   UNL     1      34.407 -16.896 -24.018  0.00  0.00    +0.048 C 
ATOM      7  C   UNL     1      34.317 -15.635 -23.344  0.00  0.00    +0.151 C 
ATOM      8  C   UNL     1      34.600 -15.521 -22.039  0.00  0.00    +0.122 C 
ATOM      9  C   UNL     1      34.945 -19.285 -24.150  0.00  0.00    +0.048 C 
ENDROOT
BRANCH   3  10
ATOM     10  C   UNL     1      35.375 -19.151 -21.223  0.00  0.00    +0.054 C 
ATOM     11  C   UNL     1      36.701 -19.564 -21.098  0.00  0.00    -0.008 C 
ATOM     12  C   UNL     1      34.357 -19.880 -20.608  0.00  0.00    +0.019 C 
ATOM     13  C   UNL     1      34.665 -21.021 -19.870  0.00  0.00    +0.055 C 
ATOM     14  C   UNL     1      37.009 -20.705 -20.358  0.00  0.00    -0.003 C 
ATOM     15  C   UNL     1      35.991 -21.435 -19.744  0.00  0.00    +0.004 C 
ATOM     16  C   UNL     1      37.812 -18.802 -21.744  0.00  0.00    +0.032 C 
BRANCH  13  19
ATOM     17  O   UNL     1      32.450 -21.772 -19.694  0.00  0.00    -0.270 OA
ATOM     18  N   UNL     1      33.951 -22.531 -18.099  0.00  0.00    -0.299 N 
ATOM     19  C   UNL     1      33.603 -21.783 -19.230  0.00  0.00    +0.246 C 
ATOM     20  C   UNL     1      33.016 -23.357 -17.368  0.00  0.00    +0.111 C 
ATOM     21  H   UNL     1      34.883 -22.494 -17.785  0.00  0.00    +0.150 HD
ENDBRANCH  13  19
ENDBRANCH   3  10
BRANCH   7  22
ATOM     22  O   UNL     1      33.946 -14.585 -24.152  0.00  0.00    -0.470 OA
BRANCH  22  23
ATOM     23  C   UNL     1      32.765 -13.971 -23.670  0.00  0.00    +0.234 C 
BRANCH  23  26
ATOM     24  F   UNL     1      31.325 -12.255 -21.940  0.00  0.00    -0.204 F 
ATOM     25  F   UNL     1      33.512  -8.391 -23.577  0.00  0.00    -0.204 F 
ATOM     26  C   UNL     1      32.963 -12.483 -23.643  0.00  0.00    +0.049 C 
ATOM     27  C   UNL     1      32.220 -11.694 -22.765  0.00  0.00    +0.142 C 
ATOM     28  C   UNL     1      33.892 -11.890 -24.498  0.00  0.00    +0.004 C 
ATOM     29  C   UNL     1      32.405 -10.312 -22.743  0.00  0.00    +0.059 C 
ATOM     30  C   UNL     1      34.076 -10.508 -24.476  0.00  0.00    +0.030 C 
ATOM     31  C   UNL     1      33.334  -9.719 -23.598  0.00  0.00    +0.142 C 
ENDBRANCH  23  26
ENDBRANCH  22  23
ENDBRANCH   7  22
TORSDOF 5
ENDMDL
MODEL 3
REMARK VINA RESULT:     -10.2      3.394      5.415
REMARK  Name = 22049997
REMARK  5 active torsions:
REMARK  status: ('A' for Active; 'I' for Inactive)
REMARK    1  A    between atoms: N_3  and  C_10
REMARK    2  A    between atoms: C_7  and  O_22
REMARK    3  A    between atoms: C_13  and  C_19
REMARK    4  A    between atoms: O_22  and  C_23
REMARK    5  A    between atoms: C_23  and  C_26
REMARK                            x       y       z     vdW  Elec       q    Type
REMARK                         _______ _______ _______ _____ _____    ______ ____
ROOT
ATOM      1 BR   UNL     1      34.287 -18.246 -25.354  0.00  0.00    -0.041 Br
ATOM      2  O   UNL     1      33.337 -15.420 -24.831  0.00  0.00    -0.269 OA
ATOM      3  N   UNL     1      34.005 -15.084 -22.601  0.00  0.00    -0.237 N 
ATOM      4  C   UNL     1      34.613 -15.640 -21.459  0.00  0.00    +0.039 C 
ATOM      5  C   UNL     1      33.886 -15.830 -23.805  0.00  0.00    +0.265 C 
ATOM      6  C   UNL     1      35.079 -16.900 -21.483  0.00  0.00    +0.048 C 
ATOM      7  C   UNL     1      34.971 -17.710 -22.660  0.00  0.00    +0.151 C 
ATOM      8  C   UNL     1      34.427 -17.233 -23.788  0.00  0.00    +0.122 C 
ATOM      9  C   UNL     1      34.864 -14.803 -20.231  0.00  0.00    +0.048 C 
ENDROOT
BRANCH   3  10
ATOM     10  C   UNL     1      33.457 -13.750 -22.615  0.00  0.00    +0.054 C 
ATOM     11  C   UNL     1      32.380 -13.411 -21.797  0.00  0.00    -0.008 C 
ATOM     12  C   UNL     1      34.019 -12.793 -23.461  0.00  0.00    +0.019 C 
ATOM     13  C   UNL     1      33.503 -11.499 -23.488  0.00  0.00    +0.055 C 
ATOM     14  C   UNL     1      31.865 -12.115 -21.823  0.00  0.00    -0.003 C 
ATOM     15  C   UNL     1      32.426 -11.159 -22.669  0.00  0.00    +0.004 C 
ATOM     16  C   UNL     1      31.759 -14.415 -20.881  0.00  0.00    +0.032 C 
BRANCH  13  19
ATOM     17  O   UNL     1      33.822  -9.295 -24.225  0.00  0.00    -0.270 OA
ATOM     18  N   UNL     1      34.966 -10.964 -25.358  0.00  0.00    -0.299 N 
ATOM     19  C   UNL     1      34.088 -10.501 -24.371  0.00  0.00    +0.246 C 
ATOM     20  C   UNL     1      35.644 -10.095 -26.294  0.00  0.00    +0.111 C 
ATOM     21  H   UNL     1      35.132 -11.932 -25.417  0.00  0.00    +0.150 HD
ENDBRANCH  13  19
ENDBRANCH   3  10
BRANCH   7  22
ATOM     22  O   UNL     1      35.488 -18.979 -22.525  0.00  0.00    -0.470 OA
BRANCH  22  23
ATOM     23  C   UNL     1      36.042 -19.163 -21.236  0.00  0.00    +0.234 C 
BRANCH  23  26
ATOM     24  F   UNL     1      37.161 -21.310 -19.770  0.00  0.00    -0.204 F 
ATOM     25  F   UNL     1      32.916 -22.904 -18.421  0.00  0.00    -0.204 F 
ATOM     26  C   UNL     1      35.210 -20.161 -20.484  0.00  0.00    +0.049 C 
ATOM     27  C   UNL     1      35.826 -21.197 -19.781  0.00  0.00    +0.142 C 
ATOM     28  C   UNL     1      33.820 -20.052 -20.490  0.00  0.00    +0.004 C 
ATOM     29  C   UNL     1      35.050 -22.123 -19.084  0.00  0.00    +0.059 C 
ATOM     30  C   UNL     1      33.045 -20.978 -19.793  0.00  0.00    +0.030 C 
ATOM     31  C   UNL     1      33.660 -22.014 -19.090  0.00  0.00    +0.142 C 
ENDBRANCH  23  26
ENDBRANCH  22  23
ENDBRANCH   7  22
TORSDOF 5
ENDMDL
MODEL 4
REMARK VINA RESULT:     -10.1      1.918      2.809
REMARK  Name = 22049997
REMARK  5 active torsions:
REMARK  status: ('A' for Active; 'I' for Inactive)
REMARK    1  A    between atoms: N_3  and  C_10
REMARK    2  A    between atoms: C_7  and  O_22
REMARK    3  A    between atoms: C_13  and  C_19
REMARK    4  A    between atoms: O_22  and  C_23
REMARK    5  A    between atoms: C_23  and  C_26
REMARK                            x       y       z     vdW  Elec       q    Type
REMARK                         _______ _______ _______ _____ _____    ______ ____
ROOT
ATOM      1 BR   UNL     1      37.179 -21.658 -18.508  0.00  0.00    -0.041 Br
ATOM      2  O   UNL     1      36.745 -19.326 -20.387  0.00  0.00    -0.269 OA
ATOM      3  N   UNL     1      34.461 -19.534 -20.906  0.00  0.00    -0.237 N 
ATOM      4  C   UNL     1      33.278 -20.277 -20.729  0.00  0.00    +0.039 C 
ATOM      5  C   UNL     1      35.666 -19.909 -20.252  0.00  0.00    +0.265 C 
ATOM      6  C   UNL     1      33.273 -21.371 -19.948  0.00  0.00    +0.048 C 
ATOM      7  C   UNL     1      34.460 -21.811 -19.278  0.00  0.00    +0.151 C 
ATOM      8  C   UNL     1      35.612 -21.134 -19.383  0.00  0.00    +0.122 C 
ATOM      9  C   UNL     1      31.970 -19.801 -21.309  0.00  0.00    +0.048 C 
ENDROOT
BRANCH   3  10
ATOM     10  C   UNL     1      34.527 -18.376 -21.762  0.00  0.00    +0.054 C 
ATOM     11  C   UNL     1      34.934 -18.492 -23.091  0.00  0.00    -0.008 C 
ATOM     12  C   UNL     1      34.177 -17.128 -21.247  0.00  0.00    +0.019 C 
ATOM     13  C   UNL     1      34.234 -15.997 -22.059  0.00  0.00    +0.055 C 
ATOM     14  C   UNL     1      34.991 -17.360 -23.904  0.00  0.00    -0.003 C 
ATOM     15  C   UNL     1      34.641 -16.112 -23.388  0.00  0.00    +0.004 C 
ATOM     16  C   UNL     1      35.315 -19.815 -23.671  0.00  0.00    +0.032 C 
BRANCH  13  19
ATOM     17  O   UNL     1      34.595 -14.133 -20.682  0.00  0.00    -0.270 OA
ATOM     18  N   UNL     1      32.693 -14.113 -22.008  0.00  0.00    -0.299 N 
ATOM     19  C   UNL     1      33.870 -14.695 -21.521  0.00  0.00    +0.246 C 
ATOM     20  C   UNL     1      32.212 -12.816 -21.590  0.00  0.00    +0.111 C 
ATOM     21  H   UNL     1      32.166 -14.613 -22.672  0.00  0.00    +0.150 HD
ENDBRANCH  13  19
ENDBRANCH   3  10
BRANCH   7  22
ATOM     22  O   UNL     1      34.296 -22.949 -18.521  0.00  0.00    -0.470 OA
BRANCH  22  23
ATOM     23  C   UNL     1      33.147 -22.847 -17.701  0.00  0.00    +0.234 C 
BRANCH  23  26
ATOM     24  F   UNL     1      31.199 -23.362 -15.713  0.00  0.00    -0.204 F 
ATOM     25  F   UNL     1      34.460 -24.552 -12.498  0.00  0.00    -0.204 F 
ATOM     26  C   UNL     1      33.495 -23.303 -16.313  0.00  0.00    +0.049 C 
ATOM     27  C   UNL     1      32.485 -23.539 -15.380  0.00  0.00    +0.142 C 
ATOM     28  C   UNL     1      34.831 -23.489 -15.958  0.00  0.00    +0.004 C 
ATOM     29  C   UNL     1      32.812 -23.960 -14.092  0.00  0.00    +0.059 C 
ATOM     30  C   UNL     1      35.156 -23.910 -14.669  0.00  0.00    +0.030 C 
ATOM     31  C   UNL     1      34.147 -24.146 -13.736  0.00  0.00    +0.142 C 
ENDBRANCH  23  26
ENDBRANCH  22  23
ENDBRANCH   7  22
TORSDOF 5
ENDMDL
MODEL 5
REMARK VINA RESULT:     -10.1      7.277     12.989
REMARK  Name = 22049997
REMARK  5 active torsions:
REMARK  status: ('A' for Active; 'I' for Inactive)
REMARK    1  A    between atoms: N_3  and  C_10
REMARK    2  A    between atoms: C_7  and  O_22
REMARK    3  A    between atoms: C_13  and  C_19
REMARK    4  A    between atoms: O_22  and  C_23
REMARK    5  A    between atoms: C_23  and  C_26
REMARK                            x       y       z     vdW  Elec       q    Type
REMARK                         _______ _______ _______ _____ _____    ______ ____
ROOT
ATOM      1 BR   UNL     1      30.733 -10.830 -20.596  0.00  0.00    -0.041 Br
ATOM      2  O   UNL     1      31.843 -13.357 -21.837  0.00  0.00    -0.269 OA
ATOM      3  N   UNL     1      33.175 -12.503 -23.577  0.00  0.00    -0.237 N 
ATOM      4  C   UNL     1      33.624 -11.356 -24.260  0.00  0.00    +0.039 C 
ATOM      5  C   UNL     1      32.303 -12.396 -22.460  0.00  0.00    +0.265 C 
ATOM      6  C   UNL     1      33.219 -10.134 -23.874  0.00  0.00    +0.048 C 
ATOM      7  C   UNL     1      32.325  -9.962 -22.768  0.00  0.00    +0.151 C 
ATOM      8  C   UNL     1      31.881 -11.009 -22.060  0.00  0.00    +0.122 C 
ATOM      9  C   UNL     1      34.657 -11.461 -25.353  0.00  0.00    +0.048 C 
ENDROOT
BRANCH   3  10
ATOM     10  C   UNL     1      33.550 -13.837 -23.974  0.00  0.00    +0.054 C 
ATOM     11  C   UNL     1      33.243 -14.318 -25.247  0.00  0.00    -0.008 C 
ATOM     12  C   UNL     1      34.230 -14.650 -23.067  0.00  0.00    +0.019 C 
ATOM     13  C   UNL     1      34.602 -15.943 -23.433  0.00  0.00    +0.055 C 
ATOM     14  C   UNL     1      33.617 -15.611 -25.613  0.00  0.00    -0.003 C 
ATOM     15  C   UNL     1      34.296 -16.424 -24.705  0.00  0.00    +0.004 C 
ATOM     16  C   UNL     1      32.517 -13.469 -26.239  0.00  0.00    +0.032 C 
BRANCH  13  19
ATOM     17  O   UNL     1      35.150 -16.643 -21.262  0.00  0.00    -0.270 OA
ATOM     18  N   UNL     1      36.145 -17.780 -23.021  0.00  0.00    -0.299 N 
ATOM     19  C   UNL     1      35.310 -16.792 -22.486  0.00  0.00    +0.246 C 
ATOM     20  C   UNL     1      36.895 -18.715 -22.213  0.00  0.00    +0.111 C 
ATOM     21  H   UNL     1      36.226 -17.842 -24.000  0.00  0.00    +0.150 HD
ENDBRANCH  13  19
ENDBRANCH   3  10
BRANCH   7  22
ATOM     22  O   UNL     1      31.998  -8.651 -22.501  0.00  0.00    -0.470 OA
BRANCH  22  23
ATOM     23  C   UNL     1      33.106  -7.799 -22.729  0.00  0.00    +0.234 C 
BRANCH  23  26
ATOM     24  F   UNL     1      34.697  -6.978 -24.921  0.00  0.00    -0.204 F 
ATOM     25  F   UNL     1      31.565  -3.695 -26.260  0.00  0.00    -0.204 F 
ATOM     26  C   UNL     1      32.696  -6.706 -23.672  0.00  0.00    +0.049 C 
ATOM     27  C   UNL     1      33.528  -6.350 -24.734  0.00  0.00    +0.142 C 
ATOM     28  C   UNL     1      31.482  -6.045 -23.485  0.00  0.00    +0.004 C 
ATOM     29  C   UNL     1      33.146  -5.332 -25.607  0.00  0.00    +0.059 C 
ATOM     30  C   UNL     1      31.101  -5.028 -24.359  0.00  0.00    +0.030 C 
ATOM     31  C   UNL     1      31.932  -4.672 -25.420  0.00  0.00    +0.142 C 
ENDBRANCH  23  26
ENDBRANCH  22  23
ENDBRANCH   7  22
TORSDOF 5
ENDMDL
MODEL 6
REMARK VINA RESULT:     -10.1      5.371     10.428
REMARK  Name = 22049997
REMARK  5 active torsions:
REMARK  status: ('A' for Active; 'I' for Inactive)
REMARK    1  A    between atoms: N_3  and  C_10
REMARK    2  A    between atoms: C_7  and  O_22
REMARK    3  A    between atoms: C_13  and  C_19
REMARK    4  A    between atoms: O_22  and  C_23
REMARK    5  A    between atoms: C_23  and  C_26
REMARK                            x       y       z     vdW  Elec       q    Type
REMARK                         _______ _______ _______ _____ _____    ______ ____
ROOT
ATOM      1 BR   UNL     1      33.414 -16.003 -26.204  0.00  0.00    -0.041 Br
ATOM      2  O   UNL     1      34.294 -18.201 -24.319  0.00  0.00    -0.269 OA
ATOM      3  N   UNL     1      34.608 -17.024 -22.307  0.00  0.00    -0.237 N 
ATOM      4  C   UNL     1      34.580 -15.774 -21.659  0.00  0.00    +0.039 C 
ATOM      5  C   UNL     1      34.260 -17.147 -23.680  0.00  0.00    +0.265 C 
ATOM      6  C   UNL     1      34.239 -14.665 -22.337  0.00  0.00    +0.048 C 
ATOM      7  C   UNL     1      33.896 -14.720 -23.727  0.00  0.00    +0.151 C 
ATOM      8  C   UNL     1      33.877 -15.881 -24.396  0.00  0.00    +0.122 C 
ATOM      9  C   UNL     1      34.813 -15.667 -20.174  0.00  0.00    +0.048 C 
ENDROOT
BRANCH   3  10
ATOM     10  C   UNL     1      35.004 -18.237 -21.634  0.00  0.00    +0.054 C 
ATOM     11  C   UNL     1      36.324 -18.684 -21.683  0.00  0.00    -0.008 C 
ATOM     12  C   UNL     1      34.047 -18.965 -20.926  0.00  0.00    +0.019 C 
ATOM     13  C   UNL     1      34.410 -20.139 -20.269  0.00  0.00    +0.055 C 
ATOM     14  C   UNL     1      36.688 -19.858 -21.024  0.00  0.00    -0.003 C 
ATOM     15  C   UNL     1      35.731 -20.586 -20.317  0.00  0.00    +0.004 C 
ATOM     16  C   UNL     1      37.370 -17.924 -22.433  0.00  0.00    +0.032 C 
BRANCH  13  19
ATOM     17  O   UNL     1      32.216 -20.564 -19.560  0.00  0.00    -0.270 OA
ATOM     18  N   UNL     1      33.863 -22.020 -18.824  0.00  0.00    -0.299 N 
ATOM     19  C   UNL     1      33.412 -20.899 -19.532  0.00  0.00    +0.246 C 
ATOM     20  C   UNL     1      32.992 -22.888 -18.065  0.00  0.00    +0.111 C 
ATOM     21  H   UNL     1      34.824 -22.228 -18.845  0.00  0.00    +0.150 HD
ENDBRANCH  13  19
ENDBRANCH   3  10
BRANCH   7  22
ATOM     22  O   UNL     1      33.576 -13.501 -24.281  0.00  0.00    -0.470 OA
BRANCH  22  23
ATOM     23  C   UNL     1      32.962 -12.658 -23.324  0.00  0.00    +0.234 C 
BRANCH  23  26
ATOM     24  F   UNL     1      31.730 -10.413 -22.119  0.00  0.00    -0.204 F 
ATOM     25  F   UNL     1      34.777  -7.386 -24.104  0.00  0.00    -0.204 F 
ATOM     26  C   UNL     1      33.445 -11.252 -23.530  0.00  0.00    +0.049 C 
ATOM     27  C   UNL     1      32.791 -10.189 -22.906  0.00  0.00    +0.142 C 
ATOM     28  C   UNL     1      34.549 -11.009 -24.347  0.00  0.00    +0.004 C 
ATOM     29  C   UNL     1      33.242  -8.884 -23.100  0.00  0.00    +0.059 C 
ATOM     30  C   UNL     1      34.998  -9.703 -24.541  0.00  0.00    +0.030 C 
ATOM     31  C   UNL     1      34.345  -8.641 -23.917  0.00  0.00    +0.142 C 
ENDBRANCH  23  26
ENDBRANCH  22  23
ENDBRANCH   7  22
TORSDOF 5
ENDMDL
MODEL 7
REMARK VINA RESULT:      -9.6      3.180      5.192
REMARK  Name = 22049997
REMARK  5 active torsions:
REMARK  status: ('A' for Active; 'I' for Inactive)
REMARK    1  A    between atoms: N_3  and  C_10
REMARK    2  A    between atoms: C_7  and  O_22
REMARK    3  A    between atoms: C_13  and  C_19
REMARK    4  A    between atoms: O_22  and  C_23
REMARK    5  A    between atoms: C_23  and  C_26
REMARK                            x       y       z     vdW  Elec       q    Type
REMARK                         _______ _______ _______ _____ _____    ______ ____
ROOT
ATOM      1 BR   UNL     1      36.087 -18.654 -23.157  0.00  0.00    -0.041 Br
ATOM      2  O   UNL     1      35.418 -16.178 -24.765  0.00  0.00    -0.269 OA
ATOM      3  N   UNL     1      33.879 -15.084 -23.363  0.00  0.00    -0.237 N 
ATOM      4  C   UNL     1      33.159 -15.120 -22.154  0.00  0.00    +0.039 C 
ATOM      5  C   UNL     1      34.781 -16.127 -23.710  0.00  0.00    +0.265 C 
ATOM      6  C   UNL     1      33.299 -16.156 -21.310  0.00  0.00    +0.048 C 
ATOM      7  C   UNL     1      34.177 -17.247 -21.612  0.00  0.00    +0.151 C 
ATOM      8  C   UNL     1      34.911 -17.262 -22.733  0.00  0.00    +0.122 C 
ATOM      9  C   UNL     1      32.312 -13.950 -21.722  0.00  0.00    +0.048 C 
ENDROOT
BRANCH   3  10
ATOM     10  C   UNL     1      33.736 -14.014 -24.319  0.00  0.00    +0.054 C 
ATOM     11  C   UNL     1      33.237 -14.260 -25.598  0.00  0.00    -0.008 C 
ATOM     12  C   UNL     1      34.103 -12.720 -23.950  0.00  0.00    +0.019 C 
ATOM     13  C   UNL     1      33.971 -11.672 -24.860  0.00  0.00    +0.055 C 
ATOM     14  C   UNL     1      33.105 -13.211 -26.508  0.00  0.00    -0.003 C 
ATOM     15  C   UNL     1      33.472 -11.917 -26.139  0.00  0.00    +0.004 C 
ATOM     16  C   UNL     1      32.836 -15.636 -26.020  0.00  0.00    +0.032 C 
BRANCH  13  19
ATOM     17  O   UNL     1      35.386  -9.803 -24.936  0.00  0.00    -0.270 OA
ATOM     18  N   UNL     1      33.502  -9.646 -23.595  0.00  0.00    -0.299 N 
ATOM     19  C   UNL     1      34.355 -10.322 -24.475  0.00  0.00    +0.246 C 
ATOM     20  C   UNL     1      33.733  -8.293 -23.139  0.00  0.00    +0.111 C 
ATOM     21  H   UNL     1      32.702 -10.116 -23.268  0.00  0.00    +0.150 HD
ENDBRANCH  13  19
ENDBRANCH   3  10
BRANCH   7  22
ATOM     22  O   UNL     1      34.207 -18.235 -20.653  0.00  0.00    -0.470 OA
BRANCH  22  23
ATOM     23  C   UNL     1      33.837 -19.485 -21.204  0.00  0.00    +0.234 C 
BRANCH  23  26
ATOM     24  F   UNL     1      36.360 -20.448 -20.355  0.00  0.00    -0.204 F 
ATOM     25  F   UNL     1      34.425 -23.475 -17.277  0.00  0.00    -0.204 F 
ATOM     26  C   UNL     1      33.996 -20.548 -20.157  0.00  0.00    +0.049 C 
ATOM     27  C   UNL     1      35.270 -20.978 -19.784  0.00  0.00    +0.142 C 
ATOM     28  C   UNL     1      32.868 -21.106 -19.557  0.00  0.00    +0.004 C 
ATOM     29  C   UNL     1      35.414 -21.967 -18.811  0.00  0.00    +0.059 C 
ATOM     30  C   UNL     1      33.013 -22.095 -18.584  0.00  0.00    +0.030 C 
ATOM     31  C   UNL     1      34.285 -22.525 -18.211  0.00  0.00    +0.142 C 
ENDBRANCH  23  26
ENDBRANCH  22  23
ENDBRANCH   7  22
TORSDOF 5
ENDMDL
MODEL 8
REMARK VINA RESULT:      -9.6      1.894      2.598
REMARK  Name = 22049997
REMARK  5 active torsions:
REMARK  status: ('A' for Active; 'I' for Inactive)
REMARK    1  A    between atoms: N_3  and  C_10
REMARK    2  A    between atoms: C_7  and  O_22
REMARK    3  A    between atoms: C_13  and  C_19
REMARK    4  A    between atoms: O_22  and  C_23
REMARK    5  A    between atoms: C_23  and  C_26
REMARK                            x       y       z     vdW  Elec       q    Type
REMARK                         _______ _______ _______ _____ _____    ______ ____
ROOT
ATOM      1 BR   UNL     1      32.599 -21.103 -19.555  0.00  0.00    -0.041 Br
ATOM      2  O   UNL     1      32.555 -18.391 -20.899  0.00  0.00    -0.269 OA
ATOM      3  N   UNL     1      34.799 -18.133 -21.555  0.00  0.00    -0.237 N 
ATOM      4  C   UNL     1      36.094 -18.685 -21.557  0.00  0.00    +0.039 C 
ATOM      5  C   UNL     1      33.707 -18.827 -20.966  0.00  0.00    +0.265 C 
ATOM      6  C   UNL     1      36.325 -19.877 -20.981  0.00  0.00    +0.048 C 
ATOM      7  C   UNL     1      35.270 -20.617 -20.354  0.00  0.00    +0.151 C 
ATOM      8  C   UNL     1      34.011 -20.161 -20.341  0.00  0.00    +0.122 C 
ATOM      9  C   UNL     1      37.220 -18.015 -22.302  0.00  0.00    +0.048 C 
ENDROOT
BRANCH   3  10
ATOM     10  C   UNL     1      34.506 -16.842 -22.126  0.00  0.00    +0.054 C 
ATOM     11  C   UNL     1      34.505 -15.694 -21.333  0.00  0.00    -0.008 C 
ATOM     12  C   UNL     1      34.224 -16.749 -23.489  0.00  0.00    +0.019 C 
ATOM     13  C   UNL     1      33.940 -15.509 -24.058  0.00  0.00    +0.055 C 
ATOM     14  C   UNL     1      34.221 -14.453 -21.904  0.00  0.00    -0.003 C 
ATOM     15  C   UNL     1      33.938 -14.360 -23.267  0.00  0.00    +0.004 C 
ATOM     16  C   UNL     1      34.804 -15.764 -19.871  0.00  0.00    +0.032 C 
BRANCH  13  19
ATOM     17  O   UNL     1      33.707 -16.417 -26.208  0.00  0.00    -0.270 OA
ATOM     18  N   UNL     1      33.267 -14.153 -25.965  0.00  0.00    -0.299 N 
ATOM     19  C   UNL     1      33.643 -15.412 -25.480  0.00  0.00    +0.246 C 
ATOM     20  C   UNL     1      32.919 -13.901 -27.345  0.00  0.00    +0.111 C 
ATOM     21  H   UNL     1      33.238 -13.400 -25.333  0.00  0.00    +0.150 HD
ENDBRANCH  13  19
ENDBRANCH   3  10
BRANCH   7  22
ATOM     22  O   UNL     1      35.667 -21.816 -19.805  0.00  0.00    -0.470 OA
BRANCH  22  23
ATOM     23  C   UNL     1      36.533 -21.605 -18.706  0.00  0.00    +0.234 C 
BRANCH  23  26
ATOM     24  F   UNL     1      37.860 -21.693 -16.207  0.00  0.00    -0.204 F 
ATOM     25  F   UNL     1      34.243 -23.905 -14.106  0.00  0.00    -0.204 F 
ATOM     26  C   UNL     1      35.924 -22.217 -17.478  0.00  0.00    +0.049 C 
ATOM     27  C   UNL     1      36.633 -22.228 -16.277  0.00  0.00    +0.142 C 
ATOM     28  C   UNL     1      34.648 -22.776 -17.541  0.00  0.00    +0.004 C 
ATOM     29  C   UNL     1      36.065 -22.798 -15.138  0.00  0.00    +0.059 C 
ATOM     30  C   UNL     1      34.081 -23.346 -16.402  0.00  0.00    +0.030 C 
ATOM     31  C   UNL     1      34.789 -23.357 -15.200  0.00  0.00    +0.142 C 
ENDBRANCH  23  26
ENDBRANCH  22  23
ENDBRANCH   7  22
TORSDOF 5
ENDMDL
MODEL 9
REMARK VINA RESULT:      -9.5      7.693     13.643
REMARK  Name = 22049997
REMARK  5 active torsions:
REMARK  status: ('A' for Active; 'I' for Inactive)
REMARK    1  A    between atoms: N_3  and  C_10
REMARK    2  A    between atoms: C_7  and  O_22
REMARK    3  A    between atoms: C_13  and  C_19
REMARK    4  A    between atoms: O_22  and  C_23
REMARK    5  A    between atoms: C_23  and  C_26
REMARK                            x       y       z     vdW  Elec       q    Type
REMARK                         _______ _______ _______ _____ _____    ______ ____
ROOT
ATOM      1 BR   UNL     1      34.713  -8.156 -24.441  0.00  0.00    -0.041 Br
ATOM      2  O   UNL     1      34.933 -11.162 -24.719  0.00  0.00    -0.269 OA
ATOM      3  N   UNL     1      33.201 -11.912 -23.316  0.00  0.00    -0.237 N 
ATOM      4  C   UNL     1      32.171 -11.554 -22.426  0.00  0.00    +0.039 C 
ATOM      5  C   UNL     1      33.995 -10.921 -23.955  0.00  0.00    +0.265 C 
ATOM      6  C   UNL     1      31.932 -10.261 -22.148  0.00  0.00    +0.048 C 
ATOM      7  C   UNL     1      32.711  -9.217 -22.744  0.00  0.00    +0.151 C 
ATOM      8  C   UNL     1      33.687  -9.488 -23.621  0.00  0.00    +0.122 C 
ATOM      9  C   UNL     1      31.241 -12.596 -21.858  0.00  0.00    +0.048 C 
ENDROOT
BRANCH   3  10
ATOM     10  C   UNL     1      33.522 -13.285 -23.618  0.00  0.00    +0.054 C 
ATOM     11  C   UNL     1      33.292 -13.810 -24.890  0.00  0.00    -0.008 C 
ATOM     12  C   UNL     1      34.070 -14.091 -22.620  0.00  0.00    +0.019 C 
ATOM     13  C   UNL     1      34.387 -15.420 -22.893  0.00  0.00    +0.055 C 
ATOM     14  C   UNL     1      33.611 -15.140 -25.164  0.00  0.00    -0.003 C 
ATOM     15  C   UNL     1      34.158 -15.946 -24.165  0.00  0.00    +0.004 C 
ATOM     16  C   UNL     1      32.708 -12.970 -25.979  0.00  0.00    +0.032 C 
BRANCH  13  19
ATOM     17  O   UNL     1      34.965 -15.882 -20.668  0.00  0.00    -0.270 OA
ATOM     18  N   UNL     1      35.465 -17.505 -22.247  0.00  0.00    -0.299 N 
ATOM     19  C   UNL     1      34.957 -16.261 -21.852  0.00  0.00    +0.246 C 
ATOM     20  C   UNL     1      36.040 -18.461 -21.328  0.00  0.00    +0.111 C 
ATOM     21  H   UNL     1      35.427 -17.741 -23.201  0.00  0.00    +0.150 HD
ENDBRANCH  13  19
ENDBRANCH   3  10
BRANCH   7  22
ATOM     22  O   UNL     1      32.348  -7.946 -22.356  0.00  0.00    -0.470 OA
BRANCH  22  23
ATOM     23  C   UNL     1      31.167  -7.535 -23.017  0.00  0.00    +0.234 C 
BRANCH  23  26
ATOM     24  F   UNL     1      30.686  -5.333 -21.304  0.00  0.00    -0.204 F 
ATOM     25  F   UNL     1      31.753  -2.185 -24.671  0.00  0.00    -0.204 F 
ATOM     26  C   UNL     1      31.323  -6.108 -23.456  0.00  0.00    +0.049 C 
ATOM     27  C   UNL     1      31.070  -5.068 -22.560  0.00  0.00    +0.142 C 
ATOM     28  C   UNL     1      31.722  -5.822 -24.761  0.00  0.00    +0.004 C 
ATOM     29  C   UNL     1      31.215  -3.744 -22.971  0.00  0.00    +0.059 C 
ATOM     30  C   UNL     1      31.867  -4.497 -25.171  0.00  0.00    +0.030 C 
ATOM     31  C   UNL     1      31.613  -3.458 -24.277  0.00  0.00    +0.142 C 
ENDBRANCH  23  26
ENDBRANCH  22  23
ENDBRANCH   7  22
TORSDOF 5
ENDMDL
