MODEL 1
REMARK VINA RESULT:     -13.1      0.000      0.000
REMARK  Name = 10138993
REMARK  4 active torsions:
REMARK  status: ('A' for Active; 'I' for Inactive)
REMARK    1  A    between atoms: C_5  and  N_18
REMARK    2  A    between atoms: C_12  and  C_22
REMARK    3  A    between atoms: C_22  and  C_26
REMARK    4  A    between atoms: C_23  and  N_29
REMARK                            x       y       z     vdW  Elec       q    Type
REMARK                         _______ _______ _______ _____ _____    ______ ____
ROOT
ATOM      1  O   UNL     1      33.238 -21.070 -20.503  0.00  0.00    -0.274 OA
ATOM      2  N   UNL     1      32.259 -23.282 -17.065  0.00  0.00    -0.275 N 
ATOM      3  N   UNL     1      34.737 -21.631 -18.784  0.00  0.00    -0.268 N 
ATOM      4  N   UNL     1      32.644 -22.570 -18.137  0.00  0.00    -0.157 NA
ATOM      5  C   UNL     1      35.633 -23.652 -14.768  0.00  0.00    +0.069 C 
ATOM      6  C   UNL     1      35.602 -22.969 -15.990  0.00  0.00    +0.020 C 
ATOM      7  C   UNL     1      34.483 -24.257 -14.254  0.00  0.00    +0.018 C 
ATOM      8  C   UNL     1      34.387 -22.906 -16.694  0.00  0.00    +0.052 A 
ATOM      9  C   UNL     1      33.259 -23.518 -16.160  0.00  0.00    +0.077 A 
ATOM     10  C   UNL     1      33.267 -24.203 -14.943  0.00  0.00    +0.020 C 
ATOM     11  C   UNL     1      33.929 -22.353 -17.897  0.00  0.00    +0.155 A 
ATOM     12  C   UNL     1      34.352 -21.054 -19.991  0.00  0.00    +0.232 C 
ATOM     13  H   UNL     1      31.338 -23.607 -16.941  0.00  0.00    +0.189 HD
ATOM     14  H   UNL     1      35.680 -21.518 -18.526  0.00  0.00    +0.156 HD
ENDROOT
BRANCH   5  18
ATOM     15  S   UNL     1      38.140 -24.760 -14.632  0.00  0.00    +0.057 S 
ATOM     16  O   UNL     1      37.584 -26.002 -15.132  0.00  0.00    -0.154 OA
ATOM     17  O   UNL     1      39.075 -23.969 -15.404  0.00  0.00    -0.154 OA
ATOM     18  N   UNL     1      36.877 -23.729 -14.023  0.00  0.00    -0.194 N 
ATOM     19  C   UNL     1      38.838 -25.079 -13.019  0.00  0.00    +0.174 C 
ATOM     20  C   UNL     1      38.329 -23.954 -12.135  0.00  0.00    +0.051 C 
ATOM     21  C   UNL     1      36.871 -23.731 -12.533  0.00  0.00    +0.117 C 
ENDBRANCH   5  18
BRANCH  12  22
ATOM     22  C   UNL     1      35.532 -20.352 -20.658  0.00  0.00    +0.112 C 
BRANCH  22  26
ATOM     23  C   UNL     1      34.408 -17.015 -23.138  0.00  0.00    +0.048 C 
ATOM     24  C   UNL     1      34.571 -18.301 -23.687  0.00  0.00    +0.014 C 
ATOM     25  C   UNL     1      34.622 -16.850 -21.756  0.00  0.00    +0.014 C 
ATOM     26  C   UNL     1      35.143 -19.196 -21.516  0.00  0.00    -0.013 C 
ATOM     27  C   UNL     1      34.936 -19.382 -22.884  0.00  0.00    -0.003 C 
ATOM     28  C   UNL     1      34.986 -17.930 -20.953  0.00  0.00    -0.003 C 
BRANCH  23  29
ATOM     29  N   UNL     1      34.041 -15.929 -23.945  0.00  0.00    -0.307 N 
ATOM     30  C   UNL     1      33.413 -13.710 -25.680  0.00  0.00    +0.004 C 
ATOM     31  C   UNL     1      33.356 -13.574 -24.164  0.00  0.00    +0.021 C 
ATOM     32  C   UNL     1      33.116 -15.148 -26.090  0.00  0.00    +0.021 C 
ATOM     33  C   UNL     1      34.294 -14.563 -23.473  0.00  0.00    +0.091 C 
ATOM     34  C   UNL     1      34.059 -16.131 -25.401  0.00  0.00    +0.091 C 
ENDBRANCH  23  29
ENDBRANCH  22  26
ENDBRANCH  12  22
TORSDOF 4
ENDMDL
MODEL 2
REMARK VINA RESULT:     -12.1      1.738      2.169
REMARK  Name = 10138993
REMARK  4 active torsions:
REMARK  status: ('A' for Active; 'I' for Inactive)
REMARK    1  A    between atoms: C_5  and  N_18
REMARK    2  A    between atoms: C_12  and  C_22
REMARK    3  A    between atoms: C_22  and  C_26
REMARK    4  A    between atoms: C_23  and  N_29
REMARK                            x       y       z     vdW  Elec       q    Type
REMARK                         _______ _______ _______ _____ _____    ______ ____
ROOT
ATOM      1  O   UNL     1      32.697 -21.863 -19.361  0.00  0.00    -0.274 OA
ATOM      2  N   UNL     1      31.727 -23.659 -15.686  0.00  0.00    -0.275 N 
ATOM      3  N   UNL     1      34.254 -22.606 -17.767  0.00  0.00    -0.268 N 
ATOM      4  N   UNL     1      32.111 -23.092 -16.842  0.00  0.00    -0.157 NA
ATOM      5  C   UNL     1      35.215 -24.540 -13.723  0.00  0.00    +0.069 C 
ATOM      6  C   UNL     1      35.170 -23.932 -14.984  0.00  0.00    +0.020 C 
ATOM      7  C   UNL     1      34.040 -24.886 -13.052  0.00  0.00    +0.018 C 
ATOM      8  C   UNL     1      33.916 -23.676 -15.563  0.00  0.00    +0.052 A 
ATOM      9  C   UNL     1      32.763 -24.032 -14.873  0.00  0.00    +0.077 A 
ATOM     10  C   UNL     1      32.784 -24.639 -13.615  0.00  0.00    +0.020 C 
ATOM     11  C   UNL     1      33.433 -23.111 -16.751  0.00  0.00    +0.155 A 
ATOM     12  C   UNL     1      33.846 -22.032 -18.968  0.00  0.00    +0.232 C 
ATOM     13  H   UNL     1      30.782 -23.795 -15.446  0.00  0.00    +0.189 HD
ATOM     14  H   UNL     1      35.225 -22.661 -17.615  0.00  0.00    +0.156 HD
ENDROOT
BRANCH   5  18
ATOM     15  S   UNL     1      37.034 -23.773 -11.817  0.00  0.00    +0.057 S 
ATOM     16  O   UNL     1      36.719 -22.390 -12.117  0.00  0.00    -0.154 OA
ATOM     17  O   UNL     1      36.705 -24.379 -10.545  0.00  0.00    -0.154 OA
ATOM     18  N   UNL     1      36.501 -24.813 -13.106  0.00  0.00    -0.194 N 
ATOM     19  C   UNL     1      38.770 -24.027 -12.154  0.00  0.00    +0.174 C 
ATOM     20  C   UNL     1      38.836 -25.313 -12.960  0.00  0.00    +0.051 C 
ATOM     21  C   UNL     1      37.658 -25.263 -13.931  0.00  0.00    +0.117 C 
ENDBRANCH   5  18
BRANCH  12  22
ATOM     22  C   UNL     1      35.052 -21.605 -19.802  0.00  0.00    +0.112 C 
BRANCH  22  26
ATOM     23  C   UNL     1      34.558 -17.808 -21.774  0.00  0.00    +0.048 C 
ATOM     24  C   UNL     1      35.841 -18.312 -21.486  0.00  0.00    +0.014 C 
ATOM     25  C   UNL     1      33.442 -18.579 -21.401  0.00  0.00    +0.014 C 
ATOM     26  C   UNL     1      34.880 -20.290 -20.485  0.00  0.00    -0.013 C 
ATOM     27  C   UNL     1      36.001 -19.542 -20.847  0.00  0.00    -0.003 C 
ATOM     28  C   UNL     1      33.602 -19.809 -20.762  0.00  0.00    -0.003 C 
BRANCH  23  29
ATOM     29  N   UNL     1      34.398 -16.573 -22.417  0.00  0.00    -0.307 N 
ATOM     30  C   UNL     1      34.201 -14.048 -23.802  0.00  0.00    +0.004 C 
ATOM     31  C   UNL     1      33.968 -14.151 -22.300  0.00  0.00    +0.021 C 
ATOM     32  C   UNL     1      33.824 -15.359 -24.482  0.00  0.00    +0.021 C 
ATOM     33  C   UNL     1      34.716 -15.337 -21.692  0.00  0.00    +0.091 C 
ATOM     34  C   UNL     1      34.578 -16.540 -23.875  0.00  0.00    +0.091 C 
ENDBRANCH  23  29
ENDBRANCH  22  26
ENDBRANCH  12  22
TORSDOF 4
ENDMDL
MODEL 3
REMARK VINA RESULT:     -11.6      2.988      4.811
REMARK  Name = 10138993
REMARK  4 active torsions:
REMARK  status: ('A' for Active; 'I' for Inactive)
REMARK    1  A    between atoms: C_5  and  N_18
REMARK    2  A    between atoms: C_12  and  C_22
REMARK    3  A    between atoms: C_22  and  C_26
REMARK    4  A    between atoms: C_23  and  N_29
REMARK                            x       y       z     vdW  Elec       q    Type
REMARK                         _______ _______ _______ _____ _____    ______ ____
ROOT
ATOM      1  O   UNL     1      37.288 -21.371 -18.926  0.00  0.00    -0.274 OA
ATOM      2  N   UNL     1      36.200 -22.772 -15.115  0.00  0.00    -0.275 N 
ATOM      3  N   UNL     1      35.167 -22.196 -18.343  0.00  0.00    -0.268 N 
ATOM      4  N   UNL     1      36.477 -22.340 -16.357  0.00  0.00    -0.157 NA
ATOM      5  C   UNL     1      32.281 -23.962 -15.250  0.00  0.00    +0.069 C 
ATOM      6  C   UNL     1      32.968 -23.440 -16.353  0.00  0.00    +0.020 C 
ATOM      7  C   UNL     1      32.915 -24.109 -14.013  0.00  0.00    +0.018 C 
ATOM      8  C   UNL     1      34.312 -23.064 -16.191  0.00  0.00    +0.052 A 
ATOM      9  C   UNL     1      34.918 -23.220 -14.949  0.00  0.00    +0.077 A 
ATOM     10  C   UNL     1      34.252 -23.739 -13.836  0.00  0.00    +0.020 C 
ATOM     11  C   UNL     1      35.328 -22.523 -16.991  0.00  0.00    +0.155 A 
ATOM     12  C   UNL     1      36.126 -21.659 -19.197  0.00  0.00    +0.232 C 
ATOM     13  H   UNL     1      36.863 -22.766 -14.387  0.00  0.00    +0.189 HD
ATOM     14  H   UNL     1      34.279 -22.365 -18.733  0.00  0.00    +0.156 HD
ENDROOT
BRANCH   5  18
ATOM     15  S   UNL     1      29.709 -23.119 -15.702  0.00  0.00    +0.057 S 
ATOM     16  O   UNL     1      29.987 -21.942 -14.902  0.00  0.00    -0.154 OA
ATOM     17  O   UNL     1      29.456 -23.040 -17.125  0.00  0.00    -0.154 OA
ATOM     18  N   UNL     1      30.891 -24.358 -15.395  0.00  0.00    -0.194 N 
ATOM     19  C   UNL     1      28.375 -24.014 -14.920  0.00  0.00    +0.174 C 
ATOM     20  C   UNL     1      28.830 -25.463 -14.893  0.00  0.00    +0.051 C 
ATOM     21  C   UNL     1      30.315 -25.433 -14.538  0.00  0.00    +0.117 C 
ENDBRANCH   5  18
BRANCH  12  22
ATOM     22  C   UNL     1      35.552 -21.449 -20.596  0.00  0.00    +0.112 C 
BRANCH  22  26
ATOM     23  C   UNL     1      34.219 -17.425 -21.357  0.00  0.00    +0.048 C 
ATOM     24  C   UNL     1      33.302 -18.440 -21.025  0.00  0.00    +0.014 C 
ATOM     25  C   UNL     1      35.584 -17.761 -21.433  0.00  0.00    +0.014 C 
ATOM     26  C   UNL     1      35.091 -20.056 -20.860  0.00  0.00    -0.013 C 
ATOM     27  C   UNL     1      33.733 -19.744 -20.779  0.00  0.00    -0.003 C 
ATOM     28  C   UNL     1      36.016 -19.065 -21.186  0.00  0.00    -0.003 C 
BRANCH  23  29
ATOM     29  N   UNL     1      33.786 -16.116 -21.604  0.00  0.00    -0.307 N 
ATOM     30  C   UNL     1      32.756 -13.472 -22.132  0.00  0.00    +0.004 C 
ATOM     31  C   UNL     1      33.968 -14.015 -22.876  0.00  0.00    +0.021 C 
ATOM     32  C   UNL     1      32.669 -14.095 -20.743  0.00  0.00    +0.021 C 
ATOM     33  C   UNL     1      33.951 -15.542 -22.944  0.00  0.00    +0.091 C 
ATOM     34  C   UNL     1      32.647 -15.620 -20.817  0.00  0.00    +0.091 C 
ENDBRANCH  23  29
ENDBRANCH  22  26
ENDBRANCH  12  22
TORSDOF 4
ENDMDL
MODEL 4
REMARK VINA RESULT:     -10.9      8.083     14.767
REMARK  Name = 10138993
REMARK  4 active torsions:
REMARK  status: ('A' for Active; 'I' for Inactive)
REMARK    1  A    between atoms: C_5  and  N_18
REMARK    2  A    between atoms: C_12  and  C_22
REMARK    3  A    between atoms: C_22  and  C_26
REMARK    4  A    between atoms: C_23  and  N_29
REMARK                            x       y       z     vdW  Elec       q    Type
REMARK                         _______ _______ _______ _____ _____    ______ ____
ROOT
ATOM      1  O   UNL     1      31.855 -12.670 -20.487  0.00  0.00    -0.274 OA
ATOM      2  N   UNL     1      31.617  -8.592 -19.498  0.00  0.00    -0.275 N 
ATOM      3  N   UNL     1      32.293 -10.895 -21.961  0.00  0.00    -0.268 N 
ATOM      4  N   UNL     1      31.714  -9.874 -19.885  0.00  0.00    -0.157 NA
ATOM      5  C   UNL     1      32.582  -6.402 -22.825  0.00  0.00    +0.069 C 
ATOM      6  C   UNL     1      32.561  -7.802 -22.802  0.00  0.00    +0.020 C 
ATOM      7  C   UNL     1      32.265  -5.660 -21.685  0.00  0.00    +0.018 C 
ATOM      8  C   UNL     1      32.215  -8.449 -21.603  0.00  0.00    +0.052 A 
ATOM      9  C   UNL     1      31.906  -7.685 -20.483  0.00  0.00    +0.077 A 
ATOM     10  C   UNL     1      31.920  -6.289 -20.485  0.00  0.00    +0.020 C 
ATOM     11  C   UNL     1      32.075  -9.769 -21.156  0.00  0.00    +0.155 A 
ATOM     12  C   UNL     1      32.173 -12.230 -21.586  0.00  0.00    +0.232 C 
ATOM     13  H   UNL     1      31.363  -8.326 -18.585  0.00  0.00    +0.189 HD
ATOM     14  H   UNL     1      32.559 -10.723 -22.892  0.00  0.00    +0.156 HD
ENDROOT
BRANCH   5  18
ATOM     15  S   UNL     1      31.755  -4.662 -24.780  0.00  0.00    +0.057 S 
ATOM     16  O   UNL     1      30.434  -5.254 -24.705  0.00  0.00    -0.154 OA
ATOM     17  O   UNL     1      32.012  -3.297 -24.371  0.00  0.00    -0.154 OA
ATOM     18  N   UNL     1      32.936  -5.713 -24.054  0.00  0.00    -0.194 N 
ATOM     19  C   UNL     1      32.371  -4.899 -26.440  0.00  0.00    +0.174 C 
ATOM     20  C   UNL     1      33.790  -5.414 -26.269  0.00  0.00    +0.051 C 
ATOM     21  C   UNL     1      33.743  -6.399 -25.103  0.00  0.00    +0.117 C 
ENDBRANCH   5  18
BRANCH  12  22
ATOM     22  C   UNL     1      32.495 -13.154 -22.759  0.00  0.00    +0.112 C 
BRANCH  22  26
ATOM     23  C   UNL     1      34.149 -16.954 -21.586  0.00  0.00    +0.048 C 
ATOM     24  C   UNL     1      32.985 -16.452 -20.974  0.00  0.00    +0.014 C 
ATOM     25  C   UNL     1      34.757 -16.180 -22.593  0.00  0.00    +0.014 C 
ATOM     26  C   UNL     1      33.068 -14.470 -22.353  0.00  0.00    -0.013 C 
ATOM     27  C   UNL     1      32.449 -15.221 -21.353  0.00  0.00    -0.003 C 
ATOM     28  C   UNL     1      34.222 -14.949 -22.972  0.00  0.00    -0.003 C 
BRANCH  23  29
ATOM     29  N   UNL     1      34.687 -18.190 -21.206  0.00  0.00    -0.307 N 
ATOM     30  C   UNL     1      35.840 -20.756 -20.561  0.00  0.00    +0.004 C 
ATOM     31  C   UNL     1      34.395 -20.425 -20.211  0.00  0.00    +0.021 C 
ATOM     32  C   UNL     1      36.684 -19.487 -20.571  0.00  0.00    +0.021 C 
ATOM     33  C   UNL     1      33.815 -19.370 -21.152  0.00  0.00    +0.091 C 
ATOM     34  C   UNL     1      36.102 -18.438 -21.516  0.00  0.00    +0.091 C 
ENDBRANCH  23  29
ENDBRANCH  22  26
ENDBRANCH  12  22
TORSDOF 4
ENDMDL
MODEL 5
REMARK VINA RESULT:     -10.6      1.701      2.815
REMARK  Name = 10138993
REMARK  4 active torsions:
REMARK  status: ('A' for Active; 'I' for Inactive)
REMARK    1  A    between atoms: C_5  and  N_18
REMARK    2  A    between atoms: C_12  and  C_22
REMARK    3  A    between atoms: C_22  and  C_26
REMARK    4  A    between atoms: C_23  and  N_29
REMARK                            x       y       z     vdW  Elec       q    Type
REMARK                         _______ _______ _______ _____ _____    ______ ____
ROOT
ATOM      1  O   UNL     1      31.875 -22.463 -17.908  0.00  0.00    -0.274 OA
ATOM      2  N   UNL     1      32.711 -23.296 -13.873  0.00  0.00    -0.275 N 
ATOM      3  N   UNL     1      33.965 -23.135 -17.070  0.00  0.00    -0.268 N 
ATOM      4  N   UNL     1      32.517 -23.047 -15.179  0.00  0.00    -0.157 NA
ATOM      5  C   UNL     1      36.655 -24.366 -13.569  0.00  0.00    +0.069 C 
ATOM      6  C   UNL     1      36.039 -24.021 -14.778  0.00  0.00    +0.020 C 
ATOM      7  C   UNL     1      35.937 -24.361 -12.371  0.00  0.00    +0.018 C 
ATOM      8  C   UNL     1      34.679 -23.671 -14.764  0.00  0.00    +0.052 A 
ATOM      9  C   UNL     1      33.987 -23.676 -13.558  0.00  0.00    +0.077 A 
ATOM     10  C   UNL     1      34.581 -24.016 -12.340  0.00  0.00    +0.020 C 
ATOM     11  C   UNL     1      33.713 -23.278 -15.700  0.00  0.00    +0.155 A 
ATOM     12  C   UNL     1      33.059 -22.749 -18.055  0.00  0.00    +0.232 C 
ATOM     13  H   UNL     1      31.996 -23.215 -13.201  0.00  0.00    +0.189 HD
ATOM     14  H   UNL     1      34.882 -23.328 -17.370  0.00  0.00    +0.156 HD
ENDROOT
BRANCH   5  18
ATOM     15  S   UNL     1      38.791 -25.234 -15.058  0.00  0.00    +0.057 S 
ATOM     16  O   UNL     1      37.885 -26.086 -15.804  0.00  0.00    -0.154 OA
ATOM     17  O   UNL     1      39.463 -24.105 -15.666  0.00  0.00    -0.154 OA
ATOM     18  N   UNL     1      38.061 -24.731 -13.560  0.00  0.00    -0.194 N 
ATOM     19  C   UNL     1      40.004 -26.279 -14.267  0.00  0.00    +0.174 C 
ATOM     20  C   UNL     1      40.079 -25.788 -12.832  0.00  0.00    +0.051 C 
ATOM     21  C   UNL     1      38.642 -25.485 -12.414  0.00  0.00    +0.117 C 
ENDBRANCH   5  18
BRANCH  12  22
ATOM     22  C   UNL     1      33.730 -22.713 -19.426  0.00  0.00    +0.112 C 
BRANCH  22  26
ATOM     23  C   UNL     1      34.150 -18.751 -21.064  0.00  0.00    +0.048 C 
ATOM     24  C   UNL     1      35.282 -19.535 -20.765  0.00  0.00    +0.014 C 
ATOM     25  C   UNL     1      32.878 -19.299 -20.813  0.00  0.00    +0.014 C 
ATOM     26  C   UNL     1      33.875 -21.341 -19.993  0.00  0.00    -0.013 C 
ATOM     27  C   UNL     1      35.146 -20.818 -20.234  0.00  0.00    -0.003 C 
ATOM     28  C   UNL     1      32.742 -20.582 -20.282  0.00  0.00    -0.003 C 
BRANCH  23  29
ATOM     29  N   UNL     1      34.287 -17.463 -21.597  0.00  0.00    -0.307 N 
ATOM     30  C   UNL     1      34.421 -14.799 -22.699  0.00  0.00    +0.004 C 
ATOM     31  C   UNL     1      35.178 -15.960 -23.333  0.00  0.00    +0.021 C 
ATOM     32  C   UNL     1      34.261 -15.031 -21.201  0.00  0.00    +0.021 C 
ATOM     33  C   UNL     1      34.504 -17.300 -23.039  0.00  0.00    +0.091 C 
ATOM     34  C   UNL     1      33.583 -16.369 -20.914  0.00  0.00    +0.091 C 
ENDBRANCH  23  29
ENDBRANCH  22  26
ENDBRANCH  12  22
TORSDOF 4
ENDMDL
