MODEL 1
REMARK VINA RESULT:      -8.6      0.000      0.000
REMARK  Name = 7074810
REMARK  4 active torsions:
REMARK  status: ('A' for Active; 'I' for Inactive)
REMARK    1  A    between atoms: C_5  and  O_21
REMARK    2  A    between atoms: C_5  and  C_24
REMARK    3  A    between atoms: C_24  and  C_25
REMARK    4  A    between atoms: C_25  and  O_26
REMARK                            x       y       z     vdW  Elec       q    Type
REMARK                         _______ _______ _______ _____ _____    ______ ____
ROOT
ATOM      1  O   UNL     1      33.200 -19.047 -21.319  0.00  0.00    -0.291 OA
ATOM      2  C   UNL     1      35.681 -23.806 -14.864  0.00  0.00    +0.033 C 
ATOM      3  C   UNL     1      36.624 -22.846 -15.619  0.00  0.00    +0.007 C 
ATOM      4  C   UNL     1      36.301 -22.740 -17.119  0.00  0.00    +0.019 C 
ATOM      5  C   UNL     1      36.369 -23.825 -13.475  0.00  0.00    +0.142 C 
ATOM      6  C   UNL     1      38.024 -23.328 -15.238  0.00  0.00    +0.003 C 
ATOM      7  C   UNL     1      37.877 -23.866 -13.802  0.00  0.00    +0.034 C 
ATOM      8  C   UNL     1      34.791 -22.575 -17.364  0.00  0.00    -0.046 C 
ATOM      9  C   UNL     1      34.275 -23.187 -14.944  0.00  0.00    +0.028 C 
ATOM     10  C   UNL     1      34.356 -22.234 -18.819  0.00  0.00    +0.030 C 
ATOM     11  C   UNL     1      37.090 -21.578 -17.737  0.00  0.00    +0.008 C 
ATOM     12  C   UNL     1      35.653 -25.235 -15.479  0.00  0.00    +0.003 C 
ATOM     13  C   UNL     1      33.913 -22.769 -16.350  0.00  0.00    -0.034 C 
ATOM     14  C   UNL     1      36.798 -21.445 -19.223  0.00  0.00    +0.023 C 
ATOM     15  C   UNL     1      35.323 -21.234 -19.471  0.00  0.00    -0.039 C 
ATOM     16  C   UNL     1      32.912 -21.650 -18.864  0.00  0.00    +0.016 C 
ATOM     17  C   UNL     1      34.388 -23.549 -19.633  0.00  0.00    +0.008 C 
ATOM     18  C   UNL     1      32.525 -21.056 -20.210  0.00  0.00    +0.070 C 
ATOM     19  C   UNL     1      34.940 -20.210 -20.252  0.00  0.00    +0.029 C 
ATOM     20  C   UNL     1      33.522 -20.011 -20.627  0.00  0.00    +0.173 C 
ENDROOT
BRANCH   5  21
ATOM     21  O   UNL     1      36.123 -22.639 -12.723  0.00  0.00    -0.380 OA
ATOM     22  H   UNL     1      35.306 -22.744 -12.211  0.00  0.00    +0.211 HD
ENDBRANCH   5  21
BRANCH   5  24
ATOM     23  O   UNL     1      34.832 -24.990 -12.077  0.00  0.00    -0.291 OA
ATOM     24  C   UNL     1      35.959 -24.945 -12.568  0.00  0.00    +0.204 C 
BRANCH  24  25
ATOM     25  C   UNL     1      37.007 -26.003 -12.294  0.00  0.00    +0.204 C 
BRANCH  25  26
ATOM     26  O   UNL     1      36.791 -27.139 -13.104  0.00  0.00    -0.375 OA
ATOM     27  H   UNL     1      37.119 -27.929 -12.646  0.00  0.00    +0.211 HD
ENDBRANCH  25  26
ENDBRANCH  24  25
ENDBRANCH   5  24
TORSDOF 4
ENDMDL
MODEL 2
REMARK VINA RESULT:      -8.0      3.387      5.197
REMARK  Name = 7074810
REMARK  4 active torsions:
REMARK  status: ('A' for Active; 'I' for Inactive)
REMARK    1  A    between atoms: C_5  and  O_21
REMARK    2  A    between atoms: C_5  and  C_24
REMARK    3  A    between atoms: C_24  and  C_25
REMARK    4  A    between atoms: C_25  and  O_26
REMARK                            x       y       z     vdW  Elec       q    Type
REMARK                         _______ _______ _______ _____ _____    ______ ____
ROOT
ATOM      1  O   UNL     1      27.624 -24.148 -16.345  0.00  0.00    -0.291 OA
ATOM      2  C   UNL     1      35.909 -24.062 -14.998  0.00  0.00    +0.033 C 
ATOM      3  C   UNL     1      34.934 -24.966 -14.215  0.00  0.00    +0.007 C 
ATOM      4  C   UNL     1      33.562 -24.311 -13.980  0.00  0.00    +0.019 C 
ATOM      5  C   UNL     1      37.202 -24.912 -14.905  0.00  0.00    +0.142 C 
ATOM      6  C   UNL     1      35.730 -25.386 -12.980  0.00  0.00    +0.003 C 
ATOM      7  C   UNL     1      37.193 -25.453 -13.459  0.00  0.00    +0.034 C 
ATOM      8  C   UNL     1      33.026 -23.643 -15.257  0.00  0.00    -0.046 C 
ATOM      9  C   UNL     1      35.296 -23.867 -16.395  0.00  0.00    +0.028 C 
ATOM     10  C   UNL     1      31.554 -23.140 -15.212  0.00  0.00    +0.030 C 
ATOM     11  C   UNL     1      32.574 -25.358 -13.448  0.00  0.00    +0.008 C 
ATOM     12  C   UNL     1      36.119 -22.674 -14.327  0.00  0.00    +0.003 C 
ATOM     13  C   UNL     1      33.837 -23.478 -16.330  0.00  0.00    -0.034 C 
ATOM     14  C   UNL     1      31.206 -24.744 -13.199  0.00  0.00    +0.023 C 
ATOM     15  C   UNL     1      30.649 -24.128 -14.460  0.00  0.00    -0.039 C 
ATOM     16  C   UNL     1      30.981 -22.912 -16.644  0.00  0.00    +0.016 C 
ATOM     17  C   UNL     1      31.547 -21.792 -14.453  0.00  0.00    +0.008 C 
ATOM     18  C   UNL     1      29.479 -22.675 -16.680  0.00  0.00    +0.070 C 
ATOM     19  C   UNL     1      29.403 -24.454 -14.842  0.00  0.00    +0.029 C 
ATOM     20  C   UNL     1      28.754 -23.805 -16.003  0.00  0.00    +0.173 C 
ENDROOT
BRANCH   5  21
ATOM     21  O   UNL     1      37.187 -26.034 -15.784  0.00  0.00    -0.380 OA
ATOM     22  H   UNL     1      37.937 -26.614 -15.580  0.00  0.00    +0.211 HD
ENDBRANCH   5  21
BRANCH   5  24
ATOM     23  O   UNL     1      38.462 -23.071 -15.739  0.00  0.00    -0.291 OA
ATOM     24  C   UNL     1      38.474 -24.190 -15.227  0.00  0.00    +0.204 C 
BRANCH  24  25
ATOM     25  C   UNL     1      39.760 -24.914 -14.889  0.00  0.00    +0.204 C 
BRANCH  25  26
ATOM     26  O   UNL     1      40.206 -25.677 -15.989  0.00  0.00    -0.375 OA
ATOM     27  H   UNL     1      39.761 -25.372 -16.796  0.00  0.00    +0.211 HD
ENDBRANCH  25  26
ENDBRANCH  24  25
ENDBRANCH   5  24
TORSDOF 4
ENDMDL
MODEL 3
REMARK VINA RESULT:      -8.0      2.952      4.230
REMARK  Name = 7074810
REMARK  4 active torsions:
REMARK  status: ('A' for Active; 'I' for Inactive)
REMARK    1  A    between atoms: C_5  and  O_21
REMARK    2  A    between atoms: C_5  and  C_24
REMARK    3  A    between atoms: C_24  and  C_25
REMARK    4  A    between atoms: C_25  and  O_26
REMARK                            x       y       z     vdW  Elec       q    Type
REMARK                         _______ _______ _______ _____ _____    ______ ____
ROOT
ATOM      1  O   UNL     1      27.950 -21.896 -15.675  0.00  0.00    -0.291 OA
ATOM      2  C   UNL     1      35.826 -24.169 -13.865  0.00  0.00    +0.033 C 
ATOM      3  C   UNL     1      35.454 -23.305 -15.089  0.00  0.00    +0.007 C 
ATOM      4  C   UNL     1      34.091 -23.677 -15.697  0.00  0.00    +0.019 C 
ATOM      5  C   UNL     1      37.276 -23.681 -13.619  0.00  0.00    +0.142 C 
ATOM      6  C   UNL     1      36.678 -23.409 -15.998  0.00  0.00    +0.003 C 
ATOM      7  C   UNL     1      37.873 -23.546 -15.037  0.00  0.00    +0.034 C 
ATOM      8  C   UNL     1      33.015 -23.854 -14.613  0.00  0.00    -0.046 C 
ATOM      9  C   UNL     1      34.785 -23.853 -12.778  0.00  0.00    +0.028 C 
ATOM     10  C   UNL     1      31.548 -24.011 -15.108  0.00  0.00    +0.030 C 
ATOM     11  C   UNL     1      33.673 -22.612 -16.720  0.00  0.00    +0.008 C 
ATOM     12  C   UNL     1      35.807 -25.693 -14.172  0.00  0.00    +0.003 C 
ATOM     13  C   UNL     1      33.369 -23.911 -13.306  0.00  0.00    -0.034 C 
ATOM     14  C   UNL     1      32.330 -22.950 -17.346  0.00  0.00    +0.023 C 
ATOM     15  C   UNL     1      31.256 -23.077 -16.293  0.00  0.00    -0.039 C 
ATOM     16  C   UNL     1      30.524 -23.726 -13.969  0.00  0.00    +0.016 C 
ATOM     17  C   UNL     1      31.372 -25.473 -15.582  0.00  0.00    +0.008 C 
ATOM     18  C   UNL     1      29.084 -23.606 -14.445  0.00  0.00    +0.070 C 
ATOM     19  C   UNL     1      30.110 -22.394 -16.452  0.00  0.00    +0.029 C 
ATOM     20  C   UNL     1      28.973 -22.559 -15.519  0.00  0.00    +0.173 C 
ENDROOT
BRANCH   5  21
ATOM     21  O   UNL     1      37.328 -22.396 -13.006  0.00  0.00    -0.380 OA
ATOM     22  H   UNL     1      37.619 -22.489 -12.085  0.00  0.00    +0.211 HD
ENDBRANCH   5  21
BRANCH   5  24
ATOM     23  O   UNL     1      37.827 -24.734 -11.555  0.00  0.00    -0.291 OA
ATOM     24  C   UNL     1      38.112 -24.559 -12.739  0.00  0.00    +0.204 C 
BRANCH  24  25
ATOM     25  C   UNL     1      39.315 -25.209 -13.388  0.00  0.00    +0.204 C 
BRANCH  25  26
ATOM     26  O   UNL     1      39.016 -26.532 -13.779  0.00  0.00    -0.375 OA
ATOM     27  H   UNL     1      38.278 -26.524 -14.410  0.00  0.00    +0.211 HD
ENDBRANCH  25  26
ENDBRANCH  24  25
ENDBRANCH   5  24
TORSDOF 4
ENDMDL
MODEL 4
REMARK VINA RESULT:      -7.0      6.102     10.103
REMARK  Name = 7074810
REMARK  4 active torsions:
REMARK  status: ('A' for Active; 'I' for Inactive)
REMARK    1  A    between atoms: C_5  and  O_21
REMARK    2  A    between atoms: C_5  and  C_24
REMARK    3  A    between atoms: C_24  and  C_25
REMARK    4  A    between atoms: C_25  and  O_26
REMARK                            x       y       z     vdW  Elec       q    Type
REMARK                         _______ _______ _______ _____ _____    ______ ____
ROOT
ATOM      1  O   UNL     1      34.271  -9.813 -25.495  0.00  0.00    -0.291 OA
ATOM      2  C   UNL     1      34.665 -17.502 -22.150  0.00  0.00    +0.033 C 
ATOM      3  C   UNL     1      34.684 -17.239 -23.671  0.00  0.00    +0.007 C 
ATOM      4  C   UNL     1      33.822 -16.033 -24.084  0.00  0.00    +0.019 C 
ATOM      5  C   UNL     1      35.450 -18.838 -22.097  0.00  0.00    +0.142 C 
ATOM      6  C   UNL     1      34.332 -18.594 -24.284  0.00  0.00    +0.003 C 
ATOM      7  C   UNL     1      34.924 -19.632 -23.313  0.00  0.00    +0.034 C 
ATOM      8  C   UNL     1      34.057 -14.825 -23.161  0.00  0.00    -0.046 C 
ATOM      9  C   UNL     1      35.319 -16.277 -21.488  0.00  0.00    +0.028 C 
ATOM     10  C   UNL     1      33.416 -13.478 -23.604  0.00  0.00    +0.030 C 
ATOM     11  C   UNL     1      34.107 -15.672 -25.548  0.00  0.00    +0.008 C 
ATOM     12  C   UNL     1      33.228 -17.690 -21.586  0.00  0.00    +0.003 C 
ATOM     13  C   UNL     1      34.753 -14.976 -22.008  0.00  0.00    -0.034 C 
ATOM     14  C   UNL     1      33.268 -14.486 -25.993  0.00  0.00    +0.023 C 
ATOM     15  C   UNL     1      33.528 -13.279 -25.123  0.00  0.00    -0.039 C 
ATOM     16  C   UNL     1      34.074 -12.265 -22.880  0.00  0.00    +0.016 C 
ATOM     17  C   UNL     1      31.917 -13.531 -23.225  0.00  0.00    +0.008 C 
ATOM     18  C   UNL     1      33.679 -10.912 -23.454  0.00  0.00    +0.070 C 
ATOM     19  C   UNL     1      33.819 -12.107 -25.713  0.00  0.00    +0.029 C 
ATOM     20  C   UNL     1      33.974 -10.862 -24.928  0.00  0.00    +0.173 C 
ENDROOT
BRANCH   5  21
ATOM     21  O   UNL     1      36.853 -18.660 -22.272  0.00  0.00    -0.380 OA
ATOM     22  H   UNL     1      37.165 -17.953 -21.687  0.00  0.00    +0.211 HD
ENDBRANCH   5  21
BRANCH   5  24
ATOM     23  O   UNL     1      36.222 -19.628 -19.987  0.00  0.00    -0.291 OA
ATOM     24  C   UNL     1      35.318 -19.613 -20.821  0.00  0.00    +0.204 C 
BRANCH  24  25
ATOM     25  C   UNL     1      34.021 -20.368 -20.625  0.00  0.00    +0.204 C 
BRANCH  25  26
ATOM     26  O   UNL     1      34.134 -21.286 -19.559  0.00  0.00    -0.375 OA
ATOM     27  H   UNL     1      33.886 -22.172 -19.867  0.00  0.00    +0.211 HD
ENDBRANCH  25  26
ENDBRANCH  24  25
ENDBRANCH   5  24
TORSDOF 4
ENDMDL
MODEL 5
REMARK VINA RESULT:      -6.9      2.334      3.328
REMARK  Name = 7074810
REMARK  4 active torsions:
REMARK  status: ('A' for Active; 'I' for Inactive)
REMARK    1  A    between atoms: C_5  and  O_21
REMARK    2  A    between atoms: C_5  and  C_24
REMARK    3  A    between atoms: C_24  and  C_25
REMARK    4  A    between atoms: C_25  and  O_26
REMARK                            x       y       z     vdW  Elec       q    Type
REMARK                         _______ _______ _______ _____ _____    ______ ____
ROOT
ATOM      1  O   UNL     1      35.861 -18.604 -21.611  0.00  0.00    -0.291 OA
ATOM      2  C   UNL     1      32.782 -23.603 -15.611  0.00  0.00    +0.033 C 
ATOM      3  C   UNL     1      34.200 -22.995 -15.561  0.00  0.00    +0.007 C 
ATOM      4  C   UNL     1      34.847 -22.862 -16.950  0.00  0.00    +0.019 C 
ATOM      5  C   UNL     1      32.502 -23.763 -14.095  0.00  0.00    +0.142 C 
ATOM      6  C   UNL     1      34.931 -23.849 -14.527  0.00  0.00    +0.003 C 
ATOM      7  C   UNL     1      33.844 -24.260 -13.515  0.00  0.00    +0.034 C 
ATOM      8  C   UNL     1      33.868 -22.272 -17.979  0.00  0.00    -0.046 C 
ATOM      9  C   UNL     1      31.906 -22.603 -16.385  0.00  0.00    +0.028 C 
ATOM     10  C   UNL     1      34.466 -21.880 -19.361  0.00  0.00    +0.030 C 
ATOM     11  C   UNL     1      36.120 -22.011 -16.848  0.00  0.00    +0.008 C 
ATOM     12  C   UNL     1      32.741 -24.985 -16.324  0.00  0.00    +0.003 C 
ATOM     13  C   UNL     1      32.552 -22.156 -17.677  0.00  0.00    -0.034 C 
ATOM     14  C   UNL     1      36.791 -21.861 -18.204  0.00  0.00    +0.023 C 
ATOM     15  C   UNL     1      35.852 -21.237 -19.209  0.00  0.00    -0.039 C 
ATOM     16  C   UNL     1      33.531 -20.901 -20.134  0.00  0.00    +0.016 C 
ATOM     17  C   UNL     1      34.616 -23.180 -20.187  0.00  0.00    +0.008 C 
ATOM     18  C   UNL     1      34.169 -20.277 -21.367  0.00  0.00    +0.070 C 
ATOM     19  C   UNL     1      36.278 -20.180 -19.921  0.00  0.00    +0.029 C 
ATOM     20  C   UNL     1      35.455 -19.589 -20.999  0.00  0.00    +0.173 C 
ENDROOT
BRANCH   5  21
ATOM     21  O   UNL     1      32.189 -22.527 -13.459  0.00  0.00    -0.380 OA
ATOM     22  H   UNL     1      31.242 -22.503 -13.248  0.00  0.00    +0.211 HD
ENDBRANCH   5  21
BRANCH   5  24
ATOM     23  O   UNL     1      31.548 -25.697 -13.084  0.00  0.00    -0.291 OA
ATOM     24  C   UNL     1      31.366 -24.674 -13.742  0.00  0.00    +0.204 C 
BRANCH  24  25
ATOM     25  C   UNL     1      29.997 -24.263 -14.241  0.00  0.00    +0.204 C 
BRANCH  25  26
ATOM     26  O   UNL     1      29.120 -25.369 -14.258  0.00  0.00    -0.375 OA
ATOM     27  H   UNL     1      28.774 -25.521 -13.363  0.00  0.00    +0.211 HD
ENDBRANCH  25  26
ENDBRANCH  24  25
ENDBRANCH   5  24
TORSDOF 4
ENDMDL
MODEL 6
REMARK VINA RESULT:      -6.6      9.930     15.290
REMARK  Name = 7074810
REMARK  4 active torsions:
REMARK  status: ('A' for Active; 'I' for Inactive)
REMARK    1  A    between atoms: C_5  and  O_21
REMARK    2  A    between atoms: C_5  and  C_24
REMARK    3  A    between atoms: C_24  and  C_25
REMARK    4  A    between atoms: C_25  and  O_26
REMARK                            x       y       z     vdW  Elec       q    Type
REMARK                         _______ _______ _______ _____ _____    ______ ____
ROOT
ATOM      1  O   UNL     1      34.864 -17.145 -22.136  0.00  0.00    -0.291 OA
ATOM      2  C   UNL     1      32.928  -9.059 -23.293  0.00  0.00    +0.033 C 
ATOM      3  C   UNL     1      32.651  -9.815 -21.976  0.00  0.00    +0.007 C 
ATOM      4  C   UNL     1      32.286 -11.293 -22.196  0.00  0.00    +0.019 C 
ATOM      5  C   UNL     1      33.077  -7.615 -22.750  0.00  0.00    +0.142 C 
ATOM      6  C   UNL     1      31.625  -8.941 -21.257  0.00  0.00    +0.003 C 
ATOM      7  C   UNL     1      31.971  -7.500 -21.678  0.00  0.00    +0.034 C 
ATOM      8  C   UNL     1      33.231 -11.967 -23.206  0.00  0.00    -0.046 C 
ATOM      9  C   UNL     1      34.176  -9.708 -23.914  0.00  0.00    +0.028 C 
ATOM     10  C   UNL     1      33.109 -13.512 -23.347  0.00  0.00    +0.030 C 
ATOM     11  C   UNL     1      32.297 -12.034 -20.852  0.00  0.00    +0.008 C 
ATOM     12  C   UNL     1      31.746  -9.144 -24.300  0.00  0.00    +0.003 C 
ATOM     13  C   UNL     1      34.081 -11.216 -23.948  0.00  0.00    -0.034 C 
ATOM     14  C   UNL     1      31.936 -13.499 -21.030  0.00  0.00    +0.023 C 
ATOM     15  C   UNL     1      32.888 -14.182 -21.983  0.00  0.00    -0.039 C 
ATOM     16  C   UNL     1      34.373 -14.128 -24.019  0.00  0.00    +0.016 C 
ATOM     17  C   UNL     1      31.880 -13.801 -24.241  0.00  0.00    +0.008 C 
ATOM     18  C   UNL     1      34.434 -15.647 -23.951  0.00  0.00    +0.070 C 
ATOM     19  C   UNL     1      33.469 -15.333 -21.602  0.00  0.00    +0.029 C 
ATOM     20  C   UNL     1      34.323 -16.112 -22.525  0.00  0.00    +0.173 C 
ENDROOT
BRANCH   5  21
ATOM     21  O   UNL     1      34.328  -7.396 -22.103  0.00  0.00    -0.380 OA
ATOM     22  H   UNL     1      35.011  -7.225 -22.771  0.00  0.00    +0.211 HD
ENDBRANCH   5  21
BRANCH   5  24
ATOM     23  O   UNL     1      33.784  -6.450 -24.703  0.00  0.00    -0.291 OA
ATOM     24  C   UNL     1      32.980  -6.527 -23.775  0.00  0.00    +0.204 C 
BRANCH  24  25
ATOM     25  C   UNL     1      31.847  -5.538 -23.599  0.00  0.00    +0.204 C 
BRANCH  25  26
ATOM     26  O   UNL     1      30.904  -5.671 -24.641  0.00  0.00    -0.375 OA
ATOM     27  H   UNL     1      30.997  -6.546 -25.052  0.00  0.00    +0.211 HD
ENDBRANCH  25  26
ENDBRANCH  24  25
ENDBRANCH   5  24
TORSDOF 4
ENDMDL
MODEL 7
REMARK VINA RESULT:      -6.4     12.276     16.317
REMARK  Name = 7074810
REMARK  4 active torsions:
REMARK  status: ('A' for Active; 'I' for Inactive)
REMARK    1  A    between atoms: C_5  and  O_21
REMARK    2  A    between atoms: C_5  and  C_24
REMARK    3  A    between atoms: C_24  and  C_25
REMARK    4  A    between atoms: C_25  and  O_26
REMARK                            x       y       z     vdW  Elec       q    Type
REMARK                         _______ _______ _______ _____ _____    ______ ____
ROOT
ATOM      1  O   UNL     1      30.215  -2.422 -24.461  0.00  0.00    -0.291 OA
ATOM      2  C   UNL     1      31.915 -10.320 -22.180  0.00  0.00    +0.033 C 
ATOM      3  C   UNL     1      31.715  -9.172 -21.169  0.00  0.00    +0.007 C 
ATOM      4  C   UNL     1      32.232  -7.818 -21.685  0.00  0.00    +0.019 C 
ATOM      5  C   UNL     1      31.476 -11.526 -21.312  0.00  0.00    +0.142 C 
ATOM      6  C   UNL     1      32.328  -9.708 -19.876  0.00  0.00    +0.003 C 
ATOM      7  C   UNL     1      32.076 -11.227 -19.921  0.00  0.00    +0.034 C 
ATOM      8  C   UNL     1      31.792  -7.558 -23.135  0.00  0.00    -0.046 C 
ATOM      9  C   UNL     1      31.045  -9.981 -23.402  0.00  0.00    +0.028 C 
ATOM     10  C   UNL     1      32.059  -6.132 -23.697  0.00  0.00    +0.030 C 
ATOM     11  C   UNL     1      31.756  -6.694 -20.754  0.00  0.00    +0.008 C 
ATOM     12  C   UNL     1      33.396 -10.480 -22.628  0.00  0.00    +0.003 C 
ATOM     13  C   UNL     1      31.245  -8.557 -23.869  0.00  0.00    -0.034 C 
ATOM     14  C   UNL     1      32.252  -5.339 -21.231  0.00  0.00    +0.023 C 
ATOM     15  C   UNL     1      31.784  -5.053 -22.638  0.00  0.00    -0.039 C 
ATOM     16  C   UNL     1      31.192  -5.840 -24.959  0.00  0.00    +0.016 C 
ATOM     17  C   UNL     1      33.553  -6.061 -24.092  0.00  0.00    +0.008 C 
ATOM     18  C   UNL     1      31.210  -4.384 -25.401  0.00  0.00    +0.070 C 
ATOM     19  C   UNL     1      31.178  -3.881 -22.892  0.00  0.00    +0.029 C 
ATOM     20  C   UNL     1      30.796  -3.488 -24.266  0.00  0.00    +0.173 C 
ENDROOT
BRANCH   5  21
ATOM     21  O   UNL     1      30.061 -11.610 -21.161  0.00  0.00    -0.380 OA
ATOM     22  H   UNL     1      29.785 -11.076 -20.399  0.00  0.00    +0.211 HD
ENDBRANCH   5  21
BRANCH   5  24
ATOM     23  O   UNL     1      31.881 -13.129 -23.026  0.00  0.00    -0.291 OA
ATOM     24  C   UNL     1      31.886 -12.873 -21.823  0.00  0.00    +0.204 C 
BRANCH  24  25
ATOM     25  C   UNL     1      32.301 -13.889 -20.780  0.00  0.00    +0.204 C 
BRANCH  25  26
ATOM     26  O   UNL     1      32.272 -15.194 -21.315  0.00  0.00    -0.375 OA
ATOM     27  H   UNL     1      31.719 -15.762 -20.755  0.00  0.00    +0.211 HD
ENDBRANCH  25  26
ENDBRANCH  24  25
ENDBRANCH   5  24
TORSDOF 4
ENDMDL
MODEL 8
REMARK VINA RESULT:      -6.4     11.540     16.799
REMARK  Name = 7074810
REMARK  4 active torsions:
REMARK  status: ('A' for Active; 'I' for Inactive)
REMARK    1  A    between atoms: C_5  and  O_21
REMARK    2  A    between atoms: C_5  and  C_24
REMARK    3  A    between atoms: C_24  and  C_25
REMARK    4  A    between atoms: C_25  and  O_26
REMARK                            x       y       z     vdW  Elec       q    Type
REMARK                         _______ _______ _______ _____ _____    ______ ____
ROOT
ATOM      1  O   UNL     1      33.286 -15.198 -20.123  0.00  0.00    -0.291 OA
ATOM      2  C   UNL     1      32.098  -7.578 -23.439  0.00  0.00    +0.033 C 
ATOM      3  C   UNL     1      32.341  -7.818 -21.934  0.00  0.00    +0.007 C 
ATOM      4  C   UNL     1      31.729  -9.135 -21.428  0.00  0.00    +0.019 C 
ATOM      5  C   UNL     1      32.657  -6.140 -23.579  0.00  0.00    +0.142 C 
ATOM      6  C   UNL     1      31.864  -6.525 -21.274  0.00  0.00    +0.003 C 
ATOM      7  C   UNL     1      32.169  -5.420 -22.303  0.00  0.00    +0.034 C 
ATOM      8  C   UNL     1      32.031 -10.304 -22.380  0.00  0.00    -0.046 C 
ATOM      9  C   UNL     1      32.845  -8.697 -24.184  0.00  0.00    +0.028 C 
ATOM     10  C   UNL     1      31.660 -11.727 -21.872  0.00  0.00    +0.030 C 
ATOM     11  C   UNL     1      32.240  -9.431 -20.011  0.00  0.00    +0.008 C 
ATOM     12  C   UNL     1      30.591  -7.618 -23.823  0.00  0.00    +0.003 C 
ATOM     13  C   UNL     1      32.550 -10.064 -23.608  0.00  0.00    -0.034 C 
ATOM     14  C   UNL     1      31.652 -10.726 -19.475  0.00  0.00    +0.023 C 
ATOM     15  C   UNL     1      31.985 -11.889 -20.379  0.00  0.00    -0.039 C 
ATOM     16  C   UNL     1      32.402 -12.836 -22.678  0.00  0.00    +0.016 C 
ATOM     17  C   UNL     1      30.136 -11.908 -22.065  0.00  0.00    +0.008 C 
ATOM     18  C   UNL     1      32.291 -14.226 -22.069  0.00  0.00    +0.070 C 
ATOM     19  C   UNL     1      32.520 -12.996 -19.837  0.00  0.00    +0.029 C 
ATOM     20  C   UNL     1      32.767 -14.212 -20.643  0.00  0.00    +0.173 C 
ENDROOT
BRANCH   5  21
ATOM     21  O   UNL     1      34.082  -6.100 -23.577  0.00  0.00    -0.380 OA
ATOM     22  H   UNL     1      34.426  -6.867 -23.093  0.00  0.00    +0.211 HD
ENDBRANCH   5  21
BRANCH   5  24
ATOM     23  O   UNL     1      32.797  -5.642 -25.904  0.00  0.00    -0.291 OA
ATOM     24  C   UNL     1      32.256  -5.409 -24.824  0.00  0.00    +0.204 C 
BRANCH  24  25
ATOM     25  C   UNL     1      31.158  -4.378 -24.672  0.00  0.00    +0.204 C 
BRANCH  25  26
ATOM     26  O   UNL     1      31.668  -3.075 -24.862  0.00  0.00    -0.375 OA
ATOM     27  H   UNL     1      32.342  -2.891 -24.189  0.00  0.00    +0.211 HD
ENDBRANCH  25  26
ENDBRANCH  24  25
ENDBRANCH   5  24
TORSDOF 4
ENDMDL
MODEL 9
REMARK VINA RESULT:      -6.3      7.614     11.887
REMARK  Name = 7074810
REMARK  4 active torsions:
REMARK  status: ('A' for Active; 'I' for Inactive)
REMARK    1  A    between atoms: C_5  and  O_21
REMARK    2  A    between atoms: C_5  and  C_24
REMARK    3  A    between atoms: C_24  and  C_25
REMARK    4  A    between atoms: C_25  and  O_26
REMARK                            x       y       z     vdW  Elec       q    Type
REMARK                         _______ _______ _______ _____ _____    ______ ____
ROOT
ATOM      1  O   UNL     1      32.326  -7.332 -19.835  0.00  0.00    -0.291 OA
ATOM      2  C   UNL     1      33.654 -15.269 -22.223  0.00  0.00    +0.033 C 
ATOM      3  C   UNL     1      33.852 -14.059 -23.160  0.00  0.00    +0.007 C 
ATOM      4  C   UNL     1      32.851 -12.922 -22.895  0.00  0.00    +0.019 C 
ATOM      5  C   UNL     1      34.658 -16.267 -22.852  0.00  0.00    +0.142 C 
ATOM      6  C   UNL     1      33.859 -14.673 -24.559  0.00  0.00    +0.003 C 
ATOM      7  C   UNL     1      34.483 -16.069 -24.373  0.00  0.00    +0.034 C 
ATOM      8  C   UNL     1      32.711 -12.628 -21.392  0.00  0.00    -0.046 C 
ATOM      9  C   UNL     1      33.956 -14.772 -20.799  0.00  0.00    +0.028 C 
ATOM     10  C   UNL     1      31.902 -11.356 -21.005  0.00  0.00    +0.030 C 
ATOM     11  C   UNL     1      33.280 -11.666 -23.665  0.00  0.00    +0.008 C 
ATOM     12  C   UNL     1      32.209 -15.843 -22.274  0.00  0.00    +0.003 C 
ATOM     13  C   UNL     1      33.240 -13.480 -20.480  0.00  0.00    -0.034 C 
ATOM     14  C   UNL     1      32.310 -10.520 -23.430  0.00  0.00    +0.023 C 
ATOM     15  C   UNL     1      32.202 -10.191 -21.960  0.00  0.00    -0.039 C 
ATOM     16  C   UNL     1      32.201 -10.907 -19.543  0.00  0.00    +0.016 C 
ATOM     17  C   UNL     1      30.400 -11.709 -21.120  0.00  0.00    +0.008 C 
ATOM     18  C   UNL     1      31.650  -9.534 -19.190  0.00  0.00    +0.070 C 
ATOM     19  C   UNL     1      32.353  -8.913 -21.571  0.00  0.00    +0.029 C 
ATOM     20  C   UNL     1      32.150  -8.503 -20.164  0.00  0.00    +0.173 C 
ENDROOT
BRANCH   5  21
ATOM     21  O   UNL     1      36.013 -15.961 -22.532  0.00  0.00    -0.380 OA
ATOM     22  H   UNL     1      36.364 -16.637 -21.932  0.00  0.00    +0.211 HD
ENDBRANCH   5  21
BRANCH   5  24
ATOM     23  O   UNL     1      34.182 -18.563 -23.270  0.00  0.00    -0.291 OA
ATOM     24  C   UNL     1      34.484 -17.699 -22.448  0.00  0.00    +0.204 C 
BRANCH  24  25
ATOM     25  C   UNL     1      34.699 -18.013 -20.983  0.00  0.00    +0.204 C 
BRANCH  25  26
ATOM     26  O   UNL     1      36.029 -18.425 -20.750  0.00  0.00    -0.375 OA
ATOM     27  H   UNL     1      36.629 -17.676 -20.894  0.00  0.00    +0.211 HD
ENDBRANCH  25  26
ENDBRANCH  24  25
ENDBRANCH   5  24
TORSDOF 4
ENDMDL
