MODEL 1
REMARK VINA RESULT:      -6.6      0.000      0.000
REMARK  Name = 4635111
REMARK  2 active torsions:
REMARK  status: ('A' for Active; 'I' for Inactive)
REMARK    1  A    between atoms: N_3  and  C_6
REMARK    2  A    between atoms: C_4  and  C_13
REMARK                            x       y       z     vdW  Elec       q    Type
REMARK                         _______ _______ _______ _____ _____    ______ ____
ROOT
ATOM      1  N   UNL     1      35.931 -20.019 -20.279  0.00  0.00    -0.331 NA
ATOM      2  N   UNL     1      33.704 -19.586 -21.040  0.00  0.00    -0.180 NA
ATOM      3  C   UNL     1      35.059 -19.355 -20.977  0.00  0.00    +0.161 C 
ATOM      4  C   UNL     1      34.118 -21.400 -19.495  0.00  0.00    +0.044 C 
ATOM      5  C   UNL     1      35.566 -21.083 -19.486  0.00  0.00    +0.205 C 
ATOM      6  C   UNL     1      33.247 -20.564 -20.332  0.00  0.00    +0.110 C 
ATOM      7  C   UNL     1      33.564 -22.394 -18.793  0.00  0.00    +0.037 C 
ENDROOT
BRANCH   3  11
ATOM      8  F   UNL     1      34.772 -18.090 -22.933  0.00  0.00    -0.157 F 
ATOM      9  F   UNL     1      35.450 -17.043 -21.146  0.00  0.00    -0.157 F 
ATOM     10  F   UNL     1      36.807 -18.379 -22.209  0.00  0.00    -0.157 F 
ATOM     11  C   UNL     1      35.527 -18.205 -21.824  0.00  0.00    +0.489 C 
ENDBRANCH   3  11
BRANCH   5  12
ATOM     12  N   UNL     1      36.493 -21.688 -18.826  0.00  0.00    -0.238 NA
ATOM     13  H   UNL     1      37.024 -21.195 -18.159  0.00  0.00    +0.173 HD
ENDBRANCH   5  12
TORSDOF 2
ENDMDL
MODEL 2
REMARK VINA RESULT:      -6.5      1.704      2.617
REMARK  Name = 4635111
REMARK  2 active torsions:
REMARK  status: ('A' for Active; 'I' for Inactive)
REMARK    1  A    between atoms: N_3  and  C_6
REMARK    2  A    between atoms: C_4  and  C_13
REMARK                            x       y       z     vdW  Elec       q    Type
REMARK                         _______ _______ _______ _____ _____    ______ ____
ROOT
ATOM      1  N   UNL     1      33.810 -18.877 -21.019  0.00  0.00    -0.331 NA
ATOM      2  N   UNL     1      36.186 -18.633 -20.874  0.00  0.00    -0.180 NA
ATOM      3  C   UNL     1      34.912 -18.207 -21.173  0.00  0.00    +0.161 C 
ATOM      4  C   UNL     1      35.140 -20.695 -20.162  0.00  0.00    +0.044 C 
ATOM      5  C   UNL     1      33.805 -20.156 -20.511  0.00  0.00    +0.205 C 
ATOM      6  C   UNL     1      36.303 -19.824 -20.389  0.00  0.00    +0.110 C 
ATOM      7  C   UNL     1      35.348 -21.915 -19.655  0.00  0.00    +0.037 C 
ENDROOT
BRANCH   3  11
ATOM      8  F   UNL     1      35.148 -15.904 -20.786  0.00  0.00    -0.157 F 
ATOM      9  F   UNL     1      35.716 -16.659 -22.750  0.00  0.00    -0.157 F 
ATOM     10  F   UNL     1      33.611 -16.537 -22.195  0.00  0.00    -0.157 F 
ATOM     11  C   UNL     1      34.846 -16.813 -21.732  0.00  0.00    +0.489 C 
ENDBRANCH   3  11
BRANCH   5  12
ATOM     12  N   UNL     1      32.668 -20.751 -20.390  0.00  0.00    -0.238 NA
ATOM     13  H   UNL     1      31.844 -20.222 -20.286  0.00  0.00    +0.173 HD
ENDBRANCH   5  12
TORSDOF 2
ENDMDL
MODEL 3
REMARK VINA RESULT:      -6.5      4.206      6.336
REMARK  Name = 4635111
REMARK  2 active torsions:
REMARK  status: ('A' for Active; 'I' for Inactive)
REMARK    1  A    between atoms: N_3  and  C_6
REMARK    2  A    between atoms: C_4  and  C_13
REMARK                            x       y       z     vdW  Elec       q    Type
REMARK                         _______ _______ _______ _____ _____    ______ ____
ROOT
ATOM      1  N   UNL     1      34.153 -16.950 -25.110  0.00  0.00    -0.331 NA
ATOM      2  N   UNL     1      34.704 -16.471 -22.831  0.00  0.00    -0.180 NA
ATOM      3  C   UNL     1      34.595 -17.285 -23.935  0.00  0.00    +0.161 C 
ATOM      4  C   UNL     1      33.809 -14.726 -24.247  0.00  0.00    +0.044 C 
ATOM      5  C   UNL     1      33.726 -15.671 -25.385  0.00  0.00    +0.205 C 
ATOM      6  C   UNL     1      34.330 -15.244 -22.973  0.00  0.00    +0.110 C 
ATOM      7  C   UNL     1      33.444 -13.441 -24.309  0.00  0.00    +0.037 C 
ENDROOT
BRANCH   3  11
ATOM      8  F   UNL     1      36.362 -18.738 -23.414  0.00  0.00    -0.157 F 
ATOM      9  F   UNL     1      34.379 -19.259 -22.675  0.00  0.00    -0.157 F 
ATOM     10  F   UNL     1      34.840 -19.458 -24.797  0.00  0.00    -0.157 F 
ATOM     11  C   UNL     1      35.048 -18.700 -23.703  0.00  0.00    +0.489 C 
ENDBRANCH   3  11
BRANCH   5  12
ATOM     12  N   UNL     1      33.302 -15.421 -26.577  0.00  0.00    -0.238 NA
ATOM     13  H   UNL     1      33.478 -14.544 -26.988  0.00  0.00    +0.173 HD
ENDBRANCH   5  12
TORSDOF 2
ENDMDL
MODEL 4
REMARK VINA RESULT:      -6.5      3.673      4.533
REMARK  Name = 4635111
REMARK  2 active torsions:
REMARK  status: ('A' for Active; 'I' for Inactive)
REMARK    1  A    between atoms: N_3  and  C_6
REMARK    2  A    between atoms: C_4  and  C_13
REMARK                            x       y       z     vdW  Elec       q    Type
REMARK                         _______ _______ _______ _____ _____    ______ ____
ROOT
ATOM      1  N   UNL     1      35.143 -21.201 -19.434  0.00  0.00    -0.331 NA
ATOM      2  N   UNL     1      32.799 -21.091 -19.906  0.00  0.00    -0.180 NA
ATOM      3  C   UNL     1      33.915 -21.597 -19.279  0.00  0.00    +0.161 C 
ATOM      4  C   UNL     1      34.323 -19.571 -21.010  0.00  0.00    +0.044 C 
ATOM      5  C   UNL     1      35.470 -20.174 -20.291  0.00  0.00    +0.205 C 
ATOM      6  C   UNL     1      32.987 -20.121 -20.736  0.00  0.00    +0.110 C 
ATOM      7  C   UNL     1      34.431 -18.565 -21.883  0.00  0.00    +0.037 C 
ENDROOT
BRANCH   3  11
ATOM      8  F   UNL     1      34.529 -22.745 -17.326  0.00  0.00    -0.157 F 
ATOM      9  F   UNL     1      32.403 -22.592 -17.779  0.00  0.00    -0.157 F 
ATOM     10  F   UNL     1      33.677 -23.914 -18.956  0.00  0.00    -0.157 F 
ATOM     11  C   UNL     1      33.627 -22.723 -18.326  0.00  0.00    +0.489 C 
ENDBRANCH   3  11
BRANCH   5  12
ATOM     12  N   UNL     1      36.712 -19.843 -20.386  0.00  0.00    -0.238 NA
ATOM     13  H   UNL     1      37.296 -19.890 -19.594  0.00  0.00    +0.173 HD
ENDBRANCH   5  12
TORSDOF 2
ENDMDL
MODEL 5
REMARK VINA RESULT:      -6.5      9.909     10.225
REMARK  Name = 4635111
REMARK  2 active torsions:
REMARK  status: ('A' for Active; 'I' for Inactive)
REMARK    1  A    between atoms: N_3  and  C_6
REMARK    2  A    between atoms: C_4  and  C_13
REMARK                            x       y       z     vdW  Elec       q    Type
REMARK                         _______ _______ _______ _____ _____    ______ ____
ROOT
ATOM      1  N   UNL     1      39.075 -24.243 -12.915  0.00  0.00    -0.331 NA
ATOM      2  N   UNL     1      38.154 -26.341 -13.604  0.00  0.00    -0.180 NA
ATOM      3  C   UNL     1      39.124 -25.366 -13.565  0.00  0.00    +0.161 C 
ATOM      4  C   UNL     1      36.886 -24.891 -12.141  0.00  0.00    +0.044 C 
ATOM      5  C   UNL     1      37.982 -23.894 -12.154  0.00  0.00    +0.205 C 
ATOM      6  C   UNL     1      37.079 -26.120 -12.925  0.00  0.00    +0.110 C 
ATOM      7  C   UNL     1      35.743 -24.740 -11.465  0.00  0.00    +0.037 C 
ENDROOT
BRANCH   3  11
ATOM      8  F   UNL     1      41.086 -26.638 -13.772  0.00  0.00    -0.157 F 
ATOM      9  F   UNL     1      40.015 -26.133 -15.602  0.00  0.00    -0.157 F 
ATOM     10  F   UNL     1      41.126 -24.595 -14.527  0.00  0.00    -0.157 F 
ATOM     11  C   UNL     1      40.350 -25.686 -14.376  0.00  0.00    +0.489 C 
ENDBRANCH   3  11
BRANCH   5  12
ATOM     12  N   UNL     1      38.013 -22.761 -11.540  0.00  0.00    -0.238 NA
ATOM     13  H   UNL     1      37.859 -21.926 -12.039  0.00  0.00    +0.173 HD
ENDBRANCH   5  12
TORSDOF 2
ENDMDL
MODEL 6
REMARK VINA RESULT:      -6.4      4.130      5.328
REMARK  Name = 4635111
REMARK  2 active torsions:
REMARK  status: ('A' for Active; 'I' for Inactive)
REMARK    1  A    between atoms: N_3  and  C_6
REMARK    2  A    between atoms: C_4  and  C_13
REMARK                            x       y       z     vdW  Elec       q    Type
REMARK                         _______ _______ _______ _____ _____    ______ ____
ROOT
ATOM      1  N   UNL     1      33.010 -21.538 -19.241  0.00  0.00    -0.331 NA
ATOM      2  N   UNL     1      35.260 -22.183 -18.746  0.00  0.00    -0.180 NA
ATOM      3  C   UNL     1      33.893 -22.250 -18.607  0.00  0.00    +0.161 C 
ATOM      4  C   UNL     1      34.834 -20.452 -20.381  0.00  0.00    +0.044 C 
ATOM      5  C   UNL     1      33.374 -20.591 -20.170  0.00  0.00    +0.205 C 
ATOM      6  C   UNL     1      35.718 -21.324 -19.593  0.00  0.00    +0.110 C 
ATOM      7  C   UNL     1      35.390 -19.590 -21.238  0.00  0.00    +0.037 C 
ENDROOT
BRANCH   3  11
ATOM      8  F   UNL     1      33.413 -24.502 -18.150  0.00  0.00    -0.157 F 
ATOM      9  F   UNL     1      34.237 -23.298 -16.530  0.00  0.00    -0.157 F 
ATOM     10  F   UNL     1      32.178 -22.991 -17.180  0.00  0.00    -0.157 F 
ATOM     11  C   UNL     1      33.425 -23.270 -17.606  0.00  0.00    +0.489 C 
ENDBRANCH   3  11
BRANCH   5  12
ATOM     12  N   UNL     1      32.435 -19.928 -20.754  0.00  0.00    -0.238 NA
ATOM     13  H   UNL     1      31.684 -20.406 -21.174  0.00  0.00    +0.173 HD
ENDBRANCH   5  12
TORSDOF 2
ENDMDL
MODEL 7
REMARK VINA RESULT:      -6.4      3.705      5.626
REMARK  Name = 4635111
REMARK  2 active torsions:
REMARK  status: ('A' for Active; 'I' for Inactive)
REMARK    1  A    between atoms: N_3  and  C_6
REMARK    2  A    between atoms: C_4  and  C_13
REMARK                            x       y       z     vdW  Elec       q    Type
REMARK                         _______ _______ _______ _____ _____    ______ ____
ROOT
ATOM      1  N   UNL     1      35.093 -16.216 -22.752  0.00  0.00    -0.331 NA
ATOM      2  N   UNL     1      34.867 -18.124 -24.179  0.00  0.00    -0.180 NA
ATOM      3  C   UNL     1      35.253 -17.476 -23.028  0.00  0.00    +0.161 C 
ATOM      4  C   UNL     1      34.040 -15.970 -24.906  0.00  0.00    +0.044 C 
ATOM      5  C   UNL     1      34.486 -15.353 -23.635  0.00  0.00    +0.205 C 
ATOM      6  C   UNL     1      34.286 -17.408 -25.083  0.00  0.00    +0.110 C 
ATOM      7  C   UNL     1      33.431 -15.302 -25.891  0.00  0.00    +0.037 C 
ENDROOT
BRANCH   3  11
ATOM      8  F   UNL     1      37.239 -18.474 -22.275  0.00  0.00    -0.157 F 
ATOM      9  F   UNL     1      35.782 -17.869 -20.771  0.00  0.00    -0.157 F 
ATOM     10  F   UNL     1      35.391 -19.602 -22.036  0.00  0.00    -0.157 F 
ATOM     11  C   UNL     1      35.922 -18.364 -22.017  0.00  0.00    +0.489 C 
ENDBRANCH   3  11
BRANCH   5  12
ATOM     12  N   UNL     1      34.366 -14.118 -23.283  0.00  0.00    -0.238 NA
ATOM     13  H   UNL     1      33.593 -13.832 -22.745  0.00  0.00    +0.173 HD
ENDBRANCH   5  12
TORSDOF 2
ENDMDL
MODEL 8
REMARK VINA RESULT:      -6.3      3.739      5.074
REMARK  Name = 4635111
REMARK  2 active torsions:
REMARK  status: ('A' for Active; 'I' for Inactive)
REMARK    1  A    between atoms: N_3  and  C_6
REMARK    2  A    between atoms: C_4  and  C_13
REMARK                            x       y       z     vdW  Elec       q    Type
REMARK                         _______ _______ _______ _____ _____    ______ ____
ROOT
ATOM      1  N   UNL     1      34.486 -15.988 -23.685  0.00  0.00    -0.331 NA
ATOM      2  N   UNL     1      34.532 -17.275 -21.668  0.00  0.00    -0.180 NA
ATOM      3  C   UNL     1      34.437 -16.109 -22.392  0.00  0.00    +0.161 C 
ATOM      4  C   UNL     1      34.759 -18.380 -23.808  0.00  0.00    +0.044 C 
ATOM      5  C   UNL     1      34.647 -17.079 -24.508  0.00  0.00    +0.205 C 
ATOM      6  C   UNL     1      34.687 -18.366 -22.339  0.00  0.00    +0.110 C 
ATOM      7  C   UNL     1      34.920 -19.554 -24.426  0.00  0.00    +0.037 C 
ENDROOT
BRANCH   3  11
ATOM      8  F   UNL     1      34.695 -13.783 -22.207  0.00  0.00    -0.157 F 
ATOM      9  F   UNL     1      32.958 -14.685 -21.246  0.00  0.00    -0.157 F 
ATOM     10  F   UNL     1      34.947 -14.973 -20.398  0.00  0.00    -0.157 F 
ATOM     11  C   UNL     1      34.257 -14.875 -21.552  0.00  0.00    +0.489 C 
ENDBRANCH   3  11
BRANCH   5  12
ATOM     12  N   UNL     1      34.686 -16.873 -25.780  0.00  0.00    -0.238 NA
ATOM     13  H   UNL     1      33.855 -16.685 -26.274  0.00  0.00    +0.173 HD
ENDBRANCH   5  12
TORSDOF 2
ENDMDL
MODEL 9
REMARK VINA RESULT:      -6.3      4.864      6.455
REMARK  Name = 4635111
REMARK  2 active torsions:
REMARK  status: ('A' for Active; 'I' for Inactive)
REMARK    1  A    between atoms: N_3  and  C_6
REMARK    2  A    between atoms: C_4  and  C_13
REMARK                            x       y       z     vdW  Elec       q    Type
REMARK                         _______ _______ _______ _____ _____    ______ ____
ROOT
ATOM      1  N   UNL     1      34.423 -16.266 -23.546  0.00  0.00    -0.331 NA
ATOM      2  N   UNL     1      33.283 -14.269 -22.882  0.00  0.00    -0.180 NA
ATOM      3  C   UNL     1      34.013 -15.414 -22.655  0.00  0.00    +0.161 C 
ATOM      4  C   UNL     1      33.367 -14.890 -25.219  0.00  0.00    +0.044 C 
ATOM      5  C   UNL     1      34.153 -16.101 -24.885  0.00  0.00    +0.205 C 
ATOM      6  C   UNL     1      32.970 -14.013 -24.108  0.00  0.00    +0.110 C 
ATOM      7  C   UNL     1      33.002 -14.550 -26.459  0.00  0.00    +0.037 C 
ENDROOT
BRANCH   3  11
ATOM      8  F   UNL     1      34.883 -14.551 -20.653  0.00  0.00    -0.157 F 
ATOM      9  F   UNL     1      33.242 -15.979 -20.507  0.00  0.00    -0.157 F 
ATOM     10  F   UNL     1      35.234 -16.659 -21.079  0.00  0.00    -0.157 F 
ATOM     11  C   UNL     1      34.346 -15.654 -21.209  0.00  0.00    +0.489 C 
ENDBRANCH   3  11
BRANCH   5  12
ATOM     12  N   UNL     1      34.596 -16.993 -25.704  0.00  0.00    -0.238 NA
ATOM     13  H   UNL     1      34.253 -17.029 -26.626  0.00  0.00    +0.173 HD
ENDBRANCH   5  12
TORSDOF 2
ENDMDL
