MODEL 1
REMARK VINA RESULT:     -10.2      0.000      0.000
REMARK  Name = 4286
REMARK  5 active torsions:
REMARK  status: ('A' for Active; 'I' for Inactive)
REMARK    1  A    between atoms: N_2  and  C_7
REMARK    2  A    between atoms: N_3  and  C_17
REMARK    3  A    between atoms: C_17  and  C_18
REMARK    4  A    between atoms: C_23  and  N_24
REMARK    5  A    between atoms: N_24  and  C_27
REMARK                            x       y       z     vdW  Elec       q    Type
REMARK                         _______ _______ _______ _____ _____    ______ ____
ROOT
ATOM      1  O   UNL     1      34.136 -23.289 -15.417  0.00  0.00    -0.253 OA
ATOM      2  N   UNL     1      36.420 -23.494 -15.775  0.00  0.00    -0.292 N 
ATOM      3  N   UNL     1      35.052 -22.848 -17.503  0.00  0.00    -0.285 N 
ATOM      4  C   UNL     1      35.113 -23.218 -16.162  0.00  0.00    +0.301 C 
ATOM      5  H   UNL     1      37.135 -23.407 -16.445  0.00  0.00    +0.151 HD
ATOM      6  H   UNL     1      35.889 -22.818 -18.022  0.00  0.00    +0.151 HD
ENDROOT
BRANCH   2   7
ATOM      7  C   UNL     1      36.778 -23.903 -14.434  0.00  0.00    +0.058 C 
ATOM      8  C   UNL     1      36.084 -25.299 -12.439  0.00  0.00    +0.002 C 
ATOM      9  C   UNL     1      38.526 -25.063 -13.018  0.00  0.00    +0.002 C 
ATOM     10  C   UNL     1      37.256 -23.095 -12.085  0.00  0.00    +0.002 C 
ATOM     11  C   UNL     1      35.709 -24.864 -13.867  0.00  0.00    +0.018 C 
ATOM     12  C   UNL     1      38.140 -24.630 -14.443  0.00  0.00    +0.018 C 
ATOM     13  C   UNL     1      36.876 -22.668 -13.513  0.00  0.00    +0.018 C 
ATOM     14  C   UNL     1      37.446 -26.012 -12.470  0.00  0.00    +0.000 C 
ATOM     15  C   UNL     1      36.183 -24.054 -11.541  0.00  0.00    +0.000 C 
ATOM     16  C   UNL     1      38.612 -23.820 -12.117  0.00  0.00    +0.000 C 
ENDBRANCH   2   7
BRANCH   3  17
ATOM     17  C   UNL     1      33.815 -22.506 -18.166  0.00  0.00    +0.118 C 
BRANCH  17  18
ATOM     18  C   UNL     1      34.029 -21.505 -19.269  0.00  0.00    -0.002 C 
ATOM     19  C   UNL     1      35.315 -21.259 -19.730  0.00  0.00    -0.001 C 
ATOM     20  C   UNL     1      32.937 -20.844 -19.813  0.00  0.00    -0.001 C 
ATOM     21  C   UNL     1      35.513 -20.334 -20.755  0.00  0.00    +0.019 C 
ATOM     22  C   UNL     1      33.134 -19.918 -20.837  0.00  0.00    +0.019 C 
ATOM     23  C   UNL     1      34.423 -19.663 -21.309  0.00  0.00    +0.084 C 
BRANCH  23  24
ATOM     24  N   UNL     1      34.620 -18.734 -22.334  0.00  0.00    -0.214 NA
BRANCH  24  27
ATOM     25  N   UNL     1      35.592 -16.718 -23.003  0.00  0.00    -0.370 N 
ATOM     26  N   UNL     1      35.107 -16.951 -20.786  0.00  0.00    -0.370 N 
ATOM     27  C   UNL     1      35.074 -17.541 -22.031  0.00  0.00    +0.193 C 
ATOM     28  H   UNL     1      35.626 -17.022 -23.939  0.00  0.00    +0.159 HD
ATOM     29  H   UNL     1      35.931 -15.825 -22.764  0.00  0.00    +0.159 HD
ATOM     30  H   UNL     1      34.764 -17.439 -20.002  0.00  0.00    +0.159 HD
ATOM     31  H   UNL     1      35.475 -16.045 -20.680  0.00  0.00    +0.159 HD
ENDBRANCH  24  27
ENDBRANCH  23  24
ENDBRANCH  17  18
ENDBRANCH   3  17
TORSDOF 5
ENDMDL
MODEL 2
REMARK VINA RESULT:     -10.0      0.466      1.679
REMARK  Name = 4286
REMARK  5 active torsions:
REMARK  status: ('A' for Active; 'I' for Inactive)
REMARK    1  A    between atoms: N_2  and  C_7
REMARK    2  A    between atoms: N_3  and  C_17
REMARK    3  A    between atoms: C_17  and  C_18
REMARK    4  A    between atoms: C_23  and  N_24
REMARK    5  A    between atoms: N_24  and  C_27
REMARK                            x       y       z     vdW  Elec       q    Type
REMARK                         _______ _______ _______ _____ _____    ______ ____
ROOT
ATOM      1  O   UNL     1      34.251 -23.589 -15.793  0.00  0.00    -0.253 OA
ATOM      2  N   UNL     1      36.548 -23.293 -15.941  0.00  0.00    -0.292 N 
ATOM      3  N   UNL     1      35.196 -22.566 -17.649  0.00  0.00    -0.285 N 
ATOM      4  C   UNL     1      35.240 -23.187 -16.404  0.00  0.00    +0.301 C 
ATOM      5  H   UNL     1      37.274 -22.939 -16.503  0.00  0.00    +0.151 HD
ATOM      6  H   UNL     1      36.042 -22.276 -18.062  0.00  0.00    +0.151 HD
ENDROOT
BRANCH   2   7
ATOM      7  C   UNL     1      36.891 -23.897 -14.672  0.00  0.00    +0.058 C 
ATOM      8  C   UNL     1      38.774 -24.843 -13.269  0.00  0.00    +0.002 C 
ATOM      9  C   UNL     1      36.892 -23.583 -12.160  0.00  0.00    +0.002 C 
ATOM     10  C   UNL     1      36.473 -25.867 -13.141  0.00  0.00    +0.002 C 
ATOM     11  C   UNL     1      38.405 -24.198 -14.616  0.00  0.00    +0.018 C 
ATOM     12  C   UNL     1      36.533 -22.942 -13.512  0.00  0.00    +0.018 C 
ATOM     13  C   UNL     1      36.114 -25.218 -14.489  0.00  0.00    +0.018 C 
ATOM     14  C   UNL     1      38.401 -23.880 -12.128  0.00  0.00    +0.000 C 
ATOM     15  C   UNL     1      37.984 -26.153 -13.104  0.00  0.00    +0.000 C 
ATOM     16  C   UNL     1      36.114 -24.899 -12.001  0.00  0.00    +0.000 C 
ENDBRANCH   2   7
BRANCH   3  17
ATOM     17  C   UNL     1      33.962 -22.327 -18.361  0.00  0.00    +0.118 C 
BRANCH  17  18
ATOM     18  C   UNL     1      34.137 -21.315 -19.461  0.00  0.00    -0.002 C 
ATOM     19  C   UNL     1      35.405 -21.068 -19.969  0.00  0.00    -0.001 C 
ATOM     20  C   UNL     1      33.027 -20.643 -19.955  0.00  0.00    -0.001 C 
ATOM     21  C   UNL     1      35.566 -20.132 -20.990  0.00  0.00    +0.019 C 
ATOM     22  C   UNL     1      33.188 -19.707 -20.976  0.00  0.00    +0.019 C 
ATOM     23  C   UNL     1      34.458 -19.451 -21.494  0.00  0.00    +0.084 C 
BRANCH  23  24
ATOM     24  N   UNL     1      34.620 -18.512 -22.516  0.00  0.00    -0.214 NA
BRANCH  24  27
ATOM     25  N   UNL     1      35.391 -16.407 -23.172  0.00  0.00    -0.370 N 
ATOM     26  N   UNL     1      34.985 -16.717 -20.949  0.00  0.00    -0.370 N 
ATOM     27  C   UNL     1      34.973 -17.287 -22.202  0.00  0.00    +0.193 C 
ATOM     28  H   UNL     1      35.428 -16.692 -24.114  0.00  0.00    +0.159 HD
ATOM     29  H   UNL     1      35.654 -15.490 -22.925  0.00  0.00    +0.159 HD
ATOM     30  H   UNL     1      34.706 -17.245 -20.165  0.00  0.00    +0.159 HD
ATOM     31  H   UNL     1      35.272 -15.783 -20.836  0.00  0.00    +0.159 HD
ENDBRANCH  24  27
ENDBRANCH  23  24
ENDBRANCH  17  18
ENDBRANCH   3  17
TORSDOF 5
ENDMDL
MODEL 3
REMARK VINA RESULT:      -9.8      3.781      4.893
REMARK  Name = 4286
REMARK  5 active torsions:
REMARK  status: ('A' for Active; 'I' for Inactive)
REMARK    1  A    between atoms: N_2  and  C_7
REMARK    2  A    between atoms: N_3  and  C_17
REMARK    3  A    between atoms: C_17  and  C_18
REMARK    4  A    between atoms: C_23  and  N_24
REMARK    5  A    between atoms: N_24  and  C_27
REMARK                            x       y       z     vdW  Elec       q    Type
REMARK                         _______ _______ _______ _____ _____    ______ ____
ROOT
ATOM      1  O   UNL     1      33.914 -23.353 -17.123  0.00  0.00    -0.253 OA
ATOM      2  N   UNL     1      31.688 -22.725 -17.315  0.00  0.00    -0.292 N 
ATOM      3  N   UNL     1      33.173 -22.168 -18.975  0.00  0.00    -0.285 N 
ATOM      4  C   UNL     1      33.009 -22.800 -17.746  0.00  0.00    +0.301 C 
ATOM      5  H   UNL     1      31.034 -22.261 -17.886  0.00  0.00    +0.151 HD
ATOM      6  H   UNL     1      32.388 -21.752 -19.401  0.00  0.00    +0.151 HD
ENDROOT
BRANCH   2   7
ATOM      7  C   UNL     1      31.230 -23.298 -16.068  0.00  0.00    +0.058 C 
ATOM      8  C   UNL     1      31.842 -23.772 -13.657  0.00  0.00    +0.002 C 
ATOM      9  C   UNL     1      29.466 -23.178 -14.256  0.00  0.00    +0.002 C 
ATOM     10  C   UNL     1      30.417 -25.411 -14.938  0.00  0.00    +0.002 C 
ATOM     11  C   UNL     1      32.323 -23.161 -14.984  0.00  0.00    +0.018 C 
ATOM     12  C   UNL     1      29.958 -22.569 -15.580  0.00  0.00    +0.018 C 
ATOM     13  C   UNL     1      30.905 -24.794 -16.261  0.00  0.00    +0.018 C 
ATOM     14  C   UNL     1      30.571 -23.038 -13.195  0.00  0.00    +0.000 C 
ATOM     15  C   UNL     1      31.518 -25.260 -13.873  0.00  0.00    +0.000 C 
ATOM     16  C   UNL     1      29.155 -24.668 -14.469  0.00  0.00    +0.000 C 
ENDBRANCH   2   7
BRANCH   3  17
ATOM     17  C   UNL     1      34.446 -22.096 -19.655  0.00  0.00    +0.118 C 
BRANCH  17  18
ATOM     18  C   UNL     1      34.683 -20.738 -20.258  0.00  0.00    -0.002 C 
ATOM     19  C   UNL     1      35.983 -20.288 -20.440  0.00  0.00    -0.001 C 
ATOM     20  C   UNL     1      33.598 -19.955 -20.626  0.00  0.00    -0.001 C 
ATOM     21  C   UNL     1      36.203 -19.030 -21.001  0.00  0.00    +0.019 C 
ATOM     22  C   UNL     1      33.817 -18.697 -21.187  0.00  0.00    +0.019 C 
ATOM     23  C   UNL     1      35.120 -18.234 -21.375  0.00  0.00    +0.084 C 
BRANCH  23  24
ATOM     24  N   UNL     1      35.339 -16.973 -21.936  0.00  0.00    -0.214 NA
BRANCH  24  27
ATOM     25  N   UNL     1      34.152 -15.702 -23.496  0.00  0.00    -0.370 N 
ATOM     26  N   UNL     1      35.319 -17.495 -24.290  0.00  0.00    -0.370 N 
ATOM     27  C   UNL     1      34.973 -16.759 -23.178  0.00  0.00    +0.193 C 
ATOM     28  H   UNL     1      33.833 -15.096 -22.788  0.00  0.00    +0.159 HD
ATOM     29  H   UNL     1      33.883 -15.551 -24.431  0.00  0.00    +0.159 HD
ATOM     30  H   UNL     1      35.905 -18.281 -24.196  0.00  0.00    +0.159 HD
ATOM     31  H   UNL     1      34.980 -17.236 -25.176  0.00  0.00    +0.159 HD
ENDBRANCH  24  27
ENDBRANCH  23  24
ENDBRANCH  17  18
ENDBRANCH   3  17
TORSDOF 5
ENDMDL
MODEL 4
REMARK VINA RESULT:      -9.7      3.907      4.895
REMARK  Name = 4286
REMARK  5 active torsions:
REMARK  status: ('A' for Active; 'I' for Inactive)
REMARK    1  A    between atoms: N_2  and  C_7
REMARK    2  A    between atoms: N_3  and  C_17
REMARK    3  A    between atoms: C_17  and  C_18
REMARK    4  A    between atoms: C_23  and  N_24
REMARK    5  A    between atoms: N_24  and  C_27
REMARK                            x       y       z     vdW  Elec       q    Type
REMARK                         _______ _______ _______ _____ _____    ______ ____
ROOT
ATOM      1  O   UNL     1      33.907 -23.274 -17.054  0.00  0.00    -0.253 OA
ATOM      2  N   UNL     1      31.669 -22.816 -17.465  0.00  0.00    -0.292 N 
ATOM      3  N   UNL     1      33.252 -22.242 -19.027  0.00  0.00    -0.285 N 
ATOM      4  C   UNL     1      33.024 -22.819 -17.780  0.00  0.00    +0.301 C 
ATOM      5  H   UNL     1      31.038 -22.430 -18.114  0.00  0.00    +0.151 HD
ATOM      6  H   UNL     1      32.481 -21.905 -19.539  0.00  0.00    +0.151 HD
ENDROOT
BRANCH   2   7
ATOM      7  C   UNL     1      31.144 -23.354 -16.229  0.00  0.00    +0.058 C 
ATOM      8  C   UNL     1      29.230 -23.256 -14.574  0.00  0.00    +0.002 C 
ATOM      9  C   UNL     1      30.369 -25.455 -15.047  0.00  0.00    +0.002 C 
ATOM     10  C   UNL     1      31.581 -23.660 -13.756  0.00  0.00    +0.002 C 
ATOM     11  C   UNL     1      29.791 -22.688 -15.889  0.00  0.00    +0.018 C 
ATOM     12  C   UNL     1      30.924 -24.878 -16.361  0.00  0.00    +0.018 C 
ATOM     13  C   UNL     1      32.133 -23.090 -15.075  0.00  0.00    +0.018 C 
ATOM     14  C   UNL     1      29.029 -24.773 -14.723  0.00  0.00    +0.000 C 
ATOM     15  C   UNL     1      30.234 -22.988 -13.439  0.00  0.00    +0.000 C 
ATOM     16  C   UNL     1      31.366 -25.175 -13.911  0.00  0.00    +0.000 C 
ENDBRANCH   2   7
BRANCH   3  17
ATOM     17  C   UNL     1      34.571 -22.116 -19.601  0.00  0.00    +0.118 C 
BRANCH  17  18
ATOM     18  C   UNL     1      34.786 -20.760 -20.218  0.00  0.00    -0.002 C 
ATOM     19  C   UNL     1      33.689 -19.993 -20.584  0.00  0.00    -0.001 C 
ATOM     20  C   UNL     1      36.079 -20.294 -20.409  0.00  0.00    -0.001 C 
ATOM     21  C   UNL     1      33.889 -18.736 -21.153  0.00  0.00    +0.019 C 
ATOM     22  C   UNL     1      36.280 -19.037 -20.978  0.00  0.00    +0.019 C 
ATOM     23  C   UNL     1      35.183 -18.257 -21.350  0.00  0.00    +0.084 C 
BRANCH  23  24
ATOM     24  N   UNL     1      35.384 -16.997 -21.922  0.00  0.00    -0.214 NA
BRANCH  24  27
ATOM     25  N   UNL     1      34.119 -15.759 -23.446  0.00  0.00    -0.370 N 
ATOM     26  N   UNL     1      35.329 -17.505 -24.278  0.00  0.00    -0.370 N 
ATOM     27  C   UNL     1      34.982 -16.788 -23.154  0.00  0.00    +0.193 C 
ATOM     28  H   UNL     1      33.795 -15.169 -22.728  0.00  0.00    +0.159 HD
ATOM     29  H   UNL     1      33.824 -15.612 -24.374  0.00  0.00    +0.159 HD
ATOM     30  H   UNL     1      35.944 -18.271 -24.203  0.00  0.00    +0.159 HD
ATOM     31  H   UNL     1      34.961 -17.253 -25.155  0.00  0.00    +0.159 HD
ENDBRANCH  24  27
ENDBRANCH  23  24
ENDBRANCH  17  18
ENDBRANCH   3  17
TORSDOF 5
ENDMDL
MODEL 5
REMARK VINA RESULT:      -9.7      7.494     14.181
REMARK  Name = 4286
REMARK  5 active torsions:
REMARK  status: ('A' for Active; 'I' for Inactive)
REMARK    1  A    between atoms: N_2  and  C_7
REMARK    2  A    between atoms: N_3  and  C_17
REMARK    3  A    between atoms: C_17  and  C_18
REMARK    4  A    between atoms: C_23  and  N_24
REMARK    5  A    between atoms: N_24  and  C_27
REMARK                            x       y       z     vdW  Elec       q    Type
REMARK                         _______ _______ _______ _____ _____    ______ ____
ROOT
ATOM      1  O   UNL     1      34.009 -11.276 -24.431  0.00  0.00    -0.253 OA
ATOM      2  N   UNL     1      32.379 -10.957 -22.810  0.00  0.00    -0.292 N 
ATOM      3  N   UNL     1      32.920 -13.088 -23.475  0.00  0.00    -0.285 N 
ATOM      4  C   UNL     1      33.179 -11.731 -23.645  0.00  0.00    +0.301 C 
ATOM      5  H   UNL     1      31.744 -11.416 -22.214  0.00  0.00    +0.151 HD
ATOM      6  H   UNL     1      32.236 -13.360 -22.820  0.00  0.00    +0.151 HD
ENDROOT
BRANCH   2   7
ATOM      7  C   UNL     1      32.437  -9.513 -22.776  0.00  0.00    +0.058 C 
ATOM      8  C   UNL     1      33.948  -7.493 -23.003  0.00  0.00    +0.002 C 
ATOM      9  C   UNL     1      31.567  -7.379 -23.824  0.00  0.00    +0.002 C 
ATOM     10  C   UNL     1      32.044  -7.460 -21.350  0.00  0.00    +0.002 C 
ATOM     11  C   UNL     1      33.881  -9.030 -23.041  0.00  0.00    +0.018 C 
ATOM     12  C   UNL     1      31.511  -8.916 -23.859  0.00  0.00    +0.018 C 
ATOM     13  C   UNL     1      31.985  -8.997 -21.394  0.00  0.00    +0.018 C 
ATOM     14  C   UNL     1      33.012  -6.921 -24.081  0.00  0.00    +0.000 C 
ATOM     15  C   UNL     1      33.487  -7.002 -21.620  0.00  0.00    +0.000 C 
ATOM     16  C   UNL     1      31.120  -6.887 -22.438  0.00  0.00    +0.000 C 
ENDBRANCH   2   7
BRANCH   3  17
ATOM     17  C   UNL     1      33.611 -14.116 -24.219  0.00  0.00    +0.118 C 
BRANCH  17  18
ATOM     18  C   UNL     1      34.133 -15.204 -23.318  0.00  0.00    -0.002 C 
ATOM     19  C   UNL     1      33.952 -15.101 -21.946  0.00  0.00    -0.001 C 
ATOM     20  C   UNL     1      34.786 -16.296 -23.872  0.00  0.00    -0.001 C 
ATOM     21  C   UNL     1      34.434 -16.109 -21.112  0.00  0.00    +0.019 C 
ATOM     22  C   UNL     1      35.268 -17.304 -23.039  0.00  0.00    +0.019 C 
ATOM     23  C   UNL     1      35.091 -17.212 -21.658  0.00  0.00    +0.084 C 
BRANCH  23  24
ATOM     24  N   UNL     1      35.575 -18.222 -20.822  0.00  0.00    -0.214 NA
BRANCH  24  27
ATOM     25  N   UNL     1      35.698 -20.541 -20.564  0.00  0.00    -0.370 N 
ATOM     26  N   UNL     1      33.666 -19.664 -21.117  0.00  0.00    -0.370 N 
ATOM     27  C   UNL     1      34.988 -19.396 -20.841  0.00  0.00    +0.193 C 
ATOM     28  H   UNL     1      36.657 -20.485 -20.349  0.00  0.00    +0.159 HD
ATOM     29  H   UNL     1      35.247 -21.416 -20.581  0.00  0.00    +0.159 HD
ATOM     30  H   UNL     1      33.049 -18.926 -21.332  0.00  0.00    +0.159 HD
ATOM     31  H   UNL     1      33.337 -20.591 -21.101  0.00  0.00    +0.159 HD
ENDBRANCH  24  27
ENDBRANCH  23  24
ENDBRANCH  17  18
ENDBRANCH   3  17
TORSDOF 5
ENDMDL
MODEL 6
REMARK VINA RESULT:      -9.7      7.490     14.151
REMARK  Name = 4286
REMARK  5 active torsions:
REMARK  status: ('A' for Active; 'I' for Inactive)
REMARK    1  A    between atoms: N_2  and  C_7
REMARK    2  A    between atoms: N_3  and  C_17
REMARK    3  A    between atoms: C_17  and  C_18
REMARK    4  A    between atoms: C_23  and  N_24
REMARK    5  A    between atoms: N_24  and  C_27
REMARK                            x       y       z     vdW  Elec       q    Type
REMARK                         _______ _______ _______ _____ _____    ______ ____
ROOT
ATOM      1  O   UNL     1      33.998 -11.289 -24.434  0.00  0.00    -0.253 OA
ATOM      2  N   UNL     1      32.398 -10.955 -22.787  0.00  0.00    -0.292 N 
ATOM      3  N   UNL     1      32.920 -13.091 -23.449  0.00  0.00    -0.285 N 
ATOM      4  C   UNL     1      33.181 -11.736 -23.631  0.00  0.00    +0.301 C 
ATOM      5  H   UNL     1      31.772 -11.408 -22.177  0.00  0.00    +0.151 HD
ATOM      6  H   UNL     1      32.247 -13.357 -22.780  0.00  0.00    +0.151 HD
ENDROOT
BRANCH   2   7
ATOM      7  C   UNL     1      32.461  -9.510 -22.763  0.00  0.00    +0.058 C 
ATOM      8  C   UNL     1      31.584  -7.380 -23.815  0.00  0.00    +0.002 C 
ATOM      9  C   UNL     1      32.098  -7.443 -21.348  0.00  0.00    +0.002 C 
ATOM     10  C   UNL     1      33.977  -7.502 -23.028  0.00  0.00    +0.002 C 
ATOM     11  C   UNL     1      31.519  -8.917 -23.835  0.00  0.00    +0.018 C 
ATOM     12  C   UNL     1      32.029  -8.979 -21.378  0.00  0.00    +0.018 C 
ATOM     13  C   UNL     1      33.902  -9.039 -23.051  0.00  0.00    +0.018 C 
ATOM     14  C   UNL     1      31.160  -6.874 -22.426  0.00  0.00    +0.000 C 
ATOM     15  C   UNL     1      33.029  -6.933 -24.097  0.00  0.00    +0.000 C 
ATOM     16  C   UNL     1      33.539  -6.995 -21.643  0.00  0.00    +0.000 C 
ENDBRANCH   2   7
BRANCH   3  17
ATOM     17  C   UNL     1      33.595 -14.126 -24.198  0.00  0.00    +0.118 C 
BRANCH  17  18
ATOM     18  C   UNL     1      34.130 -15.209 -23.299  0.00  0.00    -0.002 C 
ATOM     19  C   UNL     1      34.784 -16.299 -23.857  0.00  0.00    -0.001 C 
ATOM     20  C   UNL     1      33.965 -15.101 -21.926  0.00  0.00    -0.001 C 
ATOM     21  C   UNL     1      35.282 -17.301 -23.024  0.00  0.00    +0.019 C 
ATOM     22  C   UNL     1      34.463 -16.102 -21.093  0.00  0.00    +0.019 C 
ATOM     23  C   UNL     1      35.122 -17.203 -21.642  0.00  0.00    +0.084 C 
BRANCH  23  24
ATOM     24  N   UNL     1      35.620 -18.207 -20.807  0.00  0.00    -0.214 NA
BRANCH  24  27
ATOM     25  N   UNL     1      35.767 -20.523 -20.540  0.00  0.00    -0.370 N 
ATOM     26  N   UNL     1      33.726 -19.670 -21.098  0.00  0.00    -0.370 N 
ATOM     27  C   UNL     1      35.045 -19.387 -20.822  0.00  0.00    +0.193 C 
ATOM     28  H   UNL     1      36.725 -20.457 -20.325  0.00  0.00    +0.159 HD
ATOM     29  H   UNL     1      35.325 -21.403 -20.554  0.00  0.00    +0.159 HD
ATOM     30  H   UNL     1      33.101 -18.940 -21.316  0.00  0.00    +0.159 HD
ATOM     31  H   UNL     1      33.407 -20.601 -21.079  0.00  0.00    +0.159 HD
ENDBRANCH  24  27
ENDBRANCH  23  24
ENDBRANCH  17  18
ENDBRANCH   3  17
TORSDOF 5
ENDMDL
MODEL 7
REMARK VINA RESULT:      -9.7      7.486     14.113
REMARK  Name = 4286
REMARK  5 active torsions:
REMARK  status: ('A' for Active; 'I' for Inactive)
REMARK    1  A    between atoms: N_2  and  C_7
REMARK    2  A    between atoms: N_3  and  C_17
REMARK    3  A    between atoms: C_17  and  C_18
REMARK    4  A    between atoms: C_23  and  N_24
REMARK    5  A    between atoms: N_24  and  C_27
REMARK                            x       y       z     vdW  Elec       q    Type
REMARK                         _______ _______ _______ _____ _____    ______ ____
ROOT
ATOM      1  O   UNL     1      33.953 -11.303 -24.441  0.00  0.00    -0.253 OA
ATOM      2  N   UNL     1      32.405 -10.950 -22.747  0.00  0.00    -0.292 N 
ATOM      3  N   UNL     1      32.884 -13.093 -23.422  0.00  0.00    -0.285 N 
ATOM      4  C   UNL     1      33.154 -11.740 -23.614  0.00  0.00    +0.301 C 
ATOM      5  H   UNL     1      31.792 -11.396 -22.119  0.00  0.00    +0.151 HD
ATOM      6  H   UNL     1      32.228 -13.350 -22.734  0.00  0.00    +0.151 HD
ENDROOT
BRANCH   2   7
ATOM      7  C   UNL     1      32.485  -9.506 -22.726  0.00  0.00    +0.058 C 
ATOM      8  C   UNL     1      32.215  -7.437 -21.292  0.00  0.00    +0.002 C 
ATOM      9  C   UNL     1      34.003  -7.510 -23.068  0.00  0.00    +0.002 C 
ATOM     10  C   UNL     1      31.574  -7.370 -23.730  0.00  0.00    +0.002 C 
ATOM     11  C   UNL     1      32.133  -8.973 -21.319  0.00  0.00    +0.018 C 
ATOM     12  C   UNL     1      33.914  -9.045 -23.086  0.00  0.00    +0.018 C 
ATOM     13  C   UNL     1      31.495  -8.907 -23.747  0.00  0.00    +0.018 C 
ATOM     14  C   UNL     1      33.642  -7.000 -21.663  0.00  0.00    +0.000 C 
ATOM     15  C   UNL     1      31.226  -6.861 -22.321  0.00  0.00    +0.000 C 
ATOM     16  C   UNL     1      33.005  -6.933 -24.087  0.00  0.00    +0.000 C 
ENDBRANCH   2   7
BRANCH   3  17
ATOM     17  C   UNL     1      33.524 -14.135 -24.190  0.00  0.00    +0.118 C 
BRANCH  17  18
ATOM     18  C   UNL     1      34.084 -15.218 -23.307  0.00  0.00    -0.002 C 
ATOM     19  C   UNL     1      34.709 -16.315 -23.882  0.00  0.00    -0.001 C 
ATOM     20  C   UNL     1      33.971 -15.102 -21.929  0.00  0.00    -0.001 C 
ATOM     21  C   UNL     1      35.230 -17.317 -23.064  0.00  0.00    +0.019 C 
ATOM     22  C   UNL     1      34.491 -16.103 -21.109  0.00  0.00    +0.019 C 
ATOM     23  C   UNL     1      35.121 -17.211 -21.677  0.00  0.00    +0.084 C 
BRANCH  23  24
ATOM     24  N   UNL     1      35.642 -18.216 -20.856  0.00  0.00    -0.214 NA
BRANCH  24  27
ATOM     25  N   UNL     1      35.751 -20.528 -20.545  0.00  0.00    -0.370 N 
ATOM     26  N   UNL     1      33.708 -19.643 -21.045  0.00  0.00    -0.370 N 
ATOM     27  C   UNL     1      35.043 -19.383 -20.824  0.00  0.00    +0.193 C 
ATOM     28  H   UNL     1      36.718 -20.478 -20.367  0.00  0.00    +0.159 HD
ATOM     29  H   UNL     1      35.291 -21.399 -20.524  0.00  0.00    +0.159 HD
ATOM     30  H   UNL     1      33.091 -18.904 -21.256  0.00  0.00    +0.159 HD
ATOM     31  H   UNL     1      33.372 -20.566 -20.994  0.00  0.00    +0.159 HD
ENDBRANCH  24  27
ENDBRANCH  23  24
ENDBRANCH  17  18
ENDBRANCH   3  17
TORSDOF 5
ENDMDL
MODEL 8
REMARK VINA RESULT:      -9.2      2.871      9.895
REMARK  Name = 4286
REMARK  5 active torsions:
REMARK  status: ('A' for Active; 'I' for Inactive)
REMARK    1  A    between atoms: N_2  and  C_7
REMARK    2  A    between atoms: N_3  and  C_17
REMARK    3  A    between atoms: C_17  and  C_18
REMARK    4  A    between atoms: C_23  and  N_24
REMARK    5  A    between atoms: N_24  and  C_27
REMARK                            x       y       z     vdW  Elec       q    Type
REMARK                         _______ _______ _______ _____ _____    ______ ____
ROOT
ATOM      1  O   UNL     1      36.087 -18.511 -20.670  0.00  0.00    -0.253 OA
ATOM      2  N   UNL     1      33.802 -18.398 -21.061  0.00  0.00    -0.292 N 
ATOM      3  N   UNL     1      34.768 -20.416 -20.543  0.00  0.00    -0.285 N 
ATOM      4  C   UNL     1      34.987 -19.057 -20.751  0.00  0.00    +0.301 C 
ATOM      5  H   UNL     1      32.970 -18.923 -21.101  0.00  0.00    +0.151 HD
ATOM      6  H   UNL     1      33.851 -20.765 -20.630  0.00  0.00    +0.151 HD
ENDROOT
BRANCH   2   7
ATOM      7  C   UNL     1      33.733 -16.978 -21.326  0.00  0.00    +0.058 C 
ATOM      8  C   UNL     1      32.224 -14.945 -21.352  0.00  0.00    +0.002 C 
ATOM      9  C   UNL     1      34.644 -14.704 -20.687  0.00  0.00    +0.002 C 
ATOM     10  C   UNL     1      34.039 -15.186 -23.086  0.00  0.00    +0.002 C 
ATOM     11  C   UNL     1      32.302 -16.455 -21.069  0.00  0.00    +0.018 C 
ATOM     12  C   UNL     1      34.711 -16.215 -20.405  0.00  0.00    +0.018 C 
ATOM     13  C   UNL     1      34.109 -16.695 -22.796  0.00  0.00    +0.018 C 
ATOM     14  C   UNL     1      33.211 -14.207 -20.432  0.00  0.00    +0.000 C 
ATOM     15  C   UNL     1      32.609 -14.686 -22.819  0.00  0.00    +0.000 C 
ATOM     16  C   UNL     1      35.015 -14.446 -22.156  0.00  0.00    +0.000 C 
ENDBRANCH   2   7
BRANCH   3  17
ATOM     17  C   UNL     1      35.828 -21.338 -20.207  0.00  0.00    +0.118 C 
BRANCH  17  18
ATOM     18  C   UNL     1      35.694 -21.856 -18.800  0.00  0.00    -0.002 C 
ATOM     19  C   UNL     1      34.512 -22.468 -18.406  0.00  0.00    -0.001 C 
ATOM     20  C   UNL     1      36.755 -21.717 -17.916  0.00  0.00    -0.001 C 
ATOM     21  C   UNL     1      34.389 -22.950 -17.103  0.00  0.00    +0.019 C 
ATOM     22  C   UNL     1      36.633 -22.198 -16.613  0.00  0.00    +0.019 C 
ATOM     23  C   UNL     1      35.449 -22.816 -16.206  0.00  0.00    +0.084 C 
BRANCH  23  24
ATOM     24  N   UNL     1      35.326 -23.298 -14.900  0.00  0.00    -0.214 NA
BRANCH  24  27
ATOM     25  N   UNL     1      33.733 -24.825 -14.135  0.00  0.00    -0.370 N 
ATOM     26  N   UNL     1      35.640 -25.683 -15.045  0.00  0.00    -0.370 N 
ATOM     27  C   UNL     1      34.946 -24.541 -14.715  0.00  0.00    +0.193 C 
ATOM     28  H   UNL     1      33.138 -24.093 -13.853  0.00  0.00    +0.159 HD
ATOM     29  H   UNL     1      33.458 -25.762 -14.001  0.00  0.00    +0.159 HD
ATOM     30  H   UNL     1      36.527 -25.615 -15.470  0.00  0.00    +0.159 HD
ATOM     31  H   UNL     1      35.252 -26.567 -14.857  0.00  0.00    +0.159 HD
ENDBRANCH  24  27
ENDBRANCH  23  24
ENDBRANCH  17  18
ENDBRANCH   3  17
TORSDOF 5
ENDMDL
MODEL 9
REMARK VINA RESULT:      -9.2      2.865      9.922
REMARK  Name = 4286
REMARK  5 active torsions:
REMARK  status: ('A' for Active; 'I' for Inactive)
REMARK    1  A    between atoms: N_2  and  C_7
REMARK    2  A    between atoms: N_3  and  C_17
REMARK    3  A    between atoms: C_17  and  C_18
REMARK    4  A    between atoms: C_23  and  N_24
REMARK    5  A    between atoms: N_24  and  C_27
REMARK                            x       y       z     vdW  Elec       q    Type
REMARK                         _______ _______ _______ _____ _____    ______ ____
ROOT
ATOM      1  O   UNL     1      36.084 -18.496 -20.718  0.00  0.00    -0.253 OA
ATOM      2  N   UNL     1      33.787 -18.362 -21.030  0.00  0.00    -0.292 N 
ATOM      3  N   UNL     1      34.750 -20.384 -20.518  0.00  0.00    -0.285 N 
ATOM      4  C   UNL     1      34.976 -19.030 -20.753  0.00  0.00    +0.301 C 
ATOM      5  H   UNL     1      32.950 -18.879 -21.033  0.00  0.00    +0.151 HD
ATOM      6  H   UNL     1      33.827 -20.724 -20.567  0.00  0.00    +0.151 HD
ENDROOT
BRANCH   2   7
ATOM      7  C   UNL     1      33.725 -16.945 -21.312  0.00  0.00    +0.058 C 
ATOM      8  C   UNL     1      34.632 -14.666 -20.688  0.00  0.00    +0.002 C 
ATOM      9  C   UNL     1      34.047 -15.170 -23.088  0.00  0.00    +0.002 C 
ATOM     10  C   UNL     1      32.218 -14.914 -21.371  0.00  0.00    +0.002 C 
ATOM     11  C   UNL     1      34.698 -16.174 -20.393  0.00  0.00    +0.018 C 
ATOM     12  C   UNL     1      34.116 -16.676 -22.782  0.00  0.00    +0.018 C 
ATOM     13  C   UNL     1      32.293 -16.421 -21.073  0.00  0.00    +0.018 C 
ATOM     14  C   UNL     1      35.016 -14.421 -22.157  0.00  0.00    +0.000 C 
ATOM     15  C   UNL     1      33.197 -14.166 -20.449  0.00  0.00    +0.000 C 
ATOM     16  C   UNL     1      32.616 -14.667 -22.837  0.00  0.00    +0.000 C 
ENDBRANCH   2   7
BRANCH   3  17
ATOM     17  C   UNL     1      35.812 -21.312 -20.207  0.00  0.00    +0.118 C 
BRANCH  17  18
ATOM     18  C   UNL     1      35.700 -21.840 -18.801  0.00  0.00    -0.002 C 
ATOM     19  C   UNL     1      34.527 -22.461 -18.396  0.00  0.00    -0.001 C 
ATOM     20  C   UNL     1      36.772 -21.701 -17.931  0.00  0.00    -0.001 C 
ATOM     21  C   UNL     1      34.424 -22.952 -17.095  0.00  0.00    +0.019 C 
ATOM     22  C   UNL     1      36.670 -22.192 -16.630  0.00  0.00    +0.019 C 
ATOM     23  C   UNL     1      35.495 -22.818 -16.211  0.00  0.00    +0.084 C 
BRANCH  23  24
ATOM     24  N   UNL     1      35.392 -23.309 -14.907  0.00  0.00    -0.214 NA
BRANCH  24  27
ATOM     25  N   UNL     1      33.771 -24.808 -14.144  0.00  0.00    -0.370 N 
ATOM     26  N   UNL     1      35.664 -25.700 -15.055  0.00  0.00    -0.370 N 
ATOM     27  C   UNL     1      34.990 -24.545 -14.724  0.00  0.00    +0.193 C 
ATOM     28  H   UNL     1      33.190 -24.066 -13.861  0.00  0.00    +0.159 HD
ATOM     29  H   UNL     1      33.480 -25.740 -14.011  0.00  0.00    +0.159 HD
ATOM     30  H   UNL     1      36.552 -25.647 -15.479  0.00  0.00    +0.159 HD
ATOM     31  H   UNL     1      35.259 -26.577 -14.867  0.00  0.00    +0.159 HD
ENDBRANCH  24  27
ENDBRANCH  23  24
ENDBRANCH  17  18
ENDBRANCH   3  17
TORSDOF 5
ENDMDL
