MODEL 1
REMARK VINA RESULT:      -5.9      0.000      0.000
REMARK  Name = 1662
REMARK  7 active torsions:
REMARK  status: ('A' for Active; 'I' for Inactive)
REMARK    1  A    between atoms: C_1  and  O_3
REMARK    2  A    between atoms: C_1  and  C_5
REMARK    3  A    between atoms: C_1  and  C_10
REMARK    4  A    between atoms: C_5  and  C_7
REMARK    5  A    between atoms: C_7  and  O_8
REMARK    6  A    between atoms: C_10  and  C_12
REMARK    7  A    between atoms: C_12  and  O_13
REMARK                            x       y       z     vdW  Elec       q    Type
REMARK                         _______ _______ _______ _____ _____    ______ ____
ROOT
ATOM      1  C   UNL     1      37.737 -24.901 -13.914  0.00  0.00    +0.110 C 
ATOM      2  C   UNL     1      36.468 -25.336 -14.663  0.00  0.00    +0.030 C 
ENDROOT
BRANCH   1   3
ATOM      3  O   UNL     1      38.163 -23.651 -14.462  0.00  0.00    -0.386 OA
ATOM      4  H   UNL     1      37.451 -22.999 -14.368  0.00  0.00    +0.210 HD
ENDBRANCH   1   3
BRANCH   1   5
ATOM      5  C   UNL     1      38.840 -25.955 -14.164  0.00  0.00    +0.137 C 
BRANCH   5   7
ATOM      6  O   UNL     1      40.865 -24.590 -14.160  0.00  0.00    -0.250 OA
ATOM      7  C   UNL     1      40.143 -25.404 -14.714  0.00  0.00    +0.316 C 
BRANCH   7   8
ATOM      8  O   UNL     1      40.408 -25.900 -15.953  0.00  0.00    -0.480 OA
ATOM      9  H   UNL     1      39.806 -25.751 -16.656  0.00  0.00    +0.295 HD
ENDBRANCH   7   8
ENDBRANCH   5   7
ENDBRANCH   1   5
BRANCH   1  10
ATOM     10  C   UNL     1      37.463 -24.729 -12.408  0.00  0.00    +0.137 C 
BRANCH  10  12
ATOM     11  O   UNL     1      37.151 -22.467 -11.548  0.00  0.00    -0.250 OA
ATOM     12  C   UNL     1      37.894 -23.391 -11.846  0.00  0.00    +0.316 C 
BRANCH  12  13
ATOM     13  O   UNL     1      39.246 -23.326 -11.755  0.00  0.00    -0.480 OA
ATOM     14  H   UNL     1      39.673 -22.494 -11.695  0.00  0.00    +0.295 HD
ENDBRANCH  12  13
ENDBRANCH  10  12
ENDBRANCH   1  10
TORSDOF 7
ENDMDL
MODEL 2
REMARK VINA RESULT:      -5.9      2.155      3.982
REMARK  Name = 1662
REMARK  7 active torsions:
REMARK  status: ('A' for Active; 'I' for Inactive)
REMARK    1  A    between atoms: C_1  and  O_3
REMARK    2  A    between atoms: C_1  and  C_5
REMARK    3  A    between atoms: C_1  and  C_10
REMARK    4  A    between atoms: C_5  and  C_7
REMARK    5  A    between atoms: C_7  and  O_8
REMARK    6  A    between atoms: C_10  and  C_12
REMARK    7  A    between atoms: C_12  and  O_13
REMARK                            x       y       z     vdW  Elec       q    Type
REMARK                         _______ _______ _______ _____ _____    ______ ____
ROOT
ATOM      1  C   UNL     1      38.220 -25.031 -14.145  0.00  0.00    +0.110 C 
ATOM      2  C   UNL     1      37.462 -24.163 -13.128  0.00  0.00    +0.030 C 
ENDROOT
BRANCH   1   3
ATOM      3  O   UNL     1      38.003 -24.474 -15.445  0.00  0.00    -0.386 OA
ATOM      4  H   UNL     1      37.427 -23.698 -15.371  0.00  0.00    +0.210 HD
ENDBRANCH   1   3
BRANCH   1   5
ATOM      5  C   UNL     1      37.628 -26.458 -14.110  0.00  0.00    +0.137 C 
BRANCH   5   7
ATOM      6  O   UNL     1      36.944 -27.398 -16.258  0.00  0.00    -0.250 OA
ATOM      7  C   UNL     1      36.667 -26.784 -15.239  0.00  0.00    +0.316 C 
BRANCH   7   8
ATOM      8  O   UNL     1      35.432 -26.264 -15.005  0.00  0.00    -0.480 OA
ATOM      9  H   UNL     1      34.948 -26.527 -14.247  0.00  0.00    +0.295 HD
ENDBRANCH   7   8
ENDBRANCH   5   7
ENDBRANCH   1   5
BRANCH   1  10
ATOM     10  C   UNL     1      39.731 -25.047 -13.846  0.00  0.00    +0.137 C 
BRANCH  10  12
ATOM     11  O   UNL     1      41.243 -26.928 -14.203  0.00  0.00    -0.250 OA
ATOM     12  C   UNL     1      40.515 -26.057 -14.656  0.00  0.00    +0.316 C 
BRANCH  12  13
ATOM     13  O   UNL     1      40.341 -25.839 -15.984  0.00  0.00    -0.480 OA
ATOM     14  H   UNL     1      41.041 -26.014 -16.583  0.00  0.00    +0.295 HD
ENDBRANCH  12  13
ENDBRANCH  10  12
ENDBRANCH   1  10
TORSDOF 7
ENDMDL
MODEL 3
REMARK VINA RESULT:      -5.8      2.545      3.139
REMARK  Name = 1662
REMARK  7 active torsions:
REMARK  status: ('A' for Active; 'I' for Inactive)
REMARK    1  A    between atoms: C_1  and  O_3
REMARK    2  A    between atoms: C_1  and  C_5
REMARK    3  A    between atoms: C_1  and  C_10
REMARK    4  A    between atoms: C_5  and  C_7
REMARK    5  A    between atoms: C_7  and  O_8
REMARK    6  A    between atoms: C_10  and  C_12
REMARK    7  A    between atoms: C_12  and  O_13
REMARK                            x       y       z     vdW  Elec       q    Type
REMARK                         _______ _______ _______ _____ _____    ______ ____
ROOT
ATOM      1  C   UNL     1      38.070 -25.836 -13.974  0.00  0.00    +0.110 C 
ATOM      2  C   UNL     1      37.475 -25.959 -12.562  0.00  0.00    +0.030 C 
ENDROOT
BRANCH   1   3
ATOM      3  O   UNL     1      38.106 -27.144 -14.551  0.00  0.00    -0.386 OA
ATOM      4  H   UNL     1      37.249 -27.578 -14.419  0.00  0.00    +0.210 HD
ENDBRANCH   1   3
BRANCH   1   5
ATOM      5  C   UNL     1      39.517 -25.306 -13.852  0.00  0.00    +0.137 C 
BRANCH   5   7
ATOM      6  O   UNL     1      41.381 -26.871 -14.062  0.00  0.00    -0.250 OA
ATOM      7  C   UNL     1      40.565 -26.124 -14.583  0.00  0.00    +0.316 C 
BRANCH   7   8
ATOM      8  O   UNL     1      40.527 -25.897 -15.923  0.00  0.00    -0.480 OA
ATOM      9  H   UNL     1      39.736 -26.055 -16.403  0.00  0.00    +0.295 HD
ENDBRANCH   7   8
ENDBRANCH   5   7
ENDBRANCH   1   5
BRANCH   1  10
ATOM     10  C   UNL     1      37.212 -24.913 -14.861  0.00  0.00    +0.137 C 
BRANCH  10  12
ATOM     11  O   UNL     1      34.795 -24.731 -14.585  0.00  0.00    -0.250 OA
ATOM     12  C   UNL     1      35.768 -25.346 -14.996  0.00  0.00    +0.316 C 
BRANCH  12  13
ATOM     13  O   UNL     1      35.689 -26.556 -15.606  0.00  0.00    -0.480 OA
ATOM     14  H   UNL     1      36.224 -27.266 -15.310  0.00  0.00    +0.295 HD
ENDBRANCH  12  13
ENDBRANCH  10  12
ENDBRANCH   1  10
TORSDOF 7
ENDMDL
MODEL 4
REMARK VINA RESULT:      -5.8      2.051      2.525
REMARK  Name = 1662
REMARK  7 active torsions:
REMARK  status: ('A' for Active; 'I' for Inactive)
REMARK    1  A    between atoms: C_1  and  O_3
REMARK    2  A    between atoms: C_1  and  C_5
REMARK    3  A    between atoms: C_1  and  C_10
REMARK    4  A    between atoms: C_5  and  C_7
REMARK    5  A    between atoms: C_7  and  O_8
REMARK    6  A    between atoms: C_10  and  C_12
REMARK    7  A    between atoms: C_12  and  O_13
REMARK                            x       y       z     vdW  Elec       q    Type
REMARK                         _______ _______ _______ _____ _____    ______ ____
ROOT
ATOM      1  C   UNL     1      37.267 -23.981 -14.586  0.00  0.00    +0.110 C 
ATOM      2  C   UNL     1      37.137 -22.823 -15.589  0.00  0.00    +0.030 C 
ENDROOT
BRANCH   1   3
ATOM      3  O   UNL     1      38.631 -24.409 -14.585  0.00  0.00    -0.386 OA
ATOM      4  H   UNL     1      39.178 -23.743 -14.140  0.00  0.00    +0.210 HD
ENDBRANCH   1   3
BRANCH   1   5
ATOM      5  C   UNL     1      36.379 -25.150 -15.068  0.00  0.00    +0.137 C 
BRANCH   5   7
ATOM      6  O   UNL     1      37.666 -26.972 -14.073  0.00  0.00    -0.250 OA
ATOM      7  C   UNL     1      37.032 -26.518 -15.014  0.00  0.00    +0.316 C 
BRANCH   7   8
ATOM      8  O   UNL     1      36.868 -27.194 -16.183  0.00  0.00    -0.480 OA
ATOM      9  H   UNL     1      37.402 -26.986 -16.925  0.00  0.00    +0.295 HD
ENDBRANCH   7   8
ENDBRANCH   5   7
ENDBRANCH   1   5
BRANCH   1  10
ATOM     10  C   UNL     1      36.874 -23.532 -13.165  0.00  0.00    +0.137 C 
BRANCH  10  12
ATOM     11  O   UNL     1      38.751 -23.157 -11.652  0.00  0.00    -0.250 OA
ATOM     12  C   UNL     1      37.884 -23.895 -12.097  0.00  0.00    +0.316 C 
BRANCH  12  13
ATOM     13  O   UNL     1      37.731 -25.189 -11.718  0.00  0.00    -0.480 OA
ATOM     14  H   UNL     1      37.553 -25.397 -10.821  0.00  0.00    +0.295 HD
ENDBRANCH  12  13
ENDBRANCH  10  12
ENDBRANCH   1  10
TORSDOF 7
ENDMDL
MODEL 5
REMARK VINA RESULT:      -5.7      1.258      3.873
REMARK  Name = 1662
REMARK  7 active torsions:
REMARK  status: ('A' for Active; 'I' for Inactive)
REMARK    1  A    between atoms: C_1  and  O_3
REMARK    2  A    between atoms: C_1  and  C_5
REMARK    3  A    between atoms: C_1  and  C_10
REMARK    4  A    between atoms: C_5  and  C_7
REMARK    5  A    between atoms: C_7  and  O_8
REMARK    6  A    between atoms: C_10  and  C_12
REMARK    7  A    between atoms: C_12  and  O_13
REMARK                            x       y       z     vdW  Elec       q    Type
REMARK                         _______ _______ _______ _____ _____    ______ ____
ROOT
ATOM      1  C   UNL     1      37.777 -25.186 -14.125  0.00  0.00    +0.110 C 
ATOM      2  C   UNL     1      36.631 -25.960 -14.795  0.00  0.00    +0.030 C 
ENDROOT
BRANCH   1   3
ATOM      3  O   UNL     1      38.475 -26.091 -13.266  0.00  0.00    -0.386 OA
ATOM      4  H   UNL     1      38.230 -27.002 -13.490  0.00  0.00    +0.210 HD
ENDBRANCH   1   3
BRANCH   1   5
ATOM      5  C   UNL     1      37.170 -24.054 -13.266  0.00  0.00    +0.137 C 
BRANCH   5   7
ATOM      6  O   UNL     1      37.082 -24.481 -10.863  0.00  0.00    -0.250 OA
ATOM      7  C   UNL     1      37.657 -24.004 -11.830  0.00  0.00    +0.316 C 
BRANCH   7   8
ATOM      8  O   UNL     1      38.822 -23.310 -11.724  0.00  0.00    -0.480 OA
ATOM      9  H   UNL     1      39.605 -23.747 -11.453  0.00  0.00    +0.295 HD
ENDBRANCH   7   8
ENDBRANCH   5   7
ENDBRANCH   1   5
BRANCH   1  10
ATOM     10  C   UNL     1      38.757 -24.625 -15.173  0.00  0.00    +0.137 C 
BRANCH  10  12
ATOM     11  O   UNL     1      40.982 -24.730 -14.178  0.00  0.00    -0.250 OA
ATOM     12  C   UNL     1      40.181 -25.113 -15.019  0.00  0.00    +0.316 C 
BRANCH  12  13
ATOM     13  O   UNL     1      40.480 -26.020 -15.983  0.00  0.00    -0.480 OA
ATOM     14  H   UNL     1      41.346 -26.374 -16.041  0.00  0.00    +0.295 HD
ENDBRANCH  12  13
ENDBRANCH  10  12
ENDBRANCH   1  10
TORSDOF 7
ENDMDL
MODEL 6
REMARK VINA RESULT:      -5.4      1.699      3.907
REMARK  Name = 1662
REMARK  7 active torsions:
REMARK  status: ('A' for Active; 'I' for Inactive)
REMARK    1  A    between atoms: C_1  and  O_3
REMARK    2  A    between atoms: C_1  and  C_5
REMARK    3  A    between atoms: C_1  and  C_10
REMARK    4  A    between atoms: C_5  and  C_7
REMARK    5  A    between atoms: C_7  and  O_8
REMARK    6  A    between atoms: C_10  and  C_12
REMARK    7  A    between atoms: C_12  and  O_13
REMARK                            x       y       z     vdW  Elec       q    Type
REMARK                         _______ _______ _______ _____ _____    ______ ____
ROOT
ATOM      1  C   UNL     1      36.303 -24.647 -13.665  0.00  0.00    +0.110 C 
ATOM      2  C   UNL     1      34.978 -24.770 -14.435  0.00  0.00    +0.030 C 
ENDROOT
BRANCH   1   3
ATOM      3  O   UNL     1      36.418 -25.784 -12.806  0.00  0.00    -0.386 OA
ATOM      4  H   UNL     1      37.222 -26.277 -13.030  0.00  0.00    +0.210 HD
ENDBRANCH   1   3
BRANCH   1   5
ATOM      5  C   UNL     1      36.249 -23.370 -12.797  0.00  0.00    +0.137 C 
BRANCH   5   7
ATOM      6  O   UNL     1      38.339 -22.902 -11.622  0.00  0.00    -0.250 OA
ATOM      7  C   UNL     1      37.204 -23.354 -11.617  0.00  0.00    +0.316 C 
BRANCH   7   8
ATOM      8  O   UNL     1      36.656 -23.955 -10.527  0.00  0.00    -0.480 OA
ATOM      9  H   UNL     1      35.910 -24.515 -10.625  0.00  0.00    +0.295 HD
ENDBRANCH   7   8
ENDBRANCH   5   7
ENDBRANCH   1   5
BRANCH   1  10
ATOM     10  C   UNL     1      37.505 -24.615 -14.629  0.00  0.00    +0.137 C 
BRANCH  10  12
ATOM     11  O   UNL     1      38.669 -26.760 -14.618  0.00  0.00    -0.250 OA
ATOM     12  C   UNL     1      38.611 -25.587 -14.276  0.00  0.00    +0.316 C 
BRANCH  12  13
ATOM     13  O   UNL     1      39.531 -24.992 -13.475  0.00  0.00    -0.480 OA
ATOM     14  H   UNL     1      39.932 -24.187 -13.741  0.00  0.00    +0.295 HD
ENDBRANCH  12  13
ENDBRANCH  10  12
ENDBRANCH   1  10
TORSDOF 7
ENDMDL
MODEL 7
REMARK VINA RESULT:      -5.4      1.717      4.135
REMARK  Name = 1662
REMARK  7 active torsions:
REMARK  status: ('A' for Active; 'I' for Inactive)
REMARK    1  A    between atoms: C_1  and  O_3
REMARK    2  A    between atoms: C_1  and  C_5
REMARK    3  A    between atoms: C_1  and  C_10
REMARK    4  A    between atoms: C_5  and  C_7
REMARK    5  A    between atoms: C_7  and  O_8
REMARK    6  A    between atoms: C_10  and  C_12
REMARK    7  A    between atoms: C_12  and  O_13
REMARK                            x       y       z     vdW  Elec       q    Type
REMARK                         _______ _______ _______ _____ _____    ______ ____
ROOT
ATOM      1  C   UNL     1      38.491 -25.215 -13.750  0.00  0.00    +0.110 C 
ATOM      2  C   UNL     1      39.980 -25.576 -13.871  0.00  0.00    +0.030 C 
ENDROOT
BRANCH   1   3
ATOM      3  O   UNL     1      38.220 -24.155 -14.670  0.00  0.00    -0.386 OA
ATOM      4  H   UNL     1      37.329 -23.808 -14.509  0.00  0.00    +0.210 HD
ENDBRANCH   1   3
BRANCH   1   5
ATOM      5  C   UNL     1      38.223 -24.709 -12.315  0.00  0.00    +0.137 C 
BRANCH   5   7
ATOM      6  O   UNL     1      36.277 -23.241 -12.461  0.00  0.00    -0.250 OA
ATOM      7  C   UNL     1      37.466 -23.397 -12.226  0.00  0.00    +0.316 C 
BRANCH   7   8
ATOM      8  O   UNL     1      38.290 -22.369 -11.886  0.00  0.00    -0.480 OA
ATOM      9  H   UNL     1      38.106 -21.501 -12.190  0.00  0.00    +0.295 HD
ENDBRANCH   7   8
ENDBRANCH   5   7
ENDBRANCH   1   5
BRANCH   1  10
ATOM     10  C   UNL     1      37.596 -26.423 -14.090  0.00  0.00    +0.137 C 
BRANCH  10  12
ATOM     11  O   UNL     1      35.890 -25.302 -15.426  0.00  0.00    -0.250 OA
ATOM     12  C   UNL     1      36.694 -26.212 -15.287  0.00  0.00    +0.316 C 
BRANCH  12  13
ATOM     13  O   UNL     1      36.861 -27.211 -16.190  0.00  0.00    -0.480 OA
ATOM     14  H   UNL     1      37.316 -27.045 -16.993  0.00  0.00    +0.295 HD
ENDBRANCH  12  13
ENDBRANCH  10  12
ENDBRANCH   1  10
TORSDOF 7
ENDMDL
MODEL 8
REMARK VINA RESULT:      -5.4      2.798      3.559
REMARK  Name = 1662
REMARK  7 active torsions:
REMARK  status: ('A' for Active; 'I' for Inactive)
REMARK    1  A    between atoms: C_1  and  O_3
REMARK    2  A    between atoms: C_1  and  C_5
REMARK    3  A    between atoms: C_1  and  C_10
REMARK    4  A    between atoms: C_5  and  C_7
REMARK    5  A    between atoms: C_7  and  O_8
REMARK    6  A    between atoms: C_10  and  C_12
REMARK    7  A    between atoms: C_12  and  O_13
REMARK                            x       y       z     vdW  Elec       q    Type
REMARK                         _______ _______ _______ _____ _____    ______ ____
ROOT
ATOM      1  C   UNL     1      37.405 -25.038 -13.020  0.00  0.00    +0.110 C 
ATOM      2  C   UNL     1      38.859 -25.534 -13.047  0.00  0.00    +0.030 C 
ENDROOT
BRANCH   1   3
ATOM      3  O   UNL     1      36.584 -26.112 -12.555  0.00  0.00    -0.386 OA
ATOM      4  H   UNL     1      37.123 -26.912 -12.457  0.00  0.00    +0.210 HD
ENDBRANCH   1   3
BRANCH   1   5
ATOM      5  C   UNL     1      36.982 -24.678 -14.462  0.00  0.00    +0.137 C 
BRANCH   5   7
ATOM      6  O   UNL     1      34.554 -24.769 -14.711  0.00  0.00    -0.250 OA
ATOM      7  C   UNL     1      35.655 -25.262 -14.909  0.00  0.00    +0.316 C 
BRANCH   7   8
ATOM      8  O   UNL     1      35.824 -26.456 -15.538  0.00  0.00    -0.480 OA
ATOM      9  H   UNL     1      36.623 -26.637 -15.994  0.00  0.00    +0.295 HD
ENDBRANCH   7   8
ENDBRANCH   5   7
ENDBRANCH   1   5
BRANCH   1  10
ATOM     10  C   UNL     1      37.245 -23.832 -12.075  0.00  0.00    +0.137 C 
BRANCH  10  12
ATOM     11  O   UNL     1      36.070 -24.230  -9.975  0.00  0.00    -0.250 OA
ATOM     12  C   UNL     1      36.046 -23.915 -11.156  0.00  0.00    +0.316 C 
BRANCH  12  13
ATOM     13  O   UNL     1      34.905 -23.634 -11.835  0.00  0.00    -0.480 OA
ATOM     14  H   UNL     1      34.378 -22.902 -11.582  0.00  0.00    +0.295 HD
ENDBRANCH  12  13
ENDBRANCH  10  12
ENDBRANCH   1  10
TORSDOF 7
ENDMDL
MODEL 9
REMARK VINA RESULT:      -5.4      2.800      4.627
REMARK  Name = 1662
REMARK  7 active torsions:
REMARK  status: ('A' for Active; 'I' for Inactive)
REMARK    1  A    between atoms: C_1  and  O_3
REMARK    2  A    between atoms: C_1  and  C_5
REMARK    3  A    between atoms: C_1  and  C_10
REMARK    4  A    between atoms: C_5  and  C_7
REMARK    5  A    between atoms: C_7  and  O_8
REMARK    6  A    between atoms: C_10  and  C_12
REMARK    7  A    between atoms: C_12  and  O_13
REMARK                            x       y       z     vdW  Elec       q    Type
REMARK                         _______ _______ _______ _____ _____    ______ ____
ROOT
ATOM      1  C   UNL     1      35.937 -24.342 -14.357  0.00  0.00    +0.110 C 
ATOM      2  C   UNL     1      35.348 -23.175 -15.165  0.00  0.00    +0.030 C 
ENDROOT
BRANCH   1   3
ATOM      3  O   UNL     1      34.910 -25.323 -14.190  0.00  0.00    -0.386 OA
ATOM      4  H   UNL     1      35.310 -26.170 -13.942  0.00  0.00    +0.210 HD
ENDBRANCH   1   3
BRANCH   1   5
ATOM      5  C   UNL     1      36.353 -23.816 -12.965  0.00  0.00    +0.137 C 
BRANCH   5   7
ATOM      6  O   UNL     1      34.959 -24.373 -11.039  0.00  0.00    -0.250 OA
ATOM      7  C   UNL     1      35.879 -24.654 -11.792  0.00  0.00    +0.316 C 
BRANCH   7   8
ATOM      8  O   UNL     1      36.641 -25.769 -11.638  0.00  0.00    -0.480 OA
ATOM      9  H   UNL     1      37.241 -25.832 -10.920  0.00  0.00    +0.295 HD
ENDBRANCH   7   8
ENDBRANCH   5   7
ENDBRANCH   1   5
BRANCH   1  10
ATOM     10  C   UNL     1      37.133 -24.980 -15.091  0.00  0.00    +0.137 C 
BRANCH  10  12
ATOM     11  O   UNL     1      37.591 -27.137 -14.048  0.00  0.00    -0.250 OA
ATOM     12  C   UNL     1      37.184 -26.490 -15.002  0.00  0.00    +0.316 C 
BRANCH  12  13
ATOM     13  O   UNL     1      36.753 -27.050 -16.161  0.00  0.00    -0.480 OA
ATOM     14  H   UNL     1      36.043 -26.662 -16.633  0.00  0.00    +0.295 HD
ENDBRANCH  12  13
ENDBRANCH  10  12
ENDBRANCH   1  10
TORSDOF 7
ENDMDL
