MODEL 1
REMARK VINA RESULT:      -1.9      0.000      0.000
REMARK  Name = 9867869
REMARK  5 active torsions:
REMARK  status: ('A' for Active; 'I' for Inactive)
REMARK    1  A    between atoms: C_12  and  C_24
REMARK    2  A    between atoms: C_13  and  O_28
REMARK    3  A    between atoms: C_14  and  O_30
REMARK    4  A    between atoms: C_16  and  O_32
REMARK    5  A    between atoms: C_18  and  O_34
REMARK                            x       y       z     vdW  Elec       q    Type
REMARK                         _______ _______ _______ _____ _____    ______ ____
ROOT
ATOM      1  O   UNL     1      37.013 -25.997 -14.803  0.00  0.00    -0.312 OA
ATOM      2  O   UNL     1      36.156 -25.625 -11.546  0.00  0.00    -0.448 OA
ATOM      3  O   UNL     1      36.889 -24.265 -16.415  0.00  0.00    -0.423 OA
ATOM      4  O   UNL     1      39.508 -24.118 -15.143  0.00  0.00    -0.447 OA
ATOM      5  O   UNL     1      36.777 -27.625 -12.462  0.00  0.00    -0.247 OA
ATOM      6  O   UNL     1      37.150 -22.032 -16.890  0.00  0.00    -0.247 OA
ATOM      7  O   UNL     1      40.279 -25.734 -16.572  0.00  0.00    -0.250 OA
ATOM      8  C   UNL     1      36.826 -24.132 -13.304  0.00  0.00    +0.111 C 
ATOM      9  C   UNL     1      35.701 -24.044 -14.389  0.00  0.00    +0.110 C 
ATOM     10  C   UNL     1      37.407 -25.533 -13.518  0.00  0.00    +0.216 C 
ATOM     11  C   UNL     1      36.108 -24.241 -11.947  0.00  0.00    +0.201 C 
ATOM     12  C   UNL     1      34.417 -24.474 -13.623  0.00  0.00    +0.040 C 
ATOM     13  C   UNL     1      38.935 -25.445 -13.309  0.00  0.00    +0.170 C 
ATOM     14  C   UNL     1      38.049 -23.179 -13.400  0.00  0.00    +0.159 C 
ATOM     15  C   UNL     1      36.167 -25.037 -15.438  0.00  0.00    +0.294 C 
ATOM     16  C   UNL     1      34.658 -23.864 -12.239  0.00  0.00    +0.151 C 
ATOM     17  C   UNL     1      39.275 -24.034 -13.736  0.00  0.00    +0.223 C 
ATOM     18  C   UNL     1      35.533 -22.780 -15.231  0.00  0.00    +0.216 C 
ATOM     19  C   UNL     1      36.755 -26.404 -12.485  0.00  0.00    +0.344 C 
ATOM     20  C   UNL     1      39.783 -26.290 -14.256  0.00  0.00    +0.130 C 
ATOM     21  C   UNL     1      36.615 -22.932 -16.264  0.00  0.00    +0.346 C 
ATOM     22  C   UNL     1      39.894 -25.391 -15.464  0.00  0.00    +0.319 C 
ATOM     23  C   UNL     1      41.180 -26.626 -13.749  0.00  0.00    +0.014 C 
ENDROOT
BRANCH  12  24
ATOM     24  C   UNL     1      33.074 -24.066 -14.219  0.00  0.00    +0.003 C 
ATOM     25  C   UNL     1      33.220 -23.846 -15.735  0.00  0.00    +0.000 C 
ATOM     26  C   UNL     1      32.034 -25.174 -13.968  0.00  0.00    +0.000 C 
ATOM     27  C   UNL     1      32.585 -22.761 -13.565  0.00  0.00    +0.000 C 
ENDBRANCH  12  24
BRANCH  13  28
ATOM     28  O   UNL     1      39.296 -25.583 -11.943  0.00  0.00    -0.380 OA
ATOM     29  H   UNL     1      38.759 -24.982 -11.404  0.00  0.00    +0.211 HD
ENDBRANCH  13  28
BRANCH  14  30
ATOM     30  O   UNL     1      38.278 -22.524 -12.157  0.00  0.00    -0.380 OA
ATOM     31  H   UNL     1      37.731 -21.724 -12.108  0.00  0.00    +0.210 HD
ENDBRANCH  14  30
BRANCH  16  32
ATOM     32  O   UNL     1      33.785 -24.375 -11.250  0.00  0.00    -0.381 OA
ATOM     33  H   UNL     1      33.893 -25.337 -11.189  0.00  0.00    +0.210 HD
ENDBRANCH  16  32
BRANCH  18  34
ATOM     34  O   UNL     1      35.508 -21.569 -14.530  0.00  0.00    -0.374 OA
ATOM     35  H   UNL     1      36.417 -21.268 -14.372  0.00  0.00    +0.211 HD
ENDBRANCH  18  34
TORSDOF 5
ENDMDL
MODEL 2
REMARK VINA RESULT:      -0.9      1.844      4.759
REMARK  Name = 9867869
REMARK  5 active torsions:
REMARK  status: ('A' for Active; 'I' for Inactive)
REMARK    1  A    between atoms: C_12  and  C_24
REMARK    2  A    between atoms: C_13  and  O_28
REMARK    3  A    between atoms: C_14  and  O_30
REMARK    4  A    between atoms: C_16  and  O_32
REMARK    5  A    between atoms: C_18  and  O_34
REMARK                            x       y       z     vdW  Elec       q    Type
REMARK                         _______ _______ _______ _____ _____    ______ ____
ROOT
ATOM      1  O   UNL     1      35.150 -22.582 -13.835  0.00  0.00    -0.312 OA
ATOM      2  O   UNL     1      35.828 -23.243 -17.089  0.00  0.00    -0.448 OA
ATOM      3  O   UNL     1      33.521 -23.734 -12.558  0.00  0.00    -0.423 OA
ATOM      4  O   UNL     1      36.031 -25.199 -12.338  0.00  0.00    -0.447 OA
ATOM      5  O   UNL     1      36.794 -21.528 -15.927  0.00  0.00    -0.247 OA
ATOM      6  O   UNL     1      32.478 -25.725 -12.082  0.00  0.00    -0.247 OA
ATOM      7  O   UNL     1      36.699 -23.778 -10.668  0.00  0.00    -0.250 OA
ATOM      8  C   UNL     1      34.845 -24.476 -15.277  0.00  0.00    +0.111 C 
ATOM      9  C   UNL     1      33.449 -23.869 -14.912  0.00  0.00    +0.110 C 
ATOM     10  C   UNL     1      35.829 -23.424 -14.758  0.00  0.00    +0.216 C 
ATOM     11  C   UNL     1      34.973 -24.370 -16.807  0.00  0.00    +0.201 C 
ATOM     12  C   UNL     1      33.022 -23.123 -16.209  0.00  0.00    +0.040 C 
ATOM     13  C   UNL     1      37.047 -24.168 -14.171  0.00  0.00    +0.170 C 
ATOM     14  C   UNL     1      35.295 -25.801 -14.604  0.00  0.00    +0.159 C 
ATOM     15  C   UNL     1      33.775 -22.957 -13.743  0.00  0.00    +0.294 C 
ATOM     16  C   UNL     1      33.563 -24.051 -17.298  0.00  0.00    +0.151 C 
ATOM     17  C   UNL     1      36.464 -25.473 -13.671  0.00  0.00    +0.223 C 
ATOM     18  C   UNL     1      32.355 -24.747 -14.308  0.00  0.00    +0.216 C 
ATOM     19  C   UNL     1      36.208 -22.598 -15.954  0.00  0.00    +0.344 C 
ATOM     20  C   UNL     1      37.643 -23.566 -12.901  0.00  0.00    +0.130 C 
ATOM     21  C   UNL     1      32.772 -24.838 -12.865  0.00  0.00    +0.346 C 
ATOM     22  C   UNL     1      36.759 -24.158 -11.828  0.00  0.00    +0.319 C 
ATOM     23  C   UNL     1      39.093 -23.944 -12.623  0.00  0.00    +0.014 C 
ENDROOT
BRANCH  12  24
ATOM     24  C   UNL     1      31.539 -22.812 -16.385  0.00  0.00    +0.003 C 
ATOM     25  C   UNL     1      30.983 -22.172 -15.101  0.00  0.00    +0.000 C 
ATOM     26  C   UNL     1      31.347 -21.835 -17.559  0.00  0.00    +0.000 C 
ATOM     27  C   UNL     1      30.764 -24.109 -16.678  0.00  0.00    +0.000 C 
ENDBRANCH  12  24
BRANCH  13  28
ATOM     28  O   UNL     1      38.014 -24.479 -15.163  0.00  0.00    -0.380 OA
ATOM     29  H   UNL     1      38.904 -24.373 -14.791  0.00  0.00    +0.211 HD
ENDBRANCH  13  28
BRANCH  14  30
ATOM     30  O   UNL     1      35.742 -26.737 -15.581  0.00  0.00    -0.380 OA
ATOM     31  H   UNL     1      34.980 -27.225 -15.934  0.00  0.00    +0.210 HD
ENDBRANCH  14  30
BRANCH  16  32
ATOM     32  O   UNL     1      33.589 -23.447 -18.578  0.00  0.00    -0.381 OA
ATOM     33  H   UNL     1      33.839 -24.108 -19.242  0.00  0.00    +0.210 HD
ENDBRANCH  16  32
BRANCH  18  34
ATOM     34  O   UNL     1      32.105 -25.960 -14.960  0.00  0.00    -0.374 OA
ATOM     35  H   UNL     1      32.945 -26.408 -15.143  0.00  0.00    +0.211 HD
ENDBRANCH  18  34
TORSDOF 5
ENDMDL
MODEL 3
REMARK VINA RESULT:       1.0      2.010      5.377
REMARK  Name = 9867869
REMARK  5 active torsions:
REMARK  status: ('A' for Active; 'I' for Inactive)
REMARK    1  A    between atoms: C_12  and  C_24
REMARK    2  A    between atoms: C_13  and  O_28
REMARK    3  A    between atoms: C_14  and  O_30
REMARK    4  A    between atoms: C_16  and  O_32
REMARK    5  A    between atoms: C_18  and  O_34
REMARK                            x       y       z     vdW  Elec       q    Type
REMARK                         _______ _______ _______ _____ _____    ______ ____
ROOT
ATOM      1  O   UNL     1      34.010 -22.275 -14.669  0.00  0.00    -0.312 OA
ATOM      2  O   UNL     1      33.645 -24.920 -12.582  0.00  0.00    -0.448 OA
ATOM      3  O   UNL     1      35.930 -21.893 -16.005  0.00  0.00    -0.423 OA
ATOM      4  O   UNL     1      34.102 -23.579 -17.525  0.00  0.00    -0.447 OA
ATOM      5  O   UNL     1      32.121 -23.223 -12.741  0.00  0.00    -0.247 OA
ATOM      6  O   UNL     1      37.607 -22.788 -17.295  0.00  0.00    -0.247 OA
ATOM      7  O   UNL     1      32.956 -21.710 -18.195  0.00  0.00    -0.250 OA
ATOM      8  C   UNL     1      34.983 -24.464 -14.524  0.00  0.00    +0.111 C 
ATOM      9  C   UNL     1      36.068 -23.388 -14.185  0.00  0.00    +0.110 C 
ATOM     10  C   UNL     1      33.684 -23.653 -14.547  0.00  0.00    +0.216 C 
ATOM     11  C   UNL     1      34.841 -25.342 -13.268  0.00  0.00    +0.201 C 
ATOM     12  C   UNL     1      36.216 -23.488 -12.640  0.00  0.00    +0.040 C 
ATOM     13  C   UNL     1      32.804 -24.207 -15.688  0.00  0.00    +0.170 C 
ATOM     14  C   UNL     1      35.027 -25.177 -15.903  0.00  0.00    +0.159 C 
ATOM     15  C   UNL     1      35.428 -22.101 -14.671  0.00  0.00    +0.294 C 
ATOM     16  C   UNL     1      36.051 -24.992 -12.405  0.00  0.00    +0.151 C 
ATOM     17  C   UNL     1      33.808 -24.710 -16.704  0.00  0.00    +0.223 C 
ATOM     18  C   UNL     1      37.397 -23.362 -14.939  0.00  0.00    +0.216 C 
ATOM     19  C   UNL     1      33.050 -23.867 -13.203  0.00  0.00    +0.344 C 
ATOM     20  C   UNL     1      32.020 -23.168 -16.485  0.00  0.00    +0.130 C 
ATOM     21  C   UNL     1      37.025 -22.684 -16.229  0.00  0.00    +0.346 C 
ATOM     22  C   UNL     1      33.046 -22.708 -17.495  0.00  0.00    +0.319 C 
ATOM     23  C   UNL     1      30.797 -23.702 -17.220  0.00  0.00    +0.014 C 
ENDROOT
BRANCH  12  24
ATOM     24  C   UNL     1      37.493 -22.933 -12.018  0.00  0.00    +0.003 C 
ATOM     25  C   UNL     1      37.978 -21.713 -12.820  0.00  0.00    +0.000 C 
ATOM     26  C   UNL     1      37.223 -22.505 -10.564  0.00  0.00    +0.000 C 
ATOM     27  C   UNL     1      38.592 -24.011 -12.028  0.00  0.00    +0.000 C 
ENDBRANCH  12  24
BRANCH  13  28
ATOM     28  O   UNL     1      32.021 -25.315 -15.270  0.00  0.00    -0.380 OA
ATOM     29  H   UNL     1      32.261 -25.557 -14.363  0.00  0.00    +0.211 HD
ENDBRANCH  13  28
BRANCH  14  30
ATOM     30  O   UNL     1      34.951 -26.591 -15.743  0.00  0.00    -0.380 OA
ATOM     31  H   UNL     1      34.940 -26.809 -14.798  0.00  0.00    +0.210 HD
ENDBRANCH  14  30
BRANCH  16  32
ATOM     32  O   UNL     1      35.825 -25.318 -11.047  0.00  0.00    -0.381 OA
ATOM     33  H   UNL     1      36.536 -24.945 -10.503  0.00  0.00    +0.210 HD
ENDBRANCH  16  32
BRANCH  18  34
ATOM     34  O   UNL     1      38.069 -24.585 -15.051  0.00  0.00    -0.374 OA
ATOM     35  H   UNL     1      37.538 -25.197 -15.585  0.00  0.00    +0.211 HD
ENDBRANCH  18  34
TORSDOF 5
ENDMDL
