MODEL 1
REMARK VINA RESULT:      -7.6      0.000      0.000
REMARK  Name = 6918546
REMARK  14 active torsions:
REMARK  status: ('A' for Active; 'I' for Inactive)
REMARK    1  A    between atoms: C_1  and  C_9
REMARK    2  A    between atoms: C_2  and  O_23
REMARK    3  A    between atoms: C_3  and  O_30
REMARK    4  A    between atoms: C_5  and  O_7
REMARK    5  A    between atoms: C_10  and  C_11
REMARK    6  A    between atoms: C_14  and  O_17
REMARK    7  A    between atoms: C_15  and  O_19
REMARK    8  A    between atoms: C_16  and  O_21
REMARK    9  A    between atoms: O_23  and  P_24
REMARK   10  A    between atoms: P_24  and  O_26
REMARK   11  A    between atoms: P_24  and  O_28
REMARK   12  A    between atoms: O_30  and  P_31
REMARK   13  A    between atoms: P_31  and  O_33
REMARK   14  A    between atoms: P_31  and  O_35
REMARK                            x       y       z     vdW  Elec       q    Type
REMARK                         _______ _______ _______ _____ _____    ______ ____
ROOT
ATOM      1  C   UNL     1      32.645 -11.004 -22.709  0.00  0.00    +0.038 C 
ATOM      2  C   UNL     1      32.677  -9.610 -22.678  0.00  0.00    +0.186 C 
ATOM      3  C   UNL     1      33.525  -8.913 -23.539  0.00  0.00    +0.217 C 
ATOM      4  C   UNL     1      33.460 -11.701 -23.601  0.00  0.00    +0.006 C 
ATOM      5  C   UNL     1      34.341  -9.609 -24.430  0.00  0.00    +0.176 C 
ATOM      6  C   UNL     1      34.308 -11.004 -24.461  0.00  0.00    +0.040 C 
ENDROOT
BRANCH   5   7
ATOM      7  O   UNL     1      35.173  -8.941 -25.276  0.00  0.00    -0.468 OA
ATOM      8  C   UNL     1      35.872  -9.718 -26.247  0.00  0.00    +0.253 C 
ENDBRANCH   5   7
BRANCH   1   9
ATOM      9  C   UNL     1      31.769 -11.757 -21.821  0.00  0.00    +0.003 C 
ATOM     10  C   UNL     1      31.754 -13.104 -21.699  0.00  0.00    +0.000 C 
BRANCH  10  11
ATOM     11  C   UNL     1      32.622 -14.031 -22.445  0.00  0.00    +0.006 C 
ATOM     12  C   UNL     1      32.486 -14.153 -23.828  0.00  0.00    +0.040 C 
ATOM     13  C   UNL     1      33.579 -14.788 -21.770  0.00  0.00    +0.040 C 
ATOM     14  C   UNL     1      34.401 -15.666 -22.477  0.00  0.00    +0.175 C 
ATOM     15  C   UNL     1      33.307 -15.031 -24.535  0.00  0.00    +0.175 C 
ATOM     16  C   UNL     1      34.265 -15.788 -23.859  0.00  0.00    +0.206 C 
BRANCH  14  17
ATOM     17  O   UNL     1      35.332 -16.398 -21.805  0.00  0.00    -0.468 OA
ATOM     18  C   UNL     1      34.874 -17.570 -21.132  0.00  0.00    +0.253 C 
ENDBRANCH  14  17
BRANCH  15  19
ATOM     19  O   UNL     1      33.165 -15.141 -25.885  0.00  0.00    -0.468 OA
ATOM     20  C   UNL     1      33.071 -13.928 -26.629  0.00  0.00    +0.253 C 
ENDBRANCH  15  19
BRANCH  16  21
ATOM     21  O   UNL     1      35.066 -16.647 -24.551  0.00  0.00    -0.465 OA
ATOM     22  C   UNL     1      34.543 -17.945 -24.822  0.00  0.00    +0.253 C 
ENDBRANCH  16  21
ENDBRANCH  10  11
ENDBRANCH   1   9
BRANCH   2  23
ATOM     23  O   UNL     1      31.882  -8.916 -21.812  0.00  0.00    -0.399 OA
BRANCH  23  24
ATOM     24  P   UNL     1      32.353  -8.341 -20.377  0.00  0.00    +0.528 P 
ATOM     25  O   UNL     1      32.276  -9.316 -19.237  0.00  0.00    -0.216 OA
BRANCH  24  26
ATOM     26  O   UNL     1      31.421  -7.030 -20.197  0.00  0.00    -0.293 OA
ATOM     27  H   UNL     1      31.481  -6.713 -19.282  0.00  0.00    +0.223 HD
ENDBRANCH  24  26
BRANCH  24  28
ATOM     28  O   UNL     1      33.815  -7.709 -20.662  0.00  0.00    -0.293 OA
ATOM     29  H   UNL     1      33.780  -6.747 -20.541  0.00  0.00    +0.223 HD
ENDBRANCH  24  28
ENDBRANCH  23  24
ENDBRANCH   2  23
BRANCH   3  30
ATOM     30  O   UNL     1      33.558  -7.549 -23.511  0.00  0.00    -0.396 OA
BRANCH  30  31
ATOM     31  P   UNL     1      32.417  -6.579 -24.121  0.00  0.00    +0.528 P 
ATOM     32  O   UNL     1      32.855  -5.716 -25.268  0.00  0.00    -0.216 OA
BRANCH  31  33
ATOM     33  O   UNL     1      31.917  -5.756 -22.820  0.00  0.00    -0.293 OA
ATOM     34  H   UNL     1      32.662  -5.632 -22.210  0.00  0.00    +0.223 HD
ENDBRANCH  31  33
BRANCH  31  35
ATOM     35  O   UNL     1      31.175  -7.569 -24.423  0.00  0.00    -0.293 OA
ATOM     36  H   UNL     1      31.450  -8.251 -25.056  0.00  0.00    +0.223 HD
ENDBRANCH  31  35
ENDBRANCH  30  31
ENDBRANCH   3  30
TORSDOF 14
ENDMDL
MODEL 2
REMARK VINA RESULT:      -7.5      0.019      2.254
REMARK  Name = 6918546
REMARK  14 active torsions:
REMARK  status: ('A' for Active; 'I' for Inactive)
REMARK    1  A    between atoms: C_1  and  C_9
REMARK    2  A    between atoms: C_2  and  O_23
REMARK    3  A    between atoms: C_3  and  O_30
REMARK    4  A    between atoms: C_5  and  O_7
REMARK    5  A    between atoms: C_10  and  C_11
REMARK    6  A    between atoms: C_14  and  O_17
REMARK    7  A    between atoms: C_15  and  O_19
REMARK    8  A    between atoms: C_16  and  O_21
REMARK    9  A    between atoms: O_23  and  P_24
REMARK   10  A    between atoms: P_24  and  O_26
REMARK   11  A    between atoms: P_24  and  O_28
REMARK   12  A    between atoms: O_30  and  P_31
REMARK   13  A    between atoms: P_31  and  O_33
REMARK   14  A    between atoms: P_31  and  O_35
REMARK                            x       y       z     vdW  Elec       q    Type
REMARK                         _______ _______ _______ _____ _____    ______ ____
ROOT
ATOM      1  C   UNL     1      32.639 -11.000 -22.714  0.00  0.00    +0.038 C 
ATOM      2  C   UNL     1      32.676  -9.606 -22.682  0.00  0.00    +0.186 C 
ATOM      3  C   UNL     1      33.528  -8.912 -23.542  0.00  0.00    +0.217 C 
ATOM      4  C   UNL     1      33.450 -11.699 -23.607  0.00  0.00    +0.006 C 
ATOM      5  C   UNL     1      34.340  -9.611 -24.435  0.00  0.00    +0.176 C 
ATOM      6  C   UNL     1      34.301 -11.005 -24.467  0.00  0.00    +0.040 C 
ENDROOT
BRANCH   5   7
ATOM      7  O   UNL     1      35.175  -8.945 -25.279  0.00  0.00    -0.468 OA
ATOM      8  C   UNL     1      35.879  -9.726 -26.244  0.00  0.00    +0.253 C 
ENDBRANCH   5   7
BRANCH   1   9
ATOM      9  C   UNL     1      31.760 -11.750 -21.827  0.00  0.00    +0.003 C 
ATOM     10  C   UNL     1      31.746 -13.096 -21.698  0.00  0.00    +0.000 C 
BRANCH  10  11
ATOM     11  C   UNL     1      32.619 -14.026 -22.435  0.00  0.00    +0.006 C 
ATOM     12  C   UNL     1      33.576 -14.775 -21.751  0.00  0.00    +0.040 C 
ATOM     13  C   UNL     1      32.490 -14.157 -23.818  0.00  0.00    +0.040 C 
ATOM     14  C   UNL     1      33.317 -15.038 -24.515  0.00  0.00    +0.175 C 
ATOM     15  C   UNL     1      34.403 -15.656 -22.448  0.00  0.00    +0.175 C 
ATOM     16  C   UNL     1      34.273 -15.787 -23.831  0.00  0.00    +0.206 C 
BRANCH  14  17
ATOM     17  O   UNL     1      33.179 -15.157 -25.865  0.00  0.00    -0.468 OA
ATOM     18  C   UNL     1      33.057 -13.949 -26.614  0.00  0.00    +0.253 C 
ENDBRANCH  14  17
BRANCH  15  19
ATOM     19  O   UNL     1      35.333 -16.382 -21.768  0.00  0.00    -0.468 OA
ATOM     20  C   UNL     1      34.882 -17.566 -21.116  0.00  0.00    +0.253 C 
ENDBRANCH  15  19
BRANCH  16  21
ATOM     21  O   UNL     1      35.083 -16.647 -24.512  0.00  0.00    -0.465 OA
ATOM     22  C   UNL     1      34.557 -17.941 -24.798  0.00  0.00    +0.253 C 
ENDBRANCH  16  21
ENDBRANCH  10  11
ENDBRANCH   1   9
BRANCH   2  23
ATOM     23  O   UNL     1      31.885  -8.909 -21.815  0.00  0.00    -0.399 OA
BRANCH  23  24
ATOM     24  P   UNL     1      32.358  -8.338 -20.379  0.00  0.00    +0.528 P 
ATOM     25  O   UNL     1      32.277  -9.315 -19.241  0.00  0.00    -0.216 OA
BRANCH  24  26
ATOM     26  O   UNL     1      31.432  -7.023 -20.198  0.00  0.00    -0.293 OA
ATOM     27  H   UNL     1      31.440  -6.506 -21.018  0.00  0.00    +0.223 HD
ENDBRANCH  24  26
BRANCH  24  28
ATOM     28  O   UNL     1      33.823  -7.712 -20.664  0.00  0.00    -0.293 OA
ATOM     29  H   UNL     1      34.327  -8.316 -21.232  0.00  0.00    +0.223 HD
ENDBRANCH  24  28
ENDBRANCH  23  24
ENDBRANCH   2  23
BRANCH   3  30
ATOM     30  O   UNL     1      33.566  -7.548 -23.513  0.00  0.00    -0.396 OA
BRANCH  30  31
ATOM     31  P   UNL     1      32.430  -6.572 -24.123  0.00  0.00    +0.528 P 
ATOM     32  O   UNL     1      32.872  -5.709 -25.268  0.00  0.00    -0.216 OA
BRANCH  31  33
ATOM     33  O   UNL     1      31.932  -5.750 -22.821  0.00  0.00    -0.293 OA
ATOM     34  H   UNL     1      32.699  -5.498 -22.284  0.00  0.00    +0.223 HD
ENDBRANCH  31  33
BRANCH  31  35
ATOM     35  O   UNL     1      31.184  -7.557 -24.428  0.00  0.00    -0.293 OA
ATOM     36  H   UNL     1      31.491  -8.316 -24.948  0.00  0.00    +0.223 HD
ENDBRANCH  31  35
ENDBRANCH  30  31
ENDBRANCH   3  30
TORSDOF 14
ENDMDL
MODEL 3
REMARK VINA RESULT:      -7.3     10.125     15.388
REMARK  Name = 6918546
REMARK  14 active torsions:
REMARK  status: ('A' for Active; 'I' for Inactive)
REMARK    1  A    between atoms: C_1  and  C_9
REMARK    2  A    between atoms: C_2  and  O_23
REMARK    3  A    between atoms: C_3  and  O_30
REMARK    4  A    between atoms: C_5  and  O_7
REMARK    5  A    between atoms: C_10  and  C_11
REMARK    6  A    between atoms: C_14  and  O_17
REMARK    7  A    between atoms: C_15  and  O_19
REMARK    8  A    between atoms: C_16  and  O_21
REMARK    9  A    between atoms: O_23  and  P_24
REMARK   10  A    between atoms: P_24  and  O_26
REMARK   11  A    between atoms: P_24  and  O_28
REMARK   12  A    between atoms: O_30  and  P_31
REMARK   13  A    between atoms: P_31  and  O_33
REMARK   14  A    between atoms: P_31  and  O_35
REMARK                            x       y       z     vdW  Elec       q    Type
REMARK                         _______ _______ _______ _____ _____    ______ ____
ROOT
ATOM      1  C   UNL     1      36.560 -22.834 -15.704  0.00  0.00    +0.038 C 
ATOM      2  C   UNL     1      36.750 -23.691 -14.619  0.00  0.00    +0.186 C 
ATOM      3  C   UNL     1      35.661 -24.073 -13.835  0.00  0.00    +0.217 C 
ATOM      4  C   UNL     1      35.283 -22.362 -16.005  0.00  0.00    +0.006 C 
ATOM      5  C   UNL     1      34.384 -23.600 -14.135  0.00  0.00    +0.176 C 
ATOM      6  C   UNL     1      34.195 -22.744 -15.221  0.00  0.00    +0.040 C 
ENDROOT
BRANCH   5   7
ATOM      7  O   UNL     1      33.314 -23.966 -13.377  0.00  0.00    -0.468 OA
ATOM      8  C   UNL     1      32.037 -23.471 -13.777  0.00  0.00    +0.253 C 
ENDBRANCH   5   7
BRANCH   1   9
ATOM      9  C   UNL     1      37.679 -22.419 -16.539  0.00  0.00    +0.003 C 
ATOM     10  C   UNL     1      37.572 -21.906 -17.787  0.00  0.00    +0.000 C 
BRANCH  10  11
ATOM     11  C   UNL     1      36.306 -21.684 -18.505  0.00  0.00    +0.006 C 
ATOM     12  C   UNL     1      36.225 -20.694 -19.484  0.00  0.00    +0.040 C 
ATOM     13  C   UNL     1      35.188 -22.462 -18.207  0.00  0.00    +0.040 C 
ATOM     14  C   UNL     1      33.989 -22.251 -18.888  0.00  0.00    +0.175 C 
ATOM     15  C   UNL     1      35.026 -20.483 -20.165  0.00  0.00    +0.175 C 
ATOM     16  C   UNL     1      33.908 -21.262 -19.866  0.00  0.00    +0.206 C 
BRANCH  14  17
ATOM     17  O   UNL     1      32.906 -23.020 -18.588  0.00  0.00    -0.468 OA
ATOM     18  C   UNL     1      32.044 -22.550 -17.552  0.00  0.00    +0.253 C 
ENDBRANCH  14  17
BRANCH  15  19
ATOM     19  O   UNL     1      34.959 -19.512 -21.119  0.00  0.00    -0.468 OA
ATOM     20  C   UNL     1      36.055 -18.604 -21.198  0.00  0.00    +0.253 C 
ENDBRANCH  15  19
BRANCH  16  21
ATOM     21  O   UNL     1      32.736 -21.054 -20.532  0.00  0.00    -0.465 OA
ATOM     22  C   UNL     1      32.242 -19.717 -20.571  0.00  0.00    +0.253 C 
ENDBRANCH  16  21
ENDBRANCH  10  11
ENDBRANCH   1   9
BRANCH   2  23
ATOM     23  O   UNL     1      37.994 -24.163 -14.316  0.00  0.00    -0.399 OA
BRANCH  23  24
ATOM     24  P   UNL     1      38.533 -25.647 -14.658  0.00  0.00    +0.528 P 
ATOM     25  O   UNL     1      38.866 -26.501 -13.468  0.00  0.00    -0.216 OA
BRANCH  24  26
ATOM     26  O   UNL     1      39.786 -25.353 -15.639  0.00  0.00    -0.293 OA
ATOM     27  H   UNL     1      40.369 -26.127 -15.662  0.00  0.00    +0.223 HD
ENDBRANCH  24  26
BRANCH  24  28
ATOM     28  O   UNL     1      37.420 -26.252 -15.665  0.00  0.00    -0.293 OA
ATOM     29  H   UNL     1      37.770 -26.254 -16.569  0.00  0.00    +0.223 HD
ENDBRANCH  24  28
ENDBRANCH  23  24
ENDBRANCH   2  23
BRANCH   3  30
ATOM     30  O   UNL     1      35.844 -24.911 -12.774  0.00  0.00    -0.396 OA
BRANCH  30  31
ATOM     31  P   UNL     1      36.286 -24.449 -11.288  0.00  0.00    +0.528 P 
ATOM     32  O   UNL     1      35.416 -24.953 -10.174  0.00  0.00    -0.216 OA
BRANCH  31  33
ATOM     33  O   UNL     1      36.337 -22.836 -11.419  0.00  0.00    -0.293 OA
ATOM     34  H   UNL     1      36.381 -22.442 -10.534  0.00  0.00    +0.223 HD
ENDBRANCH  31  33
BRANCH  31  35
ATOM     35  O   UNL     1      37.848 -24.855 -11.196  0.00  0.00    -0.293 OA
ATOM     36  H   UNL     1      38.368 -24.081 -10.927  0.00  0.00    +0.223 HD
ENDBRANCH  31  35
ENDBRANCH  30  31
ENDBRANCH   3  30
TORSDOF 14
ENDMDL
MODEL 4
REMARK VINA RESULT:      -7.3     10.125     15.507
REMARK  Name = 6918546
REMARK  14 active torsions:
REMARK  status: ('A' for Active; 'I' for Inactive)
REMARK    1  A    between atoms: C_1  and  C_9
REMARK    2  A    between atoms: C_2  and  O_23
REMARK    3  A    between atoms: C_3  and  O_30
REMARK    4  A    between atoms: C_5  and  O_7
REMARK    5  A    between atoms: C_10  and  C_11
REMARK    6  A    between atoms: C_14  and  O_17
REMARK    7  A    between atoms: C_15  and  O_19
REMARK    8  A    between atoms: C_16  and  O_21
REMARK    9  A    between atoms: O_23  and  P_24
REMARK   10  A    between atoms: P_24  and  O_26
REMARK   11  A    between atoms: P_24  and  O_28
REMARK   12  A    between atoms: O_30  and  P_31
REMARK   13  A    between atoms: P_31  and  O_33
REMARK   14  A    between atoms: P_31  and  O_35
REMARK                            x       y       z     vdW  Elec       q    Type
REMARK                         _______ _______ _______ _____ _____    ______ ____
ROOT
ATOM      1  C   UNL     1      36.566 -22.849 -15.712  0.00  0.00    +0.038 C 
ATOM      2  C   UNL     1      36.762 -23.702 -14.624  0.00  0.00    +0.186 C 
ATOM      3  C   UNL     1      35.676 -24.089 -13.838  0.00  0.00    +0.217 C 
ATOM      4  C   UNL     1      35.286 -22.386 -16.013  0.00  0.00    +0.006 C 
ATOM      5  C   UNL     1      34.396 -23.625 -14.139  0.00  0.00    +0.176 C 
ATOM      6  C   UNL     1      34.201 -22.773 -15.227  0.00  0.00    +0.040 C 
ENDROOT
BRANCH   5   7
ATOM      7  O   UNL     1      33.328 -23.996 -13.379  0.00  0.00    -0.468 OA
ATOM      8  C   UNL     1      32.237 -24.619 -14.055  0.00  0.00    +0.253 C 
ENDBRANCH   5   7
BRANCH   1   9
ATOM      9  C   UNL     1      37.682 -22.429 -16.548  0.00  0.00    +0.003 C 
ATOM     10  C   UNL     1      37.571 -21.913 -17.794  0.00  0.00    +0.000 C 
BRANCH  10  11
ATOM     11  C   UNL     1      36.302 -21.691 -18.508  0.00  0.00    +0.006 C 
ATOM     12  C   UNL     1      35.185 -22.468 -18.203  0.00  0.00    +0.040 C 
ATOM     13  C   UNL     1      36.217 -20.704 -19.490  0.00  0.00    +0.040 C 
ATOM     14  C   UNL     1      35.014 -20.494 -20.166  0.00  0.00    +0.175 C 
ATOM     15  C   UNL     1      33.983 -22.259 -18.879  0.00  0.00    +0.175 C 
ATOM     16  C   UNL     1      33.898 -21.271 -19.861  0.00  0.00    +0.206 C 
BRANCH  14  17
ATOM     17  O   UNL     1      34.945 -19.526 -21.122  0.00  0.00    -0.468 OA
ATOM     18  C   UNL     1      36.021 -18.590 -21.176  0.00  0.00    +0.253 C 
ENDBRANCH  14  17
BRANCH  15  19
ATOM     19  O   UNL     1      32.899 -23.025 -18.572  0.00  0.00    -0.468 OA
ATOM     20  C   UNL     1      32.040 -22.548 -17.539  0.00  0.00    +0.253 C 
ENDBRANCH  15  19
BRANCH  16  21
ATOM     21  O   UNL     1      32.723 -21.068 -20.522  0.00  0.00    -0.465 OA
ATOM     22  C   UNL     1      32.235 -19.730 -20.578  0.00  0.00    +0.253 C 
ENDBRANCH  16  21
ENDBRANCH  10  11
ENDBRANCH   1   9
BRANCH   2  23
ATOM     23  O   UNL     1      38.009 -24.165 -14.320  0.00  0.00    -0.399 OA
BRANCH  23  24
ATOM     24  P   UNL     1      38.557 -25.648 -14.657  0.00  0.00    +0.528 P 
ATOM     25  O   UNL     1      38.900 -26.492 -13.463  0.00  0.00    -0.216 OA
BRANCH  24  26
ATOM     26  O   UNL     1      39.804 -25.349 -15.645  0.00  0.00    -0.293 OA
ATOM     27  H   UNL     1      39.532 -25.500 -16.563  0.00  0.00    +0.223 HD
ENDBRANCH  24  26
BRANCH  24  28
ATOM     28  O   UNL     1      37.444 -26.265 -15.656  0.00  0.00    -0.293 OA
ATOM     29  H   UNL     1      36.565 -26.168 -15.258  0.00  0.00    +0.223 HD
ENDBRANCH  24  28
ENDBRANCH  23  24
ENDBRANCH   2  23
BRANCH   3  30
ATOM     30  O   UNL     1      35.865 -24.923 -12.776  0.00  0.00    -0.396 OA
BRANCH  30  31
ATOM     31  P   UNL     1      36.295 -24.452 -11.289  0.00  0.00    +0.528 P 
ATOM     32  O   UNL     1      35.424 -24.961 -10.178  0.00  0.00    -0.216 OA
BRANCH  31  33
ATOM     33  O   UNL     1      36.332 -22.840 -11.424  0.00  0.00    -0.293 OA
ATOM     34  H   UNL     1      37.049 -22.486 -10.874  0.00  0.00    +0.223 HD
ENDBRANCH  31  33
BRANCH  31  35
ATOM     35  O   UNL     1      37.861 -24.844 -11.187  0.00  0.00    -0.293 OA
ATOM     36  H   UNL     1      38.368 -24.319 -11.826  0.00  0.00    +0.223 HD
ENDBRANCH  31  35
ENDBRANCH  30  31
ENDBRANCH   3  30
TORSDOF 14
ENDMDL
MODEL 5
REMARK VINA RESULT:      -7.1      3.597      8.044
REMARK  Name = 6918546
REMARK  14 active torsions:
REMARK  status: ('A' for Active; 'I' for Inactive)
REMARK    1  A    between atoms: C_1  and  C_9
REMARK    2  A    between atoms: C_2  and  O_23
REMARK    3  A    between atoms: C_3  and  O_30
REMARK    4  A    between atoms: C_5  and  O_7
REMARK    5  A    between atoms: C_10  and  C_11
REMARK    6  A    between atoms: C_14  and  O_17
REMARK    7  A    between atoms: C_15  and  O_19
REMARK    8  A    between atoms: C_16  and  O_21
REMARK    9  A    between atoms: O_23  and  P_24
REMARK   10  A    between atoms: P_24  and  O_26
REMARK   11  A    between atoms: P_24  and  O_28
REMARK   12  A    between atoms: O_30  and  P_31
REMARK   13  A    between atoms: P_31  and  O_33
REMARK   14  A    between atoms: P_31  and  O_35
REMARK                            x       y       z     vdW  Elec       q    Type
REMARK                         _______ _______ _______ _____ _____    ______ ____
ROOT
ATOM      1  C   UNL     1      33.085  -8.422 -22.042  0.00  0.00    +0.038 C 
ATOM      2  C   UNL     1      32.442  -9.646 -22.229  0.00  0.00    +0.186 C 
ATOM      3  C   UNL     1      32.865 -10.507 -23.242  0.00  0.00    +0.217 C 
ATOM      4  C   UNL     1      34.150  -8.060 -22.867  0.00  0.00    +0.006 C 
ATOM      5  C   UNL     1      33.929 -10.145 -24.068  0.00  0.00    +0.176 C 
ATOM      6  C   UNL     1      34.572  -8.921 -23.880  0.00  0.00    +0.040 C 
ENDROOT
BRANCH   5   7
ATOM      7  O   UNL     1      34.350 -10.977 -25.060  0.00  0.00    -0.468 OA
ATOM      8  C   UNL     1      35.338 -10.469 -25.956  0.00  0.00    +0.253 C 
ENDBRANCH   5   7
BRANCH   1   9
ATOM      9  C   UNL     1      32.664  -7.504 -20.993  0.00  0.00    +0.003 C 
ATOM     10  C   UNL     1      32.191  -6.252 -21.195  0.00  0.00    +0.000 C 
BRANCH  10  11
ATOM     11  C   UNL     1      32.024  -5.613 -22.511  0.00  0.00    +0.006 C 
ATOM     12  C   UNL     1      31.213  -4.486 -22.641  0.00  0.00    +0.040 C 
ATOM     13  C   UNL     1      32.676  -6.135 -23.629  0.00  0.00    +0.040 C 
ATOM     14  C   UNL     1      32.518  -5.529 -24.875  0.00  0.00    +0.175 C 
ATOM     15  C   UNL     1      31.055  -3.880 -23.887  0.00  0.00    +0.175 C 
ATOM     16  C   UNL     1      31.707  -4.402 -25.005  0.00  0.00    +0.206 C 
BRANCH  14  17
ATOM     17  O   UNL     1      33.161  -6.048 -25.957  0.00  0.00    -0.468 OA
ATOM     18  C   UNL     1      34.569  -5.832 -26.041  0.00  0.00    +0.253 C 
ENDBRANCH  14  17
BRANCH  15  19
ATOM     19  O   UNL     1      30.260  -2.779 -24.001  0.00  0.00    -0.468 OA
ATOM     20  C   UNL     1      30.374  -1.789 -22.982  0.00  0.00    +0.253 C 
ENDBRANCH  15  19
BRANCH  16  21
ATOM     21  O   UNL     1      31.551  -3.809 -26.223  0.00  0.00    -0.465 OA
ATOM     22  C   UNL     1      32.447  -2.749 -26.547  0.00  0.00    +0.253 C 
ENDBRANCH  16  21
ENDBRANCH  10  11
ENDBRANCH   1   9
BRANCH   2  23
ATOM     23  O   UNL     1      31.401 -10.014 -21.427  0.00  0.00    -0.399 OA
BRANCH  23  24
ATOM     24  P   UNL     1      31.547 -10.670 -19.957  0.00  0.00    +0.528 P 
ATOM     25  O   UNL     1      32.546 -10.005 -19.053  0.00  0.00    -0.216 OA
BRANCH  24  26
ATOM     26  O   UNL     1      31.876 -12.218 -20.291  0.00  0.00    -0.293 OA
ATOM     27  H   UNL     1      32.574 -12.264 -20.963  0.00  0.00    +0.223 HD
ENDBRANCH  24  26
BRANCH  24  28
ATOM     28  O   UNL     1      30.031 -10.734 -19.398  0.00  0.00    -0.293 OA
ATOM     29  H   UNL     1      29.681  -9.834 -19.308  0.00  0.00    +0.223 HD
ENDBRANCH  24  28
ENDBRANCH  23  24
ENDBRANCH   2  23
BRANCH   3  30
ATOM     30  O   UNL     1      32.238 -11.705 -23.426  0.00  0.00    -0.396 OA
BRANCH  30  31
ATOM     31  P   UNL     1      32.957 -13.152 -23.350  0.00  0.00    +0.528 P 
ATOM     32  O   UNL     1      32.228 -14.189 -22.546  0.00  0.00    -0.216 OA
BRANCH  31  33
ATOM     33  O   UNL     1      34.431 -12.788 -22.790  0.00  0.00    -0.293 OA
ATOM     34  H   UNL     1      34.912 -13.606 -22.589  0.00  0.00    +0.223 HD
ENDBRANCH  31  33
BRANCH  31  35
ATOM     35  O   UNL     1      33.240 -13.535 -24.895  0.00  0.00    -0.293 OA
ATOM     36  H   UNL     1      32.629 -14.236 -25.173  0.00  0.00    +0.223 HD
ENDBRANCH  31  35
ENDBRANCH  30  31
ENDBRANCH   3  30
TORSDOF 14
ENDMDL
MODEL 6
REMARK VINA RESULT:      -7.1      3.734      8.117
REMARK  Name = 6918546
REMARK  14 active torsions:
REMARK  status: ('A' for Active; 'I' for Inactive)
REMARK    1  A    between atoms: C_1  and  C_9
REMARK    2  A    between atoms: C_2  and  O_23
REMARK    3  A    between atoms: C_3  and  O_30
REMARK    4  A    between atoms: C_5  and  O_7
REMARK    5  A    between atoms: C_10  and  C_11
REMARK    6  A    between atoms: C_14  and  O_17
REMARK    7  A    between atoms: C_15  and  O_19
REMARK    8  A    between atoms: C_16  and  O_21
REMARK    9  A    between atoms: O_23  and  P_24
REMARK   10  A    between atoms: P_24  and  O_26
REMARK   11  A    between atoms: P_24  and  O_28
REMARK   12  A    between atoms: O_30  and  P_31
REMARK   13  A    between atoms: P_31  and  O_33
REMARK   14  A    between atoms: P_31  and  O_35
REMARK                            x       y       z     vdW  Elec       q    Type
REMARK                         _______ _______ _______ _____ _____    ______ ____
ROOT
ATOM      1  C   UNL     1      33.152  -8.323 -22.235  0.00  0.00    +0.038 C 
ATOM      2  C   UNL     1      32.501  -9.495 -22.623  0.00  0.00    +0.186 C 
ATOM      3  C   UNL     1      33.043 -10.292 -23.631  0.00  0.00    +0.217 C 
ATOM      4  C   UNL     1      34.345  -7.951 -22.854  0.00  0.00    +0.006 C 
ATOM      5  C   UNL     1      34.236  -9.919 -24.251  0.00  0.00    +0.176 C 
ATOM      6  C   UNL     1      34.887  -8.748 -23.862  0.00  0.00    +0.040 C 
ENDROOT
BRANCH   5   7
ATOM      7  O   UNL     1      34.775 -10.689 -25.236  0.00  0.00    -0.468 OA
ATOM      8  C   UNL     1      35.766 -10.081 -26.064  0.00  0.00    +0.253 C 
ENDBRANCH   5   7
BRANCH   1   9
ATOM      9  C   UNL     1      32.607  -7.472 -21.186  0.00  0.00    +0.003 C 
ATOM     10  C   UNL     1      32.083  -6.240 -21.375  0.00  0.00    +0.000 C 
BRANCH  10  11
ATOM     11  C   UNL     1      31.977  -5.556 -22.675  0.00  0.00    +0.006 C 
ATOM     12  C   UNL     1      32.641  -6.069 -23.790  0.00  0.00    +0.040 C 
ATOM     13  C   UNL     1      31.214  -4.395 -22.794  0.00  0.00    +0.040 C 
ATOM     14  C   UNL     1      31.113  -3.748 -24.026  0.00  0.00    +0.175 C 
ATOM     15  C   UNL     1      32.542  -5.422 -25.021  0.00  0.00    +0.175 C 
ATOM     16  C   UNL     1      31.778  -4.261 -25.139  0.00  0.00    +0.206 C 
BRANCH  14  17
ATOM     17  O   UNL     1      30.363  -2.616 -24.127  0.00  0.00    -0.468 OA
ATOM     18  C   UNL     1      30.282  -1.786 -22.969  0.00  0.00    +0.253 C 
ENDBRANCH  14  17
BRANCH  15  19
ATOM     19  O   UNL     1      33.196  -5.933 -26.101  0.00  0.00    -0.468 OA
ATOM     20  C   UNL     1      34.580  -5.617 -26.231  0.00  0.00    +0.253 C 
ENDBRANCH  15  19
BRANCH  16  21
ATOM     21  O   UNL     1      31.682  -3.629 -26.343  0.00  0.00    -0.465 OA
ATOM     22  C   UNL     1      32.572  -2.539 -26.575  0.00  0.00    +0.253 C 
ENDBRANCH  16  21
ENDBRANCH  10  11
ENDBRANCH   1   9
BRANCH   2  23
ATOM     23  O   UNL     1      31.335  -9.873 -22.023  0.00  0.00    -0.399 OA
BRANCH  23  24
ATOM     24  P   UNL     1      31.227 -10.786 -20.694  0.00  0.00    +0.528 P 
ATOM     25  O   UNL     1      31.061 -10.030 -19.407  0.00  0.00    -0.216 OA
BRANCH  24  26
ATOM     26  O   UNL     1      32.570 -11.685 -20.771  0.00  0.00    -0.293 OA
ATOM     27  H   UNL     1      32.820 -11.814 -21.700  0.00  0.00    +0.223 HD
ENDBRANCH  24  26
BRANCH  24  28
ATOM     28  O   UNL     1      30.059 -11.851 -21.037  0.00  0.00    -0.293 OA
ATOM     29  H   UNL     1      30.286 -12.713 -20.655  0.00  0.00    +0.223 HD
ENDBRANCH  24  28
ENDBRANCH  23  24
ENDBRANCH   2  23
BRANCH   3  30
ATOM     30  O   UNL     1      32.409 -11.438 -24.011  0.00  0.00    -0.396 OA
BRANCH  30  31
ATOM     31  P   UNL     1      33.005 -12.932 -23.842  0.00  0.00    +0.528 P 
ATOM     32  O   UNL     1      33.195 -13.697 -25.119  0.00  0.00    -0.216 OA
BRANCH  31  33
ATOM     33  O   UNL     1      31.967 -13.613 -22.804  0.00  0.00    -0.293 OA
ATOM     34  H   UNL     1      31.967 -14.575 -22.930  0.00  0.00    +0.223 HD
ENDBRANCH  31  33
BRANCH  31  35
ATOM     35  O   UNL     1      34.335 -12.728 -22.944  0.00  0.00    -0.293 OA
ATOM     36  H   UNL     1      34.536 -13.551 -22.471  0.00  0.00    +0.223 HD
ENDBRANCH  31  35
ENDBRANCH  30  31
ENDBRANCH   3  30
TORSDOF 14
ENDMDL
MODEL 7
REMARK VINA RESULT:      -6.9     12.337     16.536
REMARK  Name = 6918546
REMARK  14 active torsions:
REMARK  status: ('A' for Active; 'I' for Inactive)
REMARK    1  A    between atoms: C_1  and  C_9
REMARK    2  A    between atoms: C_2  and  O_23
REMARK    3  A    between atoms: C_3  and  O_30
REMARK    4  A    between atoms: C_5  and  O_7
REMARK    5  A    between atoms: C_10  and  C_11
REMARK    6  A    between atoms: C_14  and  O_17
REMARK    7  A    between atoms: C_15  and  O_19
REMARK    8  A    between atoms: C_16  and  O_21
REMARK    9  A    between atoms: O_23  and  P_24
REMARK   10  A    between atoms: P_24  and  O_26
REMARK   11  A    between atoms: P_24  and  O_28
REMARK   12  A    between atoms: O_30  and  P_31
REMARK   13  A    between atoms: P_31  and  O_33
REMARK   14  A    between atoms: P_31  and  O_35
REMARK                            x       y       z     vdW  Elec       q    Type
REMARK                         _______ _______ _______ _____ _____    ______ ____
ROOT
ATOM      1  C   UNL     1      35.298 -25.008 -13.568  0.00  0.00    +0.038 C 
ATOM      2  C   UNL     1      36.625 -25.161 -13.165  0.00  0.00    +0.186 C 
ATOM      3  C   UNL     1      37.481 -25.993 -13.887  0.00  0.00    +0.217 C 
ATOM      4  C   UNL     1      34.829 -25.685 -14.694  0.00  0.00    +0.006 C 
ATOM      5  C   UNL     1      37.012 -26.671 -15.012  0.00  0.00    +0.176 C 
ATOM      6  C   UNL     1      35.685 -26.517 -15.416  0.00  0.00    +0.040 C 
ENDROOT
BRANCH   5   7
ATOM      7  O   UNL     1      37.838 -27.486 -15.725  0.00  0.00    -0.468 OA
ATOM      8  C   UNL     1      37.298 -28.088 -16.900  0.00  0.00    +0.253 C 
ENDBRANCH   5   7
BRANCH   1   9
ATOM      9  C   UNL     1      34.382 -24.147 -12.833  0.00  0.00    +0.003 C 
ATOM     10  C   UNL     1      33.494 -23.294 -13.394  0.00  0.00    +0.000 C 
BRANCH  10  11
ATOM     11  C   UNL     1      33.308 -23.097 -14.841  0.00  0.00    +0.006 C 
ATOM     12  C   UNL     1      32.021 -23.043 -15.377  0.00  0.00    +0.040 C 
ATOM     13  C   UNL     1      34.416 -22.964 -15.677  0.00  0.00    +0.040 C 
ATOM     14  C   UNL     1      34.239 -22.777 -17.048  0.00  0.00    +0.175 C 
ATOM     15  C   UNL     1      31.844 -22.857 -16.748  0.00  0.00    +0.175 C 
ATOM     16  C   UNL     1      32.953 -22.724 -17.583  0.00  0.00    +0.206 C 
BRANCH  14  17
ATOM     17  O   UNL     1      35.331 -22.648 -17.851  0.00  0.00    -0.468 OA
ATOM     18  C   UNL     1      36.494 -22.055 -17.276  0.00  0.00    +0.253 C 
ENDBRANCH  14  17
BRANCH  15  19
ATOM     19  O   UNL     1      30.582 -22.807 -17.260  0.00  0.00    -0.468 OA
ATOM     20  C   UNL     1      29.505 -22.778 -16.326  0.00  0.00    +0.253 C 
ENDBRANCH  15  19
BRANCH  16  21
ATOM     21  O   UNL     1      32.778 -22.543 -18.923  0.00  0.00    -0.465 OA
ATOM     22  C   UNL     1      33.065 -21.248 -19.444  0.00  0.00    +0.253 C 
ENDBRANCH  16  21
ENDBRANCH  10  11
ENDBRANCH   1   9
BRANCH   2  23
ATOM     23  O   UNL     1      37.097 -24.502 -12.067  0.00  0.00    -0.399 OA
BRANCH  23  24
ATOM     24  P   UNL     1      37.689 -22.998 -12.070  0.00  0.00    +0.528 P 
ATOM     25  O   UNL     1      37.507 -22.239 -13.352  0.00  0.00    -0.216 OA
BRANCH  24  26
ATOM     26  O   UNL     1      39.233 -23.224 -11.640  0.00  0.00    -0.293 OA
ATOM     27  H   UNL     1      39.275 -23.483 -10.707  0.00  0.00    +0.223 HD
ENDBRANCH  24  26
BRANCH  24  28
ATOM     28  O   UNL     1      37.044 -22.316 -10.753  0.00  0.00    -0.293 OA
ATOM     29  H   UNL     1      37.730 -22.207 -10.076  0.00  0.00    +0.223 HD
ENDBRANCH  24  28
ENDBRANCH  23  24
ENDBRANCH   2  23
BRANCH   3  30
ATOM     30  O   UNL     1      38.778 -26.144 -13.494  0.00  0.00    -0.396 OA
BRANCH  30  31
ATOM     31  P   UNL     1      40.064 -25.566 -14.287  0.00  0.00    +0.528 P 
ATOM     32  O   UNL     1      40.892 -24.571 -13.528  0.00  0.00    -0.216 OA
BRANCH  31  33
ATOM     33  O   UNL     1      39.410 -24.990 -15.651  0.00  0.00    -0.293 OA
ATOM     34  H   UNL     1      39.318 -25.710 -16.294  0.00  0.00    +0.223 HD
ENDBRANCH  31  33
BRANCH  31  35
ATOM     35  O   UNL     1      40.846 -26.890 -14.790  0.00  0.00    -0.293 OA
ATOM     36  H   UNL     1      41.240 -27.342 -14.028  0.00  0.00    +0.223 HD
ENDBRANCH  31  35
ENDBRANCH  30  31
ENDBRANCH   3  30
TORSDOF 14
ENDMDL
MODEL 8
REMARK VINA RESULT:      -6.9     12.327     16.558
REMARK  Name = 6918546
REMARK  14 active torsions:
REMARK  status: ('A' for Active; 'I' for Inactive)
REMARK    1  A    between atoms: C_1  and  C_9
REMARK    2  A    between atoms: C_2  and  O_23
REMARK    3  A    between atoms: C_3  and  O_30
REMARK    4  A    between atoms: C_5  and  O_7
REMARK    5  A    between atoms: C_10  and  C_11
REMARK    6  A    between atoms: C_14  and  O_17
REMARK    7  A    between atoms: C_15  and  O_19
REMARK    8  A    between atoms: C_16  and  O_21
REMARK    9  A    between atoms: O_23  and  P_24
REMARK   10  A    between atoms: P_24  and  O_26
REMARK   11  A    between atoms: P_24  and  O_28
REMARK   12  A    between atoms: O_30  and  P_31
REMARK   13  A    between atoms: P_31  and  O_33
REMARK   14  A    between atoms: P_31  and  O_35
REMARK                            x       y       z     vdW  Elec       q    Type
REMARK                         _______ _______ _______ _____ _____    ______ ____
ROOT
ATOM      1  C   UNL     1      35.285 -25.004 -13.570  0.00  0.00    +0.038 C 
ATOM      2  C   UNL     1      36.612 -25.156 -13.166  0.00  0.00    +0.186 C 
ATOM      3  C   UNL     1      37.470 -25.987 -13.888  0.00  0.00    +0.217 C 
ATOM      4  C   UNL     1      34.817 -25.681 -14.697  0.00  0.00    +0.006 C 
ATOM      5  C   UNL     1      37.001 -26.665 -15.013  0.00  0.00    +0.176 C 
ATOM      6  C   UNL     1      35.675 -26.512 -15.418  0.00  0.00    +0.040 C 
ENDROOT
BRANCH   5   7
ATOM      7  O   UNL     1      37.828 -27.479 -15.726  0.00  0.00    -0.468 OA
ATOM      8  C   UNL     1      37.289 -28.083 -16.900  0.00  0.00    +0.253 C 
ENDBRANCH   5   7
BRANCH   1   9
ATOM      9  C   UNL     1      34.369 -24.144 -12.835  0.00  0.00    +0.003 C 
ATOM     10  C   UNL     1      33.481 -23.291 -13.396  0.00  0.00    +0.000 C 
BRANCH  10  11
ATOM     11  C   UNL     1      33.296 -23.093 -14.843  0.00  0.00    +0.006 C 
ATOM     12  C   UNL     1      34.407 -22.982 -15.680  0.00  0.00    +0.040 C 
ATOM     13  C   UNL     1      32.011 -23.016 -15.379  0.00  0.00    +0.040 C 
ATOM     14  C   UNL     1      31.836 -22.829 -16.750  0.00  0.00    +0.175 C 
ATOM     15  C   UNL     1      34.232 -22.794 -17.050  0.00  0.00    +0.175 C 
ATOM     16  C   UNL     1      32.946 -22.717 -17.585  0.00  0.00    +0.206 C 
BRANCH  14  17
ATOM     17  O   UNL     1      30.575 -22.757 -17.259  0.00  0.00    -0.468 OA
ATOM     18  C   UNL     1      29.494 -22.835 -16.331  0.00  0.00    +0.253 C 
ENDBRANCH  14  17
BRANCH  15  19
ATOM     19  O   UNL     1      35.325 -22.687 -17.856  0.00  0.00    -0.468 OA
ATOM     20  C   UNL     1      36.458 -22.003 -17.325  0.00  0.00    +0.253 C 
ENDBRANCH  15  19
BRANCH  16  21
ATOM     21  O   UNL     1      32.777 -22.533 -18.926  0.00  0.00    -0.465 OA
ATOM     22  C   UNL     1      33.063 -21.235 -19.442  0.00  0.00    +0.253 C 
ENDBRANCH  16  21
ENDBRANCH  10  11
ENDBRANCH   1   9
BRANCH   2  23
ATOM     23  O   UNL     1      37.084 -24.497 -12.068  0.00  0.00    -0.399 OA
BRANCH  23  24
ATOM     24  P   UNL     1      37.672 -22.992 -12.070  0.00  0.00    +0.528 P 
ATOM     25  O   UNL     1      37.491 -22.233 -13.353  0.00  0.00    -0.216 OA
BRANCH  24  26
ATOM     26  O   UNL     1      39.215 -23.213 -11.638  0.00  0.00    -0.293 OA
ATOM     27  H   UNL     1      39.250 -23.702 -10.800  0.00  0.00    +0.223 HD
ENDBRANCH  24  26
BRANCH  24  28
ATOM     28  O   UNL     1      37.022 -22.310 -10.754  0.00  0.00    -0.293 OA
ATOM     29  H   UNL     1      37.604 -22.460  -9.993  0.00  0.00    +0.223 HD
ENDBRANCH  24  28
ENDBRANCH  23  24
ENDBRANCH   2  23
BRANCH   3  30
ATOM     30  O   UNL     1      38.767 -26.137 -13.495  0.00  0.00    -0.396 OA
BRANCH  30  31
ATOM     31  P   UNL     1      40.053 -25.557 -14.287  0.00  0.00    +0.528 P 
ATOM     32  O   UNL     1      40.889 -24.575 -13.521  0.00  0.00    -0.216 OA
BRANCH  31  33
ATOM     33  O   UNL     1      39.396 -24.962 -15.642  0.00  0.00    -0.293 OA
ATOM     34  H   UNL     1      40.072 -24.917 -16.336  0.00  0.00    +0.223 HD
ENDBRANCH  31  33
BRANCH  31  35
ATOM     35  O   UNL     1      40.825 -26.879 -14.809  0.00  0.00    -0.293 OA
ATOM     36  H   UNL     1      40.176 -27.559 -15.050  0.00  0.00    +0.223 HD
ENDBRANCH  31  35
ENDBRANCH  30  31
ENDBRANCH   3  30
TORSDOF 14
ENDMDL
MODEL 9
REMARK VINA RESULT:      -6.7     12.614     15.653
REMARK  Name = 6918546
REMARK  14 active torsions:
REMARK  status: ('A' for Active; 'I' for Inactive)
REMARK    1  A    between atoms: C_1  and  C_9
REMARK    2  A    between atoms: C_2  and  O_23
REMARK    3  A    between atoms: C_3  and  O_30
REMARK    4  A    between atoms: C_5  and  O_7
REMARK    5  A    between atoms: C_10  and  C_11
REMARK    6  A    between atoms: C_14  and  O_17
REMARK    7  A    between atoms: C_15  and  O_19
REMARK    8  A    between atoms: C_16  and  O_21
REMARK    9  A    between atoms: O_23  and  P_24
REMARK   10  A    between atoms: P_24  and  O_26
REMARK   11  A    between atoms: P_24  and  O_28
REMARK   12  A    between atoms: O_30  and  P_31
REMARK   13  A    between atoms: P_31  and  O_33
REMARK   14  A    between atoms: P_31  and  O_35
REMARK                            x       y       z     vdW  Elec       q    Type
REMARK                         _______ _______ _______ _____ _____    ______ ____
ROOT
ATOM      1  C   UNL     1      34.443 -23.005 -16.311  0.00  0.00    +0.038 C 
ATOM      2  C   UNL     1      33.180 -22.852 -16.885  0.00  0.00    +0.186 C 
ATOM      3  C   UNL     1      32.087 -23.540 -16.357  0.00  0.00    +0.217 C 
ATOM      4  C   UNL     1      34.612 -23.843 -15.210  0.00  0.00    +0.006 C 
ATOM      5  C   UNL     1      32.256 -24.379 -15.256  0.00  0.00    +0.176 C 
ATOM      6  C   UNL     1      33.519 -24.531 -14.682  0.00  0.00    +0.040 C 
ENDROOT
BRANCH   5   7
ATOM      7  O   UNL     1      31.198 -25.056 -14.731  0.00  0.00    -0.468 OA
ATOM      8  C   UNL     1      31.074 -25.066 -13.310  0.00  0.00    +0.253 C 
ENDBRANCH   5   7
BRANCH   1   9
ATOM      9  C   UNL     1      35.601 -22.299 -16.843  0.00  0.00    +0.003 C 
ATOM     10  C   UNL     1      36.858 -22.382 -16.351  0.00  0.00    +0.000 C 
BRANCH  10  11
ATOM     11  C   UNL     1      37.262 -23.202 -15.196  0.00  0.00    +0.006 C 
ATOM     12  C   UNL     1      37.993 -24.373 -15.393  0.00  0.00    +0.040 C 
ATOM     13  C   UNL     1      36.915 -22.807 -13.904  0.00  0.00    +0.040 C 
ATOM     14  C   UNL     1      37.298 -23.583 -12.810  0.00  0.00    +0.175 C 
ATOM     15  C   UNL     1      38.376 -25.150 -14.300  0.00  0.00    +0.175 C 
ATOM     16  C   UNL     1      38.028 -24.754 -13.008  0.00  0.00    +0.206 C 
BRANCH  14  17
ATOM     17  O   UNL     1      36.953 -23.185 -11.554  0.00  0.00    -0.468 OA
ATOM     18  C   UNL     1      35.690 -23.626 -11.058  0.00  0.00    +0.253 C 
ENDBRANCH  14  17
BRANCH  15  19
ATOM     19  O   UNL     1      39.089 -26.292 -14.506  0.00  0.00    -0.468 OA
ATOM     20  C   UNL     1      40.502 -26.159 -14.643  0.00  0.00    +0.253 C 
ENDBRANCH  15  19
BRANCH  16  21
ATOM     21  O   UNL     1      38.402 -25.515 -11.939  0.00  0.00    -0.465 OA
ATOM     22  C   UNL     1      37.557 -26.611 -11.598  0.00  0.00    +0.253 C 
ENDBRANCH  16  21
ENDBRANCH  10  11
ENDBRANCH   1   9
BRANCH   2  23
ATOM     23  O   UNL     1      33.000 -22.032 -17.961  0.00  0.00    -0.399 OA
BRANCH  23  24
ATOM     24  P   UNL     1      33.779 -22.165 -19.371  0.00  0.00    +0.528 P 
ATOM     25  O   UNL     1      35.061 -21.389 -19.472  0.00  0.00    -0.216 OA
BRANCH  24  26
ATOM     26  O   UNL     1      32.649 -21.730 -20.444  0.00  0.00    -0.293 OA
ATOM     27  H   UNL     1      31.817 -21.546 -19.980  0.00  0.00    +0.223 HD
ENDBRANCH  24  26
BRANCH  24  28
ATOM     28  O   UNL     1      33.906 -23.761 -19.606  0.00  0.00    -0.293 OA
ATOM     29  H   UNL     1      33.235 -24.047 -20.245  0.00  0.00    +0.223 HD
ENDBRANCH  24  28
ENDBRANCH  23  24
ENDBRANCH   2  23
BRANCH   3  30
ATOM     30  O   UNL     1      30.852 -23.392 -16.915  0.00  0.00    -0.396 OA
BRANCH  30  31
ATOM     31  P   UNL     1      29.519 -22.936 -16.120  0.00  0.00    +0.528 P 
ATOM     32  O   UNL     1      29.759 -22.189 -14.841  0.00  0.00    -0.216 OA
BRANCH  31  33
ATOM     33  O   UNL     1      28.718 -24.331 -15.940  0.00  0.00    -0.293 OA
ATOM     34  H   UNL     1      29.268 -25.063 -16.260  0.00  0.00    +0.223 HD
ENDBRANCH  31  33
BRANCH  31  35
ATOM     35  O   UNL     1      28.642 -22.156 -17.233  0.00  0.00    -0.293 OA
ATOM     36  H   UNL     1      29.235 -21.700 -17.851  0.00  0.00    +0.223 HD
ENDBRANCH  31  35
ENDBRANCH  30  31
ENDBRANCH   3  30
TORSDOF 14
ENDMDL
