MODEL 1
REMARK VINA RESULT:      -5.9      0.000      0.000
REMARK  Name = 385
REMARK  8 active torsions:
REMARK  status: ('A' for Active; 'I' for Inactive)
REMARK    1  A    between atoms: C_1  and  C_2
REMARK    2  A    between atoms: C_1  and  C_8
REMARK    3  A    between atoms: C_2  and  C_3
REMARK    4  A    between atoms: C_3  and  C_5
REMARK    5  A    between atoms: C_5  and  O_6
REMARK    6  A    between atoms: C_8  and  C_9
REMARK    7  A    between atoms: C_9  and  C_11
REMARK    8  A    between atoms: C_11  and  O_12
REMARK                            x       y       z     vdW  Elec       q    Type
REMARK                         _______ _______ _______ _____ _____    ______ ____
ROOT
ATOM      1  C   UNL     1      37.800 -25.784 -12.505  0.00  0.00    +0.001 C 
ENDROOT
BRANCH   1   2
ATOM      2  C   UNL     1      38.013 -24.282 -12.293  0.00  0.00    +0.012 C 
BRANCH   2   3
ATOM      3  C   UNL     1      36.708 -23.542 -11.998  0.00  0.00    +0.109 C 
BRANCH   3   5
ATOM      4  O   UNL     1      35.940 -24.313  -9.819  0.00  0.00    -0.250 OA
ATOM      5  C   UNL     1      35.807 -24.282 -11.033  0.00  0.00    +0.314 C 
BRANCH   5   6
ATOM      6  O   UNL     1      34.817 -24.944 -11.687  0.00  0.00    -0.480 OA
ATOM      7  H   UNL     1      34.031 -24.495 -11.927  0.00  0.00    +0.295 HD
ENDBRANCH   5   6
ENDBRANCH   3   5
ENDBRANCH   2   3
ENDBRANCH   1   2
BRANCH   1   8
ATOM      8  C   UNL     1      38.102 -26.188 -13.949  0.00  0.00    +0.012 C 
BRANCH   8   9
ATOM      9  C   UNL     1      38.763 -25.048 -14.720  0.00  0.00    +0.109 C 
BRANCH   9  11
ATOM     10  O   UNL     1      40.610 -26.108 -15.907  0.00  0.00    -0.250 OA
ATOM     11  C   UNL     1      40.207 -25.347 -15.040  0.00  0.00    +0.314 C 
BRANCH  11  12
ATOM     12  O   UNL     1      41.023 -24.641 -14.217  0.00  0.00    -0.480 OA
ATOM     13  H   UNL     1      41.736 -25.068 -13.785  0.00  0.00    +0.295 HD
ENDBRANCH  11  12
ENDBRANCH   9  11
ENDBRANCH   8   9
ENDBRANCH   1   8
TORSDOF 8
ENDMDL
MODEL 2
REMARK VINA RESULT:      -5.8     10.727     11.425
REMARK  Name = 385
REMARK  8 active torsions:
REMARK  status: ('A' for Active; 'I' for Inactive)
REMARK    1  A    between atoms: C_1  and  C_2
REMARK    2  A    between atoms: C_1  and  C_8
REMARK    3  A    between atoms: C_2  and  C_3
REMARK    4  A    between atoms: C_3  and  C_5
REMARK    5  A    between atoms: C_5  and  O_6
REMARK    6  A    between atoms: C_8  and  C_9
REMARK    7  A    between atoms: C_9  and  C_11
REMARK    8  A    between atoms: C_11  and  O_12
REMARK                            x       y       z     vdW  Elec       q    Type
REMARK                         _______ _______ _______ _____ _____    ______ ____
ROOT
ATOM      1  C   UNL     1      34.177 -18.918 -21.599  0.00  0.00    +0.001 C 
ENDROOT
BRANCH   1   2
ATOM      2  C   UNL     1      34.571 -20.104 -20.713  0.00  0.00    +0.012 C 
BRANCH   2   3
ATOM      3  C   UNL     1      33.366 -20.753 -20.035  0.00  0.00    +0.109 C 
BRANCH   3   5
ATOM      4  O   UNL     1      34.760 -22.647 -19.397  0.00  0.00    -0.250 OA
ATOM      5  C   UNL     1      33.711 -22.026 -19.293  0.00  0.00    +0.314 C 
BRANCH   5   6
ATOM      6  O   UNL     1      32.689 -22.427 -18.493  0.00  0.00    -0.480 OA
ATOM      7  H   UNL     1      32.564 -23.338 -18.314  0.00  0.00    +0.295 HD
ENDBRANCH   5   6
ENDBRANCH   3   5
ENDBRANCH   2   3
ENDBRANCH   1   2
BRANCH   1   8
ATOM      8  C   UNL     1      35.312 -18.534 -22.550  0.00  0.00    +0.012 C 
BRANCH   8   9
ATOM      9  C   UNL     1      34.840 -18.512 -24.002  0.00  0.00    +0.109 C 
BRANCH   9  11
ATOM     10  O   UNL     1      34.709 -16.839 -25.771  0.00  0.00    -0.250 OA
ATOM     11  C   UNL     1      35.029 -17.156 -24.635  0.00  0.00    +0.314 C 
BRANCH  11  12
ATOM     12  O   UNL     1      35.618 -16.308 -23.753  0.00  0.00    -0.480 OA
ATOM     13  H   UNL     1      36.517 -16.069 -23.863  0.00  0.00    +0.295 HD
ENDBRANCH  11  12
ENDBRANCH   9  11
ENDBRANCH   8   9
ENDBRANCH   1   8
TORSDOF 8
ENDMDL
MODEL 3
REMARK VINA RESULT:      -5.8      1.100      5.243
REMARK  Name = 385
REMARK  8 active torsions:
REMARK  status: ('A' for Active; 'I' for Inactive)
REMARK    1  A    between atoms: C_1  and  C_2
REMARK    2  A    between atoms: C_1  and  C_8
REMARK    3  A    between atoms: C_2  and  C_3
REMARK    4  A    between atoms: C_3  and  C_5
REMARK    5  A    between atoms: C_5  and  O_6
REMARK    6  A    between atoms: C_8  and  C_9
REMARK    7  A    between atoms: C_9  and  C_11
REMARK    8  A    between atoms: C_11  and  O_12
REMARK                            x       y       z     vdW  Elec       q    Type
REMARK                         _______ _______ _______ _____ _____    ______ ____
ROOT
ATOM      1  C   UNL     1      36.967 -25.765 -12.768  0.00  0.00    +0.001 C 
ENDROOT
BRANCH   1   2
ATOM      2  C   UNL     1      38.460 -25.636 -13.087  0.00  0.00    +0.012 C 
BRANCH   2   3
ATOM      3  C   UNL     1      38.737 -25.617 -14.589  0.00  0.00    +0.109 C 
BRANCH   3   5
ATOM      4  O   UNL     1      40.978 -24.720 -14.265  0.00  0.00    -0.250 OA
ATOM      5  C   UNL     1      40.194 -25.385 -14.926  0.00  0.00    +0.314 C 
BRANCH   5   6
ATOM      6  O   UNL     1      40.538 -25.996 -16.089  0.00  0.00    -0.480 OA
ATOM      7  H   UNL     1      41.289 -26.557 -16.120  0.00  0.00    +0.295 HD
ENDBRANCH   5   6
ENDBRANCH   3   5
ENDBRANCH   2   3
ENDBRANCH   1   2
BRANCH   1   8
ATOM      8  C   UNL     1      36.194 -24.524 -13.221  0.00  0.00    +0.012 C 
BRANCH   8   9
ATOM      9  C   UNL     1      35.427 -23.892 -12.063  0.00  0.00    +0.109 C 
BRANCH   9  11
ATOM     10  O   UNL     1      36.182 -24.193  -9.763  0.00  0.00    -0.250 OA
ATOM     11  C   UNL     1      36.309 -23.668 -10.859  0.00  0.00    +0.314 C 
BRANCH  11  12
ATOM     12  O   UNL     1      37.291 -22.781 -11.161  0.00  0.00    -0.480 OA
ATOM     13  H   UNL     1      37.883 -22.959 -11.866  0.00  0.00    +0.295 HD
ENDBRANCH  11  12
ENDBRANCH   9  11
ENDBRANCH   8   9
ENDBRANCH   1   8
TORSDOF 8
ENDMDL
MODEL 4
REMARK VINA RESULT:      -5.8     10.687     12.106
REMARK  Name = 385
REMARK  8 active torsions:
REMARK  status: ('A' for Active; 'I' for Inactive)
REMARK    1  A    between atoms: C_1  and  C_2
REMARK    2  A    between atoms: C_1  and  C_8
REMARK    3  A    between atoms: C_2  and  C_3
REMARK    4  A    between atoms: C_3  and  C_5
REMARK    5  A    between atoms: C_5  and  O_6
REMARK    6  A    between atoms: C_8  and  C_9
REMARK    7  A    between atoms: C_9  and  C_11
REMARK    8  A    between atoms: C_11  and  O_12
REMARK                            x       y       z     vdW  Elec       q    Type
REMARK                         _______ _______ _______ _____ _____    ______ ____
ROOT
ATOM      1  C   UNL     1      34.196 -19.041 -21.627  0.00  0.00    +0.001 C 
ENDROOT
BRANCH   1   2
ATOM      2  C   UNL     1      35.365 -18.711 -22.561  0.00  0.00    +0.012 C 
BRANCH   2   3
ATOM      3  C   UNL     1      34.945 -18.666 -24.029  0.00  0.00    +0.109 C 
BRANCH   3   5
ATOM      4  O   UNL     1      34.337 -16.928 -25.623  0.00  0.00    -0.250 OA
ATOM      5  C   UNL     1      34.914 -17.266 -24.600  0.00  0.00    +0.314 C 
BRANCH   5   6
ATOM      6  O   UNL     1      35.638 -16.404 -23.840  0.00  0.00    -0.480 OA
ATOM      7  H   UNL     1      36.460 -16.673 -23.480  0.00  0.00    +0.295 HD
ENDBRANCH   5   6
ENDBRANCH   3   5
ENDBRANCH   2   3
ENDBRANCH   1   2
BRANCH   1   8
ATOM      8  C   UNL     1      34.573 -20.144 -20.635  0.00  0.00    +0.012 C 
BRANCH   8   9
ATOM      9  C   UNL     1      33.335 -20.754 -19.983  0.00  0.00    +0.109 C 
BRANCH   9  11
ATOM     10  O   UNL     1      34.706 -22.653 -19.306  0.00  0.00    -0.250 OA
ATOM     11  C   UNL     1      33.659 -22.027 -19.241  0.00  0.00    +0.314 C 
BRANCH  11  12
ATOM     12  O   UNL     1      32.605 -22.397 -18.469  0.00  0.00    -0.480 OA
ATOM     13  H   UNL     1      32.007 -23.050 -18.775  0.00  0.00    +0.295 HD
ENDBRANCH  11  12
ENDBRANCH   9  11
ENDBRANCH   8   9
ENDBRANCH   1   8
TORSDOF 8
ENDMDL
MODEL 5
REMARK VINA RESULT:      -5.7      1.570      2.048
REMARK  Name = 385
REMARK  8 active torsions:
REMARK  status: ('A' for Active; 'I' for Inactive)
REMARK    1  A    between atoms: C_1  and  C_2
REMARK    2  A    between atoms: C_1  and  C_8
REMARK    3  A    between atoms: C_2  and  C_3
REMARK    4  A    between atoms: C_3  and  C_5
REMARK    5  A    between atoms: C_5  and  O_6
REMARK    6  A    between atoms: C_8  and  C_9
REMARK    7  A    between atoms: C_9  and  C_11
REMARK    8  A    between atoms: C_11  and  O_12
REMARK                            x       y       z     vdW  Elec       q    Type
REMARK                         _______ _______ _______ _____ _____    ______ ____
ROOT
ATOM      1  C   UNL     1      36.792 -24.598 -14.751  0.00  0.00    +0.001 C 
ENDROOT
BRANCH   1   2
ATOM      2  C   UNL     1      36.262 -23.360 -14.020  0.00  0.00    +0.012 C 
BRANCH   2   3
ATOM      3  C   UNL     1      35.808 -23.673 -12.595  0.00  0.00    +0.109 C 
BRANCH   3   5
ATOM      4  O   UNL     1      37.354 -22.394 -11.213  0.00  0.00    -0.250 OA
ATOM      5  C   UNL     1      36.897 -23.472 -11.563  0.00  0.00    +0.314 C 
BRANCH   5   6
ATOM      6  O   UNL     1      37.339 -24.659 -11.072  0.00  0.00    -0.480 OA
ATOM      7  H   UNL     1      37.932 -25.183 -11.574  0.00  0.00    +0.295 HD
ENDBRANCH   5   6
ENDBRANCH   3   5
ENDBRANCH   2   3
ENDBRANCH   1   2
BRANCH   1   8
ATOM      8  C   UNL     1      38.313 -24.539 -14.910  0.00  0.00    +0.012 C 
BRANCH   8   9
ATOM      9  C   UNL     1      39.002 -25.614 -14.072  0.00  0.00    +0.109 C 
BRANCH   9  11
ATOM     10  O   UNL     1      41.231 -26.603 -14.105  0.00  0.00    -0.250 OA
ATOM     11  C   UNL     1      40.305 -26.058 -14.689  0.00  0.00    +0.314 C 
BRANCH  11  12
ATOM     12  O   UNL     1      40.317 -25.767 -16.014  0.00  0.00    -0.480 OA
ATOM     13  H   UNL     1      39.541 -25.446 -16.430  0.00  0.00    +0.295 HD
ENDBRANCH  11  12
ENDBRANCH   9  11
ENDBRANCH   8   9
ENDBRANCH   1   8
TORSDOF 8
ENDMDL
MODEL 6
REMARK VINA RESULT:      -5.6      7.830      8.563
REMARK  Name = 385
REMARK  8 active torsions:
REMARK  status: ('A' for Active; 'I' for Inactive)
REMARK    1  A    between atoms: C_1  and  C_2
REMARK    2  A    between atoms: C_1  and  C_8
REMARK    3  A    between atoms: C_2  and  C_3
REMARK    4  A    between atoms: C_3  and  C_5
REMARK    5  A    between atoms: C_5  and  O_6
REMARK    6  A    between atoms: C_8  and  C_9
REMARK    7  A    between atoms: C_9  and  C_11
REMARK    8  A    between atoms: C_11  and  O_12
REMARK                            x       y       z     vdW  Elec       q    Type
REMARK                         _______ _______ _______ _____ _____    ______ ____
ROOT
ATOM      1  C   UNL     1      31.429 -23.709 -15.539  0.00  0.00    +0.001 C 
ENDROOT
BRANCH   1   2
ATOM      2  C   UNL     1      30.117 -24.476 -15.728  0.00  0.00    +0.012 C 
BRANCH   2   3
ATOM      3  C   UNL     1      28.888 -23.585 -15.549  0.00  0.00    +0.109 C 
BRANCH   3   5
ATOM      4  O   UNL     1      27.684 -24.012 -17.623  0.00  0.00    -0.250 OA
ATOM      5  C   UNL     1      28.217 -23.224 -16.856  0.00  0.00    +0.314 C 
BRANCH   5   6
ATOM      6  O   UNL     1      28.294 -21.890 -17.101  0.00  0.00    -0.480 OA
ATOM      7  H   UNL     1      28.928 -21.366 -16.652  0.00  0.00    +0.295 HD
ENDBRANCH   5   6
ENDBRANCH   3   5
ENDBRANCH   2   3
ENDBRANCH   1   2
BRANCH   1   8
ATOM      8  C   UNL     1      31.846 -22.997 -16.827  0.00  0.00    +0.012 C 
BRANCH   8   9
ATOM      9  C   UNL     1      33.315 -23.256 -17.156  0.00  0.00    +0.109 C 
BRANCH   9  11
ATOM     10  O   UNL     1      32.959 -22.252 -19.350  0.00  0.00    -0.250 OA
ATOM     11  C   UNL     1      33.717 -22.629 -18.468  0.00  0.00    +0.314 C 
BRANCH  11  12
ATOM     12  O   UNL     1      35.068 -22.534 -18.545  0.00  0.00    -0.480 OA
ATOM     13  H   UNL     1      35.497 -21.739 -18.295  0.00  0.00    +0.295 HD
ENDBRANCH  11  12
ENDBRANCH   9  11
ENDBRANCH   8   9
ENDBRANCH   1   8
TORSDOF 8
ENDMDL
MODEL 7
REMARK VINA RESULT:      -5.5      2.241      2.745
REMARK  Name = 385
REMARK  8 active torsions:
REMARK  status: ('A' for Active; 'I' for Inactive)
REMARK    1  A    between atoms: C_1  and  C_2
REMARK    2  A    between atoms: C_1  and  C_8
REMARK    3  A    between atoms: C_2  and  C_3
REMARK    4  A    between atoms: C_3  and  C_5
REMARK    5  A    between atoms: C_5  and  O_6
REMARK    6  A    between atoms: C_8  and  C_9
REMARK    7  A    between atoms: C_9  and  C_11
REMARK    8  A    between atoms: C_11  and  O_12
REMARK                            x       y       z     vdW  Elec       q    Type
REMARK                         _______ _______ _______ _____ _____    ______ ____
ROOT
ATOM      1  C   UNL     1      37.794 -25.643 -12.670  0.00  0.00    +0.001 C 
ENDROOT
BRANCH   1   2
ATOM      2  C   UNL     1      37.913 -24.325 -11.897  0.00  0.00    +0.012 C 
BRANCH   2   3
ATOM      3  C   UNL     1      36.579 -23.589 -11.787  0.00  0.00    +0.109 C 
BRANCH   3   5
ATOM      4  O   UNL     1      35.479 -24.538  -9.832  0.00  0.00    -0.250 OA
ATOM      5  C   UNL     1      35.522 -24.375 -11.042  0.00  0.00    +0.314 C 
BRANCH   5   6
ATOM      6  O   UNL     1      34.611 -24.913 -11.895  0.00  0.00    -0.480 OA
ATOM      7  H   UNL     1      33.904 -24.390 -12.217  0.00  0.00    +0.295 HD
ENDBRANCH   5   6
ENDBRANCH   3   5
ENDBRANCH   2   3
ENDBRANCH   1   2
BRANCH   1   8
ATOM      8  C   UNL     1      38.401 -25.522 -14.069  0.00  0.00    +0.012 C 
BRANCH   8   9
ATOM      9  C   UNL     1      37.465 -24.778 -15.019  0.00  0.00    +0.109 C 
BRANCH   9  11
ATOM     10  O   UNL     1      35.049 -24.943 -14.729  0.00  0.00    -0.250 OA
ATOM     11  C   UNL     1      36.107 -25.431 -15.097  0.00  0.00    +0.314 C 
BRANCH  11  12
ATOM     12  O   UNL     1      36.216 -26.667 -15.647  0.00  0.00    -0.480 OA
ATOM     13  H   UNL     1      36.461 -26.760 -16.547  0.00  0.00    +0.295 HD
ENDBRANCH  11  12
ENDBRANCH   9  11
ENDBRANCH   8   9
ENDBRANCH   1   8
TORSDOF 8
ENDMDL
MODEL 8
REMARK VINA RESULT:      -5.4     12.917     13.989
REMARK  Name = 385
REMARK  8 active torsions:
REMARK  status: ('A' for Active; 'I' for Inactive)
REMARK    1  A    between atoms: C_1  and  C_2
REMARK    2  A    between atoms: C_1  and  C_8
REMARK    3  A    between atoms: C_2  and  C_3
REMARK    4  A    between atoms: C_3  and  C_5
REMARK    5  A    between atoms: C_5  and  O_6
REMARK    6  A    between atoms: C_8  and  C_9
REMARK    7  A    between atoms: C_9  and  C_11
REMARK    8  A    between atoms: C_11  and  O_12
REMARK                            x       y       z     vdW  Elec       q    Type
REMARK                         _______ _______ _______ _____ _____    ______ ____
ROOT
ATOM      1  C   UNL     1      34.029 -14.935 -21.643  0.00  0.00    +0.001 C 
ENDROOT
BRANCH   1   2
ATOM      2  C   UNL     1      34.612 -14.920 -23.059  0.00  0.00    +0.012 C 
BRANCH   2   3
ATOM      3  C   UNL     1      33.544 -15.126 -24.133  0.00  0.00    +0.109 C 
BRANCH   3   5
ATOM      4  O   UNL     1      33.466 -16.075 -26.375  0.00  0.00    -0.250 OA
ATOM      5  C   UNL     1      34.014 -15.986 -25.286  0.00  0.00    +0.314 C 
BRANCH   5   6
ATOM      6  O   UNL     1      35.131 -16.687 -24.960  0.00  0.00    -0.480 OA
ATOM      7  H   UNL     1      35.403 -16.747 -24.065  0.00  0.00    +0.295 HD
ENDBRANCH   5   6
ENDBRANCH   3   5
ENDBRANCH   2   3
ENDBRANCH   1   2
BRANCH   1   8
ATOM      8  C   UNL     1      34.660 -16.041 -20.795  0.00  0.00    +0.012 C 
BRANCH   8   9
ATOM      9  C   UNL     1      34.474 -17.412 -21.440  0.00  0.00    +0.109 C 
BRANCH   9  11
ATOM     10  O   UNL     1      36.231 -18.859 -20.565  0.00  0.00    -0.250 OA
ATOM     11  C   UNL     1      35.763 -18.196 -21.479  0.00  0.00    +0.314 C 
BRANCH  11  12
ATOM     12  O   UNL     1      36.351 -18.065 -22.695  0.00  0.00    -0.480 OA
ATOM     13  H   UNL     1      36.908 -17.333 -22.869  0.00  0.00    +0.295 HD
ENDBRANCH  11  12
ENDBRANCH   9  11
ENDBRANCH   8   9
ENDBRANCH   1   8
TORSDOF 8
ENDMDL
MODEL 9
REMARK VINA RESULT:      -5.4      7.776      9.727
REMARK  Name = 385
REMARK  8 active torsions:
REMARK  status: ('A' for Active; 'I' for Inactive)
REMARK    1  A    between atoms: C_1  and  C_2
REMARK    2  A    between atoms: C_1  and  C_8
REMARK    3  A    between atoms: C_2  and  C_3
REMARK    4  A    between atoms: C_3  and  C_5
REMARK    5  A    between atoms: C_5  and  O_6
REMARK    6  A    between atoms: C_8  and  C_9
REMARK    7  A    between atoms: C_9  and  C_11
REMARK    8  A    between atoms: C_11  and  O_12
REMARK                            x       y       z     vdW  Elec       q    Type
REMARK                         _______ _______ _______ _____ _____    ______ ____
ROOT
ATOM      1  C   UNL     1      30.962 -22.906 -15.316  0.00  0.00    +0.001 C 
ENDROOT
BRANCH   1   2
ATOM      2  C   UNL     1      32.254 -23.416 -15.961  0.00  0.00    +0.012 C 
BRANCH   2   3
ATOM      3  C   UNL     1      32.480 -22.834 -17.356  0.00  0.00    +0.109 C 
BRANCH   3   5
ATOM      4  O   UNL     1      34.916 -22.853 -17.309  0.00  0.00    -0.250 OA
ATOM      5  C   UNL     1      33.870 -23.094 -17.895  0.00  0.00    +0.314 C 
BRANCH   5   6
ATOM      6  O   UNL     1      33.827 -23.619 -19.146  0.00  0.00    -0.480 OA
ATOM      7  H   UNL     1      33.373 -23.166 -19.830  0.00  0.00    +0.295 HD
ENDBRANCH   5   6
ENDBRANCH   3   5
ENDBRANCH   2   3
ENDBRANCH   1   2
BRANCH   1   8
ATOM      8  C   UNL     1      29.822 -23.912 -15.488  0.00  0.00    +0.012 C 
BRANCH   8   9
ATOM      9  C   UNL     1      28.462 -23.217 -15.488  0.00  0.00    +0.109 C 
BRANCH   9  11
ATOM     10  O   UNL     1      27.690 -23.878 -17.704  0.00  0.00    -0.250 OA
ATOM     11  C   UNL     1      27.939 -23.004 -16.887  0.00  0.00    +0.314 C 
BRANCH  11  12
ATOM     12  O   UNL     1      27.774 -21.678 -17.126  0.00  0.00    -0.480 OA
ATOM     13  H   UNL     1      27.375 -21.393 -17.924  0.00  0.00    +0.295 HD
ENDBRANCH  11  12
ENDBRANCH   9  11
ENDBRANCH   8   9
ENDBRANCH   1   8
TORSDOF 8
ENDMDL
