MODEL 1
REMARK VINA RESULT:      -5.0      0.000      0.000
REMARK  Name = 2724877
REMARK  4 active torsions:
REMARK  status: ('A' for Active; 'I' for Inactive)
REMARK    1  A    between atoms: C_1  and  N_3
REMARK    2  A    between atoms: C_1  and  C_8
REMARK    3  A    between atoms: C_1  and  C_11
REMARK    4  A    between atoms: C_8  and  O_9
REMARK                            x       y       z     vdW  Elec       q    Type
REMARK                         _______ _______ _______ _____ _____    ______ ____
ROOT
ATOM      1  C   UNL     1      38.760 -25.477 -14.500  0.00  0.00    +0.043 C 
ATOM      2  C   UNL     1      37.731 -26.564 -14.843  0.00  0.00    -0.011 C 
ENDROOT
BRANCH   1   3
ATOM      3  N   UNL     1      38.537 -24.330 -15.387  0.00  0.00    +0.390 N 
ATOM      4  H   UNL     1      39.204 -23.591 -15.163  0.00  0.00    -0.088 HD
ATOM      5  H   UNL     1      37.587 -23.979 -15.259  0.00  0.00    -0.088 HD
ATOM      6  H   UNL     1      38.664 -24.619 -16.357  0.00  0.00    -0.088 HD
ENDBRANCH   1   3
BRANCH   1   8
ATOM      7  O   UNL     1      40.955 -26.429 -13.954  0.00  0.00    -0.253 OA
ATOM      8  C   UNL     1      40.165 -26.003 -14.786  0.00  0.00    +0.294 C 
BRANCH   8   9
ATOM      9  O   UNL     1      40.454 -25.947 -16.112  0.00  0.00    -0.482 OA
ATOM     10  H   UNL     1      40.021 -26.524 -16.711  0.00  0.00    +0.295 HD
ENDBRANCH   8   9
ENDBRANCH   1   8
BRANCH   1  11
ATOM     11  C   UNL     1      38.610 -25.042 -13.026  0.00  0.00    -0.010 C 
ATOM     12  C   UNL     1      37.434 -25.676 -12.289  0.00  0.00    -0.002 C 
ENDBRANCH   1  11
TORSDOF 4
ENDMDL
MODEL 2
REMARK VINA RESULT:      -4.7      1.394      1.872
REMARK  Name = 2724877
REMARK  4 active torsions:
REMARK  status: ('A' for Active; 'I' for Inactive)
REMARK    1  A    between atoms: C_1  and  N_3
REMARK    2  A    between atoms: C_1  and  C_8
REMARK    3  A    between atoms: C_1  and  C_11
REMARK    4  A    between atoms: C_8  and  O_9
REMARK                            x       y       z     vdW  Elec       q    Type
REMARK                         _______ _______ _______ _____ _____    ______ ____
ROOT
ATOM      1  C   UNL     1      38.723 -25.704 -14.250  0.00  0.00    +0.043 C 
ATOM      2  C   UNL     1      38.704 -25.353 -12.755  0.00  0.00    -0.011 C 
ENDROOT
BRANCH   1   3
ATOM      3  N   UNL     1      37.917 -26.914 -14.452  0.00  0.00    +0.390 N 
ATOM      4  H   UNL     1      38.456 -27.596 -14.986  0.00  0.00    -0.088 HD
ATOM      5  H   UNL     1      37.068 -26.676 -14.965  0.00  0.00    -0.088 HD
ATOM      6  H   UNL     1      37.667 -27.312 -13.548  0.00  0.00    -0.088 HD
ENDBRANCH   1   3
BRANCH   1   8
ATOM      7  O   UNL     1      41.040 -26.448 -13.938  0.00  0.00    -0.253 OA
ATOM      8  C   UNL     1      40.153 -26.037 -14.673  0.00  0.00    +0.294 C 
BRANCH   8   9
ATOM      9  O   UNL     1      40.339 -25.820 -16.001  0.00  0.00    -0.482 OA
ATOM     10  H   UNL     1      39.700 -26.119 -16.618  0.00  0.00    +0.295 HD
ENDBRANCH   8   9
ENDBRANCH   1   8
BRANCH   1  11
ATOM     11  C   UNL     1      38.146 -24.539 -15.082  0.00  0.00    -0.010 C 
ATOM     12  C   UNL     1      37.222 -23.600 -14.312  0.00  0.00    -0.002 C 
ENDBRANCH   1  11
TORSDOF 4
ENDMDL
MODEL 3
REMARK VINA RESULT:      -4.7     10.161     10.835
REMARK  Name = 2724877
REMARK  4 active torsions:
REMARK  status: ('A' for Active; 'I' for Inactive)
REMARK    1  A    between atoms: C_1  and  N_3
REMARK    2  A    between atoms: C_1  and  C_8
REMARK    3  A    between atoms: C_1  and  C_11
REMARK    4  A    between atoms: C_8  and  O_9
REMARK                            x       y       z     vdW  Elec       q    Type
REMARK                         _______ _______ _______ _____ _____    ______ ____
ROOT
ATOM      1  C   UNL     1      29.375 -23.240 -16.188  0.00  0.00    +0.043 C 
ATOM      2  C   UNL     1      29.255 -22.422 -14.894  0.00  0.00    -0.011 C 
ENDROOT
BRANCH   1   3
ATOM      3  N   UNL     1      30.538 -22.752 -16.939  0.00  0.00    +0.390 N 
ATOM      4  H   UNL     1      31.332 -23.373 -16.778  0.00  0.00    -0.088 HD
ATOM      5  H   UNL     1      30.775 -21.810 -16.626  0.00  0.00    -0.088 HD
ATOM      6  H   UNL     1      30.318 -22.734 -17.934  0.00  0.00    -0.088 HD
ENDBRANCH   1   3
BRANCH   1   8
ATOM      7  O   UNL     1      27.567 -23.835 -17.736  0.00  0.00    -0.253 OA
ATOM      8  C   UNL     1      28.142 -22.996 -17.055  0.00  0.00    +0.294 C 
BRANCH   8   9
ATOM      9  O   UNL     1      27.736 -21.701 -16.985  0.00  0.00    -0.482 OA
ATOM     10  H   UNL     1      28.325 -21.013 -17.224  0.00  0.00    +0.295 HD
ENDBRANCH   8   9
ENDBRANCH   1   8
BRANCH   1  11
ATOM     11  C   UNL     1      29.548 -24.739 -15.862  0.00  0.00    -0.010 C 
ATOM     12  C   UNL     1      30.387 -25.030 -14.620  0.00  0.00    -0.002 C 
ENDBRANCH   1  11
TORSDOF 4
ENDMDL
MODEL 4
REMARK VINA RESULT:      -4.6     10.940     11.520
REMARK  Name = 2724877
REMARK  4 active torsions:
REMARK  status: ('A' for Active; 'I' for Inactive)
REMARK    1  A    between atoms: C_1  and  N_3
REMARK    2  A    between atoms: C_1  and  C_8
REMARK    3  A    between atoms: C_1  and  C_11
REMARK    4  A    between atoms: C_8  and  O_9
REMARK                            x       y       z     vdW  Elec       q    Type
REMARK                         _______ _______ _______ _____ _____    ______ ____
ROOT
ATOM      1  C   UNL     1      35.438 -18.411 -21.913  0.00  0.00    +0.043 C 
ATOM      2  C   UNL     1      36.479 -18.989 -20.945  0.00  0.00    -0.011 C 
ENDROOT
BRANCH   1   3
ATOM      3  N   UNL     1      36.091 -18.163 -23.204  0.00  0.00    +0.390 N 
ATOM      4  H   UNL     1      36.771 -17.409 -23.102  0.00  0.00    -0.088 HD
ATOM      5  H   UNL     1      35.390 -17.897 -23.896  0.00  0.00    -0.088 HD
ATOM      6  H   UNL     1      36.568 -19.010 -23.513  0.00  0.00    -0.088 HD
ENDBRANCH   1   3
BRANCH   1   8
ATOM      7  O   UNL     1      35.215 -16.583 -20.291  0.00  0.00    -0.253 OA
ATOM      8  C   UNL     1      34.953 -17.062 -21.386  0.00  0.00    +0.294 C 
BRANCH   8   9
ATOM      9  O   UNL     1      34.171 -16.426 -22.298  0.00  0.00    -0.482 OA
ATOM     10  H   UNL     1      34.534 -16.154 -23.118  0.00  0.00    +0.295 HD
ENDBRANCH   8   9
ENDBRANCH   1   8
BRANCH   1  11
ATOM     11  C   UNL     1      34.266 -19.399 -22.095  0.00  0.00    -0.010 C 
ATOM     12  C   UNL     1      33.544 -19.778 -20.805  0.00  0.00    -0.002 C 
ENDBRANCH   1  11
TORSDOF 4
ENDMDL
MODEL 5
REMARK VINA RESULT:      -4.6     11.613     12.059
REMARK  Name = 2724877
REMARK  4 active torsions:
REMARK  status: ('A' for Active; 'I' for Inactive)
REMARK    1  A    between atoms: C_1  and  N_3
REMARK    2  A    between atoms: C_1  and  C_8
REMARK    3  A    between atoms: C_1  and  C_11
REMARK    4  A    between atoms: C_8  and  O_9
REMARK                            x       y       z     vdW  Elec       q    Type
REMARK                         _______ _______ _______ _____ _____    ______ ____
ROOT
ATOM      1  C   UNL     1      41.861 -14.490 -16.649  0.00  0.00    +0.043 C 
ATOM      2  C   UNL     1      41.195 -14.411 -18.030  0.00  0.00    -0.011 C 
ENDROOT
BRANCH   1   3
ATOM      3  N   UNL     1      43.118 -15.235 -16.782  0.00  0.00    +0.390 N 
ATOM      4  H   UNL     1      43.592 -14.951 -17.640  0.00  0.00    -0.088 HD
ATOM      5  H   UNL     1      42.920 -16.235 -16.820  0.00  0.00    -0.088 HD
ATOM      6  H   UNL     1      43.719 -15.038 -15.982  0.00  0.00    -0.088 HD
ENDBRANCH   1   3
BRANCH   1   8
ATOM      7  O   UNL     1      40.633 -16.453 -15.836  0.00  0.00    -0.253 OA
ATOM      8  C   UNL     1      40.964 -15.282 -15.700  0.00  0.00    +0.294 C 
BRANCH   8   9
ATOM      9  O   UNL     1      40.559 -14.521 -14.650  0.00  0.00    -0.482 OA
ATOM     10  H   UNL     1      39.662 -14.261 -14.579  0.00  0.00    +0.295 HD
ENDBRANCH   8   9
ENDBRANCH   1   8
BRANCH   1  11
ATOM     11  C   UNL     1      42.142 -13.072 -16.106  0.00  0.00    -0.010 C 
ATOM     12  C   UNL     1      42.470 -12.033 -17.174  0.00  0.00    -0.002 C 
ENDBRANCH   1  11
TORSDOF 4
ENDMDL
MODEL 6
REMARK VINA RESULT:      -4.6      1.931      2.739
REMARK  Name = 2724877
REMARK  4 active torsions:
REMARK  status: ('A' for Active; 'I' for Inactive)
REMARK    1  A    between atoms: C_1  and  N_3
REMARK    2  A    between atoms: C_1  and  C_8
REMARK    3  A    between atoms: C_1  and  C_11
REMARK    4  A    between atoms: C_8  and  O_9
REMARK                            x       y       z     vdW  Elec       q    Type
REMARK                         _______ _______ _______ _____ _____    ______ ____
ROOT
ATOM      1  C   UNL     1      38.275 -25.091 -14.572  0.00  0.00    +0.043 C 
ATOM      2  C   UNL     1      38.227 -24.577 -13.126  0.00  0.00    -0.011 C 
ENDROOT
BRANCH   1   3
ATOM      3  N   UNL     1      37.526 -24.157 -15.421  0.00  0.00    +0.390 N 
ATOM      4  H   UNL     1      38.067 -23.300 -15.544  0.00  0.00    -0.088 HD
ATOM      5  H   UNL     1      36.634 -23.935 -14.979  0.00  0.00    -0.088 HD
ATOM      6  H   UNL     1      37.357 -24.584 -16.332  0.00  0.00    -0.088 HD
ENDBRANCH   1   3
BRANCH   1   8
ATOM      7  O   UNL     1      37.269 -27.152 -13.702  0.00  0.00    -0.253 OA
ATOM      8  C   UNL     1      37.568 -26.442 -14.652  0.00  0.00    +0.294 C 
BRANCH   8   9
ATOM      9  O   UNL     1      37.295 -26.782 -15.939  0.00  0.00    -0.482 OA
ATOM     10  H   UNL     1      37.569 -26.223 -16.639  0.00  0.00    +0.295 HD
ENDBRANCH   8   9
ENDBRANCH   1   8
BRANCH   1  11
ATOM     11  C   UNL     1      39.737 -25.190 -15.059  0.00  0.00    -0.010 C 
ATOM     12  C   UNL     1      40.619 -26.131 -14.243  0.00  0.00    -0.002 C 
ENDBRANCH   1  11
TORSDOF 4
ENDMDL
MODEL 7
REMARK VINA RESULT:      -4.6     10.539     11.165
REMARK  Name = 2724877
REMARK  4 active torsions:
REMARK  status: ('A' for Active; 'I' for Inactive)
REMARK    1  A    between atoms: C_1  and  N_3
REMARK    2  A    between atoms: C_1  and  C_8
REMARK    3  A    between atoms: C_1  and  C_11
REMARK    4  A    between atoms: C_8  and  O_9
REMARK                            x       y       z     vdW  Elec       q    Type
REMARK                         _______ _______ _______ _____ _____    ______ ____
ROOT
ATOM      1  C   UNL     1      34.998 -18.454 -21.368  0.00  0.00    +0.043 C 
ATOM      2  C   UNL     1      34.893 -16.968 -20.999  0.00  0.00    -0.011 C 
ENDROOT
BRANCH   1   3
ATOM      3  N   UNL     1      36.138 -19.032 -20.645  0.00  0.00    +0.390 N 
ATOM      4  H   UNL     1      36.678 -19.622 -21.279  0.00  0.00    -0.088 HD
ATOM      5  H   UNL     1      35.797 -19.594 -19.866  0.00  0.00    -0.088 HD
ATOM      6  H   UNL     1      36.732 -18.282 -20.291  0.00  0.00    -0.088 HD
ENDBRANCH   1   3
BRANCH   1   8
ATOM      7  O   UNL     1      34.931 -19.498 -23.588  0.00  0.00    -0.253 OA
ATOM      8  C   UNL     1      35.296 -18.584 -22.860  0.00  0.00    +0.294 C 
BRANCH   8   9
ATOM      9  O   UNL     1      36.036 -17.538 -23.310  0.00  0.00    -0.482 OA
ATOM     10  H   UNL     1      36.896 -17.390 -22.967  0.00  0.00    +0.295 HD
ENDBRANCH   8   9
ENDBRANCH   1   8
BRANCH   1  11
ATOM     11  C   UNL     1      33.700 -19.196 -20.986  0.00  0.00    -0.010 C 
ATOM     12  C   UNL     1      33.911 -20.512 -20.242  0.00  0.00    -0.002 C 
ENDBRANCH   1  11
TORSDOF 4
ENDMDL
MODEL 8
REMARK VINA RESULT:      -4.6      2.169      2.721
REMARK  Name = 2724877
REMARK  4 active torsions:
REMARK  status: ('A' for Active; 'I' for Inactive)
REMARK    1  A    between atoms: C_1  and  N_3
REMARK    2  A    between atoms: C_1  and  C_8
REMARK    3  A    between atoms: C_1  and  C_11
REMARK    4  A    between atoms: C_8  and  O_9
REMARK                            x       y       z     vdW  Elec       q    Type
REMARK                         _______ _______ _______ _____ _____    ______ ____
ROOT
ATOM      1  C   UNL     1      36.867 -25.383 -14.638  0.00  0.00    +0.043 C 
ATOM      2  C   UNL     1      35.432 -24.996 -15.024  0.00  0.00    -0.011 C 
ENDROOT
BRANCH   1   3
ATOM      3  N   UNL     1      37.786 -24.395 -15.215  0.00  0.00    +0.390 N 
ATOM      4  H   UNL     1      38.440 -24.864 -15.842  0.00  0.00    -0.088 HD
ATOM      5  H   UNL     1      38.304 -23.934 -14.467  0.00  0.00    -0.088 HD
ATOM      6  H   UNL     1      37.254 -23.700 -15.738  0.00  0.00    -0.088 HD
ENDBRANCH   1   3
BRANCH   1   8
ATOM      7  O   UNL     1      36.607 -27.278 -16.175  0.00  0.00    -0.253 OA
ATOM      8  C   UNL     1      37.210 -26.736 -15.258  0.00  0.00    +0.294 C 
BRANCH   8   9
ATOM      9  O   UNL     1      38.295 -27.293 -14.661  0.00  0.00    -0.482 OA
ATOM     10  H   UNL     1      38.565 -27.001 -13.812  0.00  0.00    +0.295 HD
ENDBRANCH   8   9
ENDBRANCH   1   8
BRANCH   1  11
ATOM     11  C   UNL     1      37.020 -25.412 -13.102  0.00  0.00    -0.010 C 
ATOM     12  C   UNL     1      38.095 -24.482 -12.549  0.00  0.00    -0.002 C 
ENDBRANCH   1  11
TORSDOF 4
ENDMDL
MODEL 9
REMARK VINA RESULT:      -4.6     10.194     10.825
REMARK  Name = 2724877
REMARK  4 active torsions:
REMARK  status: ('A' for Active; 'I' for Inactive)
REMARK    1  A    between atoms: C_1  and  N_3
REMARK    2  A    between atoms: C_1  and  C_8
REMARK    3  A    between atoms: C_1  and  C_11
REMARK    4  A    between atoms: C_8  and  O_9
REMARK                            x       y       z     vdW  Elec       q    Type
REMARK                         _______ _______ _______ _____ _____    ______ ____
ROOT
ATOM      1  C   UNL     1      35.268 -18.730 -21.301  0.00  0.00    +0.043 C 
ATOM      2  C   UNL     1      33.975 -19.468 -20.926  0.00  0.00    -0.011 C 
ENDROOT
BRANCH   1   3
ATOM      3  N   UNL     1      35.196 -17.366 -20.764  0.00  0.00    +0.390 N 
ATOM      4  H   UNL     1      34.703 -17.378 -19.871  0.00  0.00    -0.088 HD
ATOM      5  H   UNL     1      34.694 -16.767 -21.420  0.00  0.00    -0.088 HD
ATOM      6  H   UNL     1      36.139 -17.004 -20.626  0.00  0.00    -0.088 HD
ENDBRANCH   1   3
BRANCH   1   8
ATOM      7  O   UNL     1      34.904 -19.409 -23.631  0.00  0.00    -0.253 OA
ATOM      8  C   UNL     1      35.360 -18.613 -22.821  0.00  0.00    +0.294 C 
BRANCH   8   9
ATOM      9  O   UNL     1      36.027 -17.489 -23.191  0.00  0.00    -0.482 OA
ATOM     10  H   UNL     1      36.963 -17.471 -23.171  0.00  0.00    +0.295 HD
ENDBRANCH   8   9
ENDBRANCH   1   8
BRANCH   1  11
ATOM     11  C   UNL     1      36.494 -19.464 -20.717  0.00  0.00    -0.010 C 
ATOM     12  C   UNL     1      36.182 -20.803 -20.055  0.00  0.00    -0.002 C 
ENDBRANCH   1  11
TORSDOF 4
ENDMDL
