MODEL 1
REMARK VINA RESULT:      -8.9      0.000      0.000
REMARK  Name = 131704211
REMARK  11 active torsions:
REMARK  status: ('A' for Active; 'I' for Inactive)
REMARK    1  A    between atoms: N_2  and  C_5
REMARK    2  A    between atoms: C_3  and  C_21
REMARK    3  A    between atoms: C_5  and  C_8
REMARK    4  A    between atoms: C_5  and  O_17
REMARK    5  A    between atoms: C_5  and  C_20
REMARK    6  A    between atoms: CA_11  and  C_14
REMARK    7  A    between atoms: C_14  and  O_15
REMARK    8  A    between atoms: C_21  and  C_22
REMARK    9  A    between atoms: C_21  and  C_31
REMARK   10  A    between atoms: C_27  and  O_28
REMARK   11  A    between atoms: C_31  and  O_32
REMARK                            x       y       z     vdW  Elec       q    Type
REMARK                         _______ _______ _______ _____ _____    ______ ____
ROOT
ATOM      1  O   UNL     1      32.967 -22.284 -14.552  0.00  0.00    -0.274 OA
ATOM      2  N   UNL     1      33.749 -24.471 -14.700  0.00  0.00    -0.276 N 
ATOM      3  C   UNL     1      32.804 -23.494 -14.422  0.00  0.00    +0.239 C 
ATOM      4  H   UNL     1      33.489 -25.410 -14.552  0.00  0.00    +0.152 HD
ENDROOT
BRANCH   2   5
ATOM      5  C   UNL     1      35.098 -24.221 -15.196  0.00  0.00    +0.259 C 
BRANCH   5   8
ATOM      6  O   UNL     1      36.630 -22.811 -16.344  0.00  0.00    -0.326 OA
ATOM      7  N   UNL     1      34.306 -23.104 -17.187  0.00  0.00    -0.233 NA
ATOM      8  C   UNL     1      35.232 -22.967 -16.051  0.00  0.00    +0.271 C 
ATOM      9  C   UNL     1      36.832 -21.703 -17.220  0.00  0.00    +0.173 C 
ATOM     10  C   UNL     1      36.039 -21.895 -18.476  0.00  0.00    +0.031 C 
ATOM     11  CA  UNL     1      34.738 -22.595 -18.290  0.00  0.00    +0.152 C 
ATOM     12  C   UNL     1      36.472 -21.491 -19.678  0.00  0.00    -0.000 C 
BRANCH  11  14
ATOM     13  OXT UNL     1      33.072 -21.857 -19.797  0.00  0.00    -0.243 OA
ATOM     14  C   UNL     1      33.822 -22.744 -19.450  0.00  0.00    +0.355 C 
BRANCH  14  15
ATOM     15  O   UNL     1      33.989 -23.957 -19.986  0.00  0.00    -0.476 OA
ATOM     16  H   UNL     1      33.952 -24.069 -20.916  0.00  0.00    +0.295 HD
ENDBRANCH  14  15
ENDBRANCH  11  14
ENDBRANCH   5   8
BRANCH   5  17
ATOM     17  O   UNL     1      35.593 -25.395 -15.854  0.00  0.00    -0.329 OA
ATOM     18  C   UNL     1      36.526 -26.167 -15.109  0.00  0.00    +0.177 C 
ENDBRANCH   5  17
BRANCH   5  20
ATOM     19  O   UNL     1      36.054 -23.196 -13.210  0.00  0.00    -0.284 OA
ATOM     20  C   UNL     1      36.016 -24.142 -13.990  0.00  0.00    +0.258 C 
ENDBRANCH   5  20
ENDBRANCH   2   5
BRANCH   3  21
ATOM     21  C   UNL     1      31.489 -24.089 -13.916  0.00  0.00    +0.197 C 
BRANCH  21  22
ATOM     22  C   UNL     1      30.399 -23.915 -14.963  0.00  0.00    -0.003 C 
ATOM     23  C   UNL     1      29.895 -25.028 -15.636  0.00  0.00    -0.000 C 
ATOM     24  C   UNL     1      29.903 -22.642 -15.247  0.00  0.00    -0.000 C 
ATOM     25  C   UNL     1      28.895 -24.868 -16.595  0.00  0.00    +0.036 C 
ATOM     26  C   UNL     1      28.903 -22.483 -16.207  0.00  0.00    +0.036 C 
ATOM     27  C   UNL     1      28.400 -23.596 -16.880  0.00  0.00    +0.134 C 
BRANCH  27  28
ATOM     28  O   UNL     1      27.423 -23.440 -17.815  0.00  0.00    -0.506 OA
ATOM     29  H   UNL     1      26.817 -22.729 -17.747  0.00  0.00    +0.292 HD
ENDBRANCH  27  28
ENDBRANCH  21  22
BRANCH  21  31
ATOM     30  O   UNL     1      30.102 -23.956 -11.907  0.00  0.00    -0.249 OA
ATOM     31  C   UNL     1      31.063 -23.559 -12.553  0.00  0.00    +0.326 C 
BRANCH  31  32
ATOM     32  O   UNL     1      31.906 -22.597 -12.093  0.00  0.00    -0.480 OA
ATOM     33  H   UNL     1      31.560 -21.807 -11.728  0.00  0.00    +0.295 HD
ENDBRANCH  31  32
ENDBRANCH  21  31
ENDBRANCH   3  21
TORSDOF 11
ENDMDL
MODEL 2
REMARK VINA RESULT:      -8.6      7.372     10.659
REMARK  Name = 131704211
REMARK  11 active torsions:
REMARK  status: ('A' for Active; 'I' for Inactive)
REMARK    1  A    between atoms: N_2  and  C_5
REMARK    2  A    between atoms: C_3  and  C_21
REMARK    3  A    between atoms: C_5  and  C_8
REMARK    4  A    between atoms: C_5  and  O_17
REMARK    5  A    between atoms: C_5  and  C_20
REMARK    6  A    between atoms: CA_11  and  C_14
REMARK    7  A    between atoms: C_14  and  O_15
REMARK    8  A    between atoms: C_21  and  C_22
REMARK    9  A    between atoms: C_21  and  C_31
REMARK   10  A    between atoms: C_27  and  O_28
REMARK   11  A    between atoms: C_31  and  O_32
REMARK                            x       y       z     vdW  Elec       q    Type
REMARK                         _______ _______ _______ _____ _____    ______ ____
ROOT
ATOM      1  O   UNL     1      35.269 -17.175 -20.618  0.00  0.00    -0.274 OA
ATOM      2  N   UNL     1      33.665 -16.347 -22.088  0.00  0.00    -0.276 N 
ATOM      3  C   UNL     1      34.465 -17.336 -21.533  0.00  0.00    +0.239 C 
ATOM      4  H   UNL     1      33.060 -16.611 -22.819  0.00  0.00    +0.152 HD
ENDROOT
BRANCH   2   5
ATOM      5  C   UNL     1      33.647 -14.949 -21.675  0.00  0.00    +0.259 C 
BRANCH   5   8
ATOM      6  O   UNL     1      33.907 -12.830 -22.723  0.00  0.00    -0.326 OA
ATOM      7  N   UNL     1      32.913 -14.743 -23.968  0.00  0.00    -0.233 NA
ATOM      8  C   UNL     1      33.065 -13.994 -22.710  0.00  0.00    +0.271 C 
ATOM      9  C   UNL     1      33.479 -11.919 -23.735  0.00  0.00    +0.173 C 
ATOM     10  C   UNL     1      33.485 -12.601 -25.069  0.00  0.00    +0.031 C 
ATOM     11  CA  UNL     1      33.130 -14.047 -25.031  0.00  0.00    +0.152 C 
ATOM     12  C   UNL     1      33.807 -11.970 -26.206  0.00  0.00    -0.000 C 
BRANCH  11  14
ATOM     13  OXT UNL     1      33.815 -15.620 -26.658  0.00  0.00    -0.243 OA
ATOM     14  C   UNL     1      33.000 -14.795 -26.308  0.00  0.00    +0.355 C 
BRANCH  14  15
ATOM     15  O   UNL     1      31.884 -14.403 -26.932  0.00  0.00    -0.476 OA
ATOM     16  H   UNL     1      31.330 -13.756 -26.541  0.00  0.00    +0.295 HD
ENDBRANCH  14  15
ENDBRANCH  11  14
ENDBRANCH   5   8
BRANCH   5  17
ATOM     17  O   UNL     1      34.956 -14.560 -21.239  0.00  0.00    -0.329 OA
ATOM     18  C   UNL     1      35.040 -14.083 -19.903  0.00  0.00    +0.177 C 
ENDBRANCH   5  17
BRANCH   5  20
ATOM     19  O   UNL     1      31.973 -15.652 -20.058  0.00  0.00    -0.284 OA
ATOM     20  C   UNL     1      32.862 -14.869 -20.379  0.00  0.00    +0.258 C 
ENDBRANCH   5  20
ENDBRANCH   2   5
BRANCH   3  21
ATOM     21  C   UNL     1      34.243 -18.698 -22.192  0.00  0.00    +0.197 C 
BRANCH  21  22
ATOM     22  C   UNL     1      34.378 -19.807 -21.161  0.00  0.00    -0.003 C 
ATOM     23  C   UNL     1      35.639 -20.315 -20.844  0.00  0.00    -0.000 C 
ATOM     24  C   UNL     1      33.242 -20.315 -20.530  0.00  0.00    -0.000 C 
ATOM     25  C   UNL     1      35.763 -21.332 -19.898  0.00  0.00    +0.036 C 
ATOM     26  C   UNL     1      33.366 -21.332 -19.583  0.00  0.00    +0.036 C 
ATOM     27  C   UNL     1      34.627 -21.840 -19.268  0.00  0.00    +0.134 C 
BRANCH  27  28
ATOM     28  O   UNL     1      34.748 -22.832 -18.343  0.00  0.00    -0.506 OA
ATOM     29  H   UNL     1      34.386 -23.679 -18.513  0.00  0.00    +0.292 HD
ENDBRANCH  27  28
ENDBRANCH  21  22
BRANCH  21  31
ATOM     30  O   UNL     1      34.959 -19.817 -24.245  0.00  0.00    -0.249 OA
ATOM     31  C   UNL     1      35.126 -18.939 -23.410  0.00  0.00    +0.326 C 
BRANCH  31  32
ATOM     32  O   UNL     1      36.130 -18.026 -23.501  0.00  0.00    -0.480 OA
ATOM     33  H   UNL     1      37.023 -18.309 -23.488  0.00  0.00    +0.295 HD
ENDBRANCH  31  32
ENDBRANCH  21  31
ENDBRANCH   3  21
TORSDOF 11
ENDMDL
MODEL 3
REMARK VINA RESULT:      -8.4     10.784     14.066
REMARK  Name = 131704211
REMARK  11 active torsions:
REMARK  status: ('A' for Active; 'I' for Inactive)
REMARK    1  A    between atoms: N_2  and  C_5
REMARK    2  A    between atoms: C_3  and  C_21
REMARK    3  A    between atoms: C_5  and  C_8
REMARK    4  A    between atoms: C_5  and  O_17
REMARK    5  A    between atoms: C_5  and  C_20
REMARK    6  A    between atoms: CA_11  and  C_14
REMARK    7  A    between atoms: C_14  and  O_15
REMARK    8  A    between atoms: C_21  and  C_22
REMARK    9  A    between atoms: C_21  and  C_31
REMARK   10  A    between atoms: C_27  and  O_28
REMARK   11  A    between atoms: C_31  and  O_32
REMARK                            x       y       z     vdW  Elec       q    Type
REMARK                         _______ _______ _______ _____ _____    ______ ____
ROOT
ATOM      1  O   UNL     1      32.638 -14.320 -23.902  0.00  0.00    -0.274 OA
ATOM      2  N   UNL     1      34.252 -12.663 -23.649  0.00  0.00    -0.276 N 
ATOM      3  C   UNL     1      33.710 -13.924 -23.452  0.00  0.00    +0.239 C 
ATOM      4  H   UNL     1      35.124 -12.474 -23.230  0.00  0.00    +0.152 HD
ENDROOT
BRANCH   2   5
ATOM      5  C   UNL     1      33.636 -11.593 -24.424  0.00  0.00    +0.259 C 
BRANCH   5   8
ATOM      6  O   UNL     1      32.505 -11.345 -22.348  0.00  0.00    -0.326 OA
ATOM      7  N   UNL     1      33.098  -9.348 -23.711  0.00  0.00    -0.233 NA
ATOM      8  C   UNL     1      32.638 -10.745 -23.646  0.00  0.00    +0.271 C 
ATOM      9  C   UNL     1      31.650 -10.556 -21.522  0.00  0.00    +0.173 C 
ATOM     10  C   UNL     1      32.189  -9.162 -21.416  0.00  0.00    +0.031 C 
ATOM     11  CA  UNL     1      32.871  -8.663 -22.643  0.00  0.00    +0.152 C 
ATOM     12  C   UNL     1      32.089  -8.426 -20.301  0.00  0.00    -0.000 C 
BRANCH  11  14
ATOM     13  OXT UNL     1      32.616  -6.320 -22.454  0.00  0.00    -0.243 OA
ATOM     14  C   UNL     1      33.348  -7.257 -22.687  0.00  0.00    +0.355 C 
BRANCH  14  15
ATOM     15  O   UNL     1      34.647  -7.246 -23.004  0.00  0.00    -0.476 OA
ATOM     16  H   UNL     1      35.220  -6.614 -22.616  0.00  0.00    +0.295 HD
ENDBRANCH  14  15
ENDBRANCH  11  14
ENDBRANCH   5   8
BRANCH   5  17
ATOM     17  O   UNL     1      33.081 -12.133 -25.631  0.00  0.00    -0.329 OA
ATOM     18  C   UNL     1      33.965 -12.182 -26.743  0.00  0.00    +0.177 C 
ENDBRANCH   5  17
BRANCH   5  20
ATOM     19  O   UNL     1      35.541 -10.089 -24.275  0.00  0.00    -0.284 OA
ATOM     20  C   UNL     1      34.756 -10.726 -24.971  0.00  0.00    +0.258 C 
ENDBRANCH   5  20
ENDBRANCH   2   5
BRANCH   3  21
ATOM     21  C   UNL     1      34.607 -14.812 -22.588  0.00  0.00    +0.197 C 
BRANCH  21  22
ATOM     22  C   UNL     1      34.666 -16.218 -23.167  0.00  0.00    -0.003 C 
ATOM     23  C   UNL     1      34.652 -16.404 -24.549  0.00  0.00    -0.000 C 
ATOM     24  C   UNL     1      34.737 -17.320 -22.314  0.00  0.00    -0.000 C 
ATOM     25  C   UNL     1      34.706 -17.693 -25.080  0.00  0.00    +0.036 C 
ATOM     26  C   UNL     1      34.791 -18.609 -22.844  0.00  0.00    +0.036 C 
ATOM     27  C   UNL     1      34.776 -18.795 -24.227  0.00  0.00    +0.134 C 
BRANCH  27  28
ATOM     28  O   UNL     1      34.830 -20.052 -24.745  0.00  0.00    -0.506 OA
ATOM     29  H   UNL     1      35.027 -20.780 -24.189  0.00  0.00    +0.292 HD
ENDBRANCH  27  28
ENDBRANCH  21  22
BRANCH  21  31
ATOM     30  O   UNL     1      34.893 -15.303 -20.210  0.00  0.00    -0.249 OA
ATOM     31  C   UNL     1      34.226 -14.816 -21.114  0.00  0.00    +0.326 C 
BRANCH  31  32
ATOM     32  O   UNL     1      33.052 -14.169 -20.889  0.00  0.00    -0.480 OA
ATOM     33  H   UNL     1      32.261 -14.485 -21.279  0.00  0.00    +0.295 HD
ENDBRANCH  31  32
ENDBRANCH  21  31
ENDBRANCH   3  21
TORSDOF 11
ENDMDL
MODEL 4
REMARK VINA RESULT:      -8.0      1.711      4.256
REMARK  Name = 131704211
REMARK  11 active torsions:
REMARK  status: ('A' for Active; 'I' for Inactive)
REMARK    1  A    between atoms: N_2  and  C_5
REMARK    2  A    between atoms: C_3  and  C_21
REMARK    3  A    between atoms: C_5  and  C_8
REMARK    4  A    between atoms: C_5  and  O_17
REMARK    5  A    between atoms: C_5  and  C_20
REMARK    6  A    between atoms: CA_11  and  C_14
REMARK    7  A    between atoms: C_14  and  O_15
REMARK    8  A    between atoms: C_21  and  C_22
REMARK    9  A    between atoms: C_21  and  C_31
REMARK   10  A    between atoms: C_27  and  O_28
REMARK   11  A    between atoms: C_31  and  O_32
REMARK                            x       y       z     vdW  Elec       q    Type
REMARK                         _______ _______ _______ _____ _____    ______ ____
ROOT
ATOM      1  O   UNL     1      32.850 -25.879 -14.049  0.00  0.00    -0.274 OA
ATOM      2  N   UNL     1      33.044 -23.627 -14.605  0.00  0.00    -0.276 N 
ATOM      3  C   UNL     1      32.392 -24.740 -14.094  0.00  0.00    +0.239 C 
ATOM      4  H   UNL     1      32.562 -22.768 -14.581  0.00  0.00    +0.152 HD
ENDROOT
BRANCH   2   5
ATOM      5  C   UNL     1      34.386 -23.626 -15.175  0.00  0.00    +0.259 C 
BRANCH   5   8
ATOM      6  O   UNL     1      36.252 -25.045 -15.573  0.00  0.00    -0.326 OA
ATOM      7  N   UNL     1      35.908 -24.006 -13.336  0.00  0.00    -0.233 NA
ATOM      8  C   UNL     1      35.340 -24.631 -14.542  0.00  0.00    +0.271 C 
ATOM      9  C   UNL     1      37.239 -25.925 -15.037  0.00  0.00    +0.173 C 
ATOM     10  C   UNL     1      37.968 -25.251 -13.915  0.00  0.00    +0.031 C 
ATOM     11  CA  UNL     1      37.134 -24.323 -13.100  0.00  0.00    +0.152 C 
ATOM     12  C   UNL     1      39.271 -25.446 -13.673  0.00  0.00    -0.000 C 
BRANCH  11  14
ATOM     13  OXT UNL     1      38.381 -22.667 -11.963  0.00  0.00    -0.243 OA
ATOM     14  C   UNL     1      37.727 -23.684 -11.897  0.00  0.00    +0.355 C 
BRANCH  14  15
ATOM     15  O   UNL     1      37.406 -24.405 -10.817  0.00  0.00    -0.476 OA
ATOM     16  H   UNL     1      38.034 -24.529 -10.132  0.00  0.00    +0.295 HD
ENDBRANCH  14  15
ENDBRANCH  11  14
ENDBRANCH   5   8
BRANCH   5  17
ATOM     17  O   UNL     1      34.908 -22.290 -15.171  0.00  0.00    -0.329 OA
ATOM     18  C   UNL     1      35.992 -22.053 -16.060  0.00  0.00    +0.177 C 
ENDBRANCH   5  17
BRANCH   5  20
ATOM     19  O   UNL     1      33.281 -23.549 -17.339  0.00  0.00    -0.284 OA
ATOM     20  C   UNL     1      34.247 -23.890 -16.663  0.00  0.00    +0.258 C 
ENDBRANCH   5  20
ENDBRANCH   2   5
BRANCH   3  21
ATOM     21  C   UNL     1      30.994 -24.403 -13.573  0.00  0.00    +0.197 C 
BRANCH  21  22
ATOM     22  C   UNL     1      30.082 -24.022 -14.729  0.00  0.00    -0.003 C 
ATOM     23  C   UNL     1      29.546 -25.014 -15.551  0.00  0.00    -0.000 C 
ATOM     24  C   UNL     1      29.780 -22.680 -14.965  0.00  0.00    -0.000 C 
ATOM     25  C   UNL     1      28.710 -24.664 -16.611  0.00  0.00    +0.036 C 
ATOM     26  C   UNL     1      28.943 -22.330 -16.025  0.00  0.00    +0.036 C 
ATOM     27  C   UNL     1      28.408 -23.322 -16.847  0.00  0.00    +0.134 C 
BRANCH  27  28
ATOM     28  O   UNL     1      27.590 -22.981 -17.880  0.00  0.00    -0.506 OA
ATOM     29  H   UNL     1      26.931 -23.578 -18.173  0.00  0.00    +0.292 HD
ENDBRANCH  27  28
ENDBRANCH  21  22
BRANCH  21  31
ATOM     30  O   UNL     1      30.141 -23.248 -11.594  0.00  0.00    -0.249 OA
ATOM     31  C   UNL     1      30.989 -23.353 -12.470  0.00  0.00    +0.326 C 
BRANCH  31  32
ATOM     32  O   UNL     1      32.077 -22.541 -12.535  0.00  0.00    -0.480 OA
ATOM     33  H   UNL     1      31.980 -21.617 -12.414  0.00  0.00    +0.295 HD
ENDBRANCH  31  32
ENDBRANCH  21  31
ENDBRANCH   3  21
TORSDOF 11
ENDMDL
MODEL 5
REMARK VINA RESULT:      -7.9     10.073     13.671
REMARK  Name = 131704211
REMARK  11 active torsions:
REMARK  status: ('A' for Active; 'I' for Inactive)
REMARK    1  A    between atoms: N_2  and  C_5
REMARK    2  A    between atoms: C_3  and  C_21
REMARK    3  A    between atoms: C_5  and  C_8
REMARK    4  A    between atoms: C_5  and  O_17
REMARK    5  A    between atoms: C_5  and  C_20
REMARK    6  A    between atoms: CA_11  and  C_14
REMARK    7  A    between atoms: C_14  and  O_15
REMARK    8  A    between atoms: C_21  and  C_22
REMARK    9  A    between atoms: C_21  and  C_31
REMARK   10  A    between atoms: C_27  and  O_28
REMARK   11  A    between atoms: C_31  and  O_32
REMARK                            x       y       z     vdW  Elec       q    Type
REMARK                         _______ _______ _______ _____ _____    ______ ____
ROOT
ATOM      1  O   UNL     1      32.426 -12.859 -24.448  0.00  0.00    -0.274 OA
ATOM      2  N   UNL     1      34.049 -13.241 -22.824  0.00  0.00    -0.276 N 
ATOM      3  C   UNL     1      33.507 -12.597 -23.927  0.00  0.00    +0.239 C 
ATOM      4  H   UNL     1      34.929 -12.931 -22.505  0.00  0.00    +0.152 HD
ENDROOT
BRANCH   2   5
ATOM      5  C   UNL     1      33.423 -14.340 -22.098  0.00  0.00    +0.259 C 
BRANCH   5   8
ATOM      6  O   UNL     1      34.482 -15.576 -23.832  0.00  0.00    -0.326 OA
ATOM      7  N   UNL     1      33.604 -16.732 -21.809  0.00  0.00    -0.233 NA
ATOM      8  C   UNL     1      33.461 -15.678 -22.827  0.00  0.00    +0.271 C 
ATOM      9  C   UNL     1      34.643 -16.824 -24.504  0.00  0.00    +0.173 C 
ATOM     10  C   UNL     1      34.972 -17.898 -23.512  0.00  0.00    +0.031 C 
ATOM     11  CA  UNL     1      34.324 -17.735 -22.181  0.00  0.00    +0.152 C 
ATOM     12  C   UNL     1      35.800 -18.914 -23.789  0.00  0.00    -0.000 C 
BRANCH  11  14
ATOM     13  OXT UNL     1      33.702 -19.706 -21.032  0.00  0.00    -0.243 OA
ATOM     14  C   UNL     1      34.495 -18.797 -21.157  0.00  0.00    +0.355 C 
BRANCH  14  15
ATOM     15  O   UNL     1      35.615 -18.562 -20.465  0.00  0.00    -0.476 OA
ATOM     16  H   UNL     1      35.675 -18.821 -19.566  0.00  0.00    +0.295 HD
ENDBRANCH  14  15
ENDBRANCH  11  14
ENDBRANCH   5   8
BRANCH   5  17
ATOM     17  O   UNL     1      32.098 -13.962 -21.704  0.00  0.00    -0.329 OA
ATOM     18  C   UNL     1      32.017 -12.873 -20.794  0.00  0.00    +0.177 C 
ENDBRANCH   5  17
BRANCH   5  20
ATOM     19  O   UNL     1      35.334 -14.397 -20.595  0.00  0.00    -0.284 OA
ATOM     20  C   UNL     1      34.118 -14.449 -20.753  0.00  0.00    +0.258 C 
ENDBRANCH   5  20
ENDBRANCH   2   5
BRANCH   3  21
ATOM     21  C   UNL     1      34.417 -11.487 -24.454  0.00  0.00    +0.197 C 
BRANCH  21  22
ATOM     22  C   UNL     1      33.978 -10.141 -23.897  0.00  0.00    -0.003 C 
ATOM     23  C   UNL     1      34.813  -9.030 -24.020  0.00  0.00    -0.000 C 
ATOM     24  C   UNL     1      32.740 -10.018 -23.267  0.00  0.00    -0.000 C 
ATOM     25  C   UNL     1      34.410  -7.796 -23.509  0.00  0.00    +0.036 C 
ATOM     26  C   UNL     1      32.337  -8.784 -22.756  0.00  0.00    +0.036 C 
ATOM     27  C   UNL     1      33.173  -7.673 -22.878  0.00  0.00    +0.134 C 
BRANCH  27  28
ATOM     28  O   UNL     1      32.779  -6.469 -22.382  0.00  0.00    -0.506 OA
ATOM     29  H   UNL     1      32.405  -6.414 -21.524  0.00  0.00    +0.292 HD
ENDBRANCH  27  28
ENDBRANCH  21  22
BRANCH  21  31
ATOM     30  O   UNL     1      35.354 -10.812 -26.610  0.00  0.00    -0.249 OA
ATOM     31  C   UNL     1      34.538 -11.465 -25.972  0.00  0.00    +0.326 C 
BRANCH  31  32
ATOM     32  O   UNL     1      33.646 -12.301 -26.567  0.00  0.00    -0.480 OA
ATOM     33  H   UNL     1      33.821 -12.641 -27.423  0.00  0.00    +0.295 HD
ENDBRANCH  31  32
ENDBRANCH  21  31
ENDBRANCH   3  21
TORSDOF 11
ENDMDL
MODEL 6
REMARK VINA RESULT:      -7.7      2.287      6.259
REMARK  Name = 131704211
REMARK  11 active torsions:
REMARK  status: ('A' for Active; 'I' for Inactive)
REMARK    1  A    between atoms: N_2  and  C_5
REMARK    2  A    between atoms: C_3  and  C_21
REMARK    3  A    between atoms: C_5  and  C_8
REMARK    4  A    between atoms: C_5  and  O_17
REMARK    5  A    between atoms: C_5  and  C_20
REMARK    6  A    between atoms: CA_11  and  C_14
REMARK    7  A    between atoms: C_14  and  O_15
REMARK    8  A    between atoms: C_21  and  C_22
REMARK    9  A    between atoms: C_21  and  C_31
REMARK   10  A    between atoms: C_27  and  O_28
REMARK   11  A    between atoms: C_31  and  O_32
REMARK                            x       y       z     vdW  Elec       q    Type
REMARK                         _______ _______ _______ _____ _____    ______ ____
ROOT
ATOM      1  O   UNL     1      35.182 -25.343 -14.732  0.00  0.00    -0.274 OA
ATOM      2  N   UNL     1      34.210 -23.292 -14.212  0.00  0.00    -0.276 N 
ATOM      3  C   UNL     1      35.180 -24.280 -14.115  0.00  0.00    +0.239 C 
ATOM      4  H   UNL     1      34.330 -22.485 -13.659  0.00  0.00    +0.152 HD
ENDROOT
BRANCH   2   5
ATOM      5  C   UNL     1      33.029 -23.352 -15.064  0.00  0.00    +0.259 C 
BRANCH   5   8
ATOM      6  O   UNL     1      32.313 -22.595 -17.201  0.00  0.00    -0.326 OA
ATOM      7  N   UNL     1      34.731 -22.961 -16.734  0.00  0.00    -0.233 NA
ATOM      8  C   UNL     1      33.331 -23.378 -16.558  0.00  0.00    +0.271 C 
ATOM      9  C   UNL     1      32.575 -22.495 -18.601  0.00  0.00    +0.173 C 
ATOM     10  C   UNL     1      33.932 -21.900 -18.824  0.00  0.00    +0.031 C 
ATOM     11  CA  UNL     1      34.949 -22.269 -17.800  0.00  0.00    +0.152 C 
ATOM     12  C   UNL     1      34.208 -21.083 -19.848  0.00  0.00    -0.000 C 
BRANCH  11  14
ATOM     13  OXT UNL     1      36.850 -21.681 -19.077  0.00  0.00    -0.243 OA
ATOM     14  C   UNL     1      36.355 -21.823 -17.981  0.00  0.00    +0.355 C 
BRANCH  14  15
ATOM     15  O   UNL     1      36.908 -21.624 -16.780  0.00  0.00    -0.476 OA
ATOM     16  H   UNL     1      36.451 -21.128 -16.129  0.00  0.00    +0.295 HD
ENDBRANCH  14  15
ENDBRANCH  11  14
ENDBRANCH   5   8
BRANCH   5  17
ATOM     17  O   UNL     1      32.121 -22.304 -14.701  0.00  0.00    -0.329 OA
ATOM     18  C   UNL     1      30.745 -22.660 -14.695  0.00  0.00    +0.177 C 
ENDBRANCH   5  17
BRANCH   5  20
ATOM     19  O   UNL     1      32.170 -25.017 -13.513  0.00  0.00    -0.284 OA
ATOM     20  C   UNL     1      32.241 -24.585 -14.660  0.00  0.00    +0.258 C 
ENDBRANCH   5  20
ENDBRANCH   2   5
BRANCH   3  21
ATOM     21  C   UNL     1      36.289 -23.908 -13.130  0.00  0.00    +0.197 C 
BRANCH  21  22
ATOM     22  C   UNL     1      37.613 -24.505 -13.582  0.00  0.00    -0.003 C 
ATOM     23  C   UNL     1      38.234 -25.489 -12.812  0.00  0.00    -0.000 C 
ATOM     24  C   UNL     1      38.204 -24.071 -14.769  0.00  0.00    -0.000 C 
ATOM     25  C   UNL     1      39.447 -26.037 -13.227  0.00  0.00    +0.036 C 
ATOM     26  C   UNL     1      39.418 -24.618 -15.184  0.00  0.00    +0.036 C 
ATOM     27  C   UNL     1      40.039 -25.601 -14.413  0.00  0.00    +0.134 C 
BRANCH  27  28
ATOM     28  O   UNL     1      41.223 -26.137 -14.819  0.00  0.00    -0.506 OA
ATOM     29  H   UNL     1      41.511 -26.022 -15.703  0.00  0.00    +0.292 HD
ENDBRANCH  27  28
ENDBRANCH  21  22
BRANCH  21  31
ATOM     30  O   UNL     1      36.596 -23.886 -10.704  0.00  0.00    -0.249 OA
ATOM     31  C   UNL     1      35.967 -24.262 -11.684  0.00  0.00    +0.326 C 
BRANCH  31  32
ATOM     32  O   UNL     1      34.851 -25.032 -11.584  0.00  0.00    -0.480 OA
ATOM     33  H   UNL     1      34.082 -24.808 -12.070  0.00  0.00    +0.295 HD
ENDBRANCH  31  32
ENDBRANCH  21  31
ENDBRANCH   3  21
TORSDOF 11
ENDMDL
MODEL 7
REMARK VINA RESULT:      -7.6      7.195     10.470
REMARK  Name = 131704211
REMARK  11 active torsions:
REMARK  status: ('A' for Active; 'I' for Inactive)
REMARK    1  A    between atoms: N_2  and  C_5
REMARK    2  A    between atoms: C_3  and  C_21
REMARK    3  A    between atoms: C_5  and  C_8
REMARK    4  A    between atoms: C_5  and  O_17
REMARK    5  A    between atoms: C_5  and  C_20
REMARK    6  A    between atoms: CA_11  and  C_14
REMARK    7  A    between atoms: C_14  and  O_15
REMARK    8  A    between atoms: C_21  and  C_22
REMARK    9  A    between atoms: C_21  and  C_31
REMARK   10  A    between atoms: C_27  and  O_28
REMARK   11  A    between atoms: C_31  and  O_32
REMARK                            x       y       z     vdW  Elec       q    Type
REMARK                         _______ _______ _______ _____ _____    ______ ____
ROOT
ATOM      1  O   UNL     1      33.768 -18.468 -23.214  0.00  0.00    -0.274 OA
ATOM      2  N   UNL     1      34.984 -17.036 -21.840  0.00  0.00    -0.276 N 
ATOM      3  C   UNL     1      34.656 -18.267 -22.389  0.00  0.00    +0.239 C 
ATOM      4  H   UNL     1      35.721 -17.013 -21.186  0.00  0.00    +0.152 HD
ENDROOT
BRANCH   2   5
ATOM      5  C   UNL     1      34.327 -15.772 -22.153  0.00  0.00    +0.259 C 
BRANCH   5   8
ATOM      6  O   UNL     1      33.527 -16.005 -24.380  0.00  0.00    -0.326 OA
ATOM      7  N   UNL     1      34.464 -13.837 -23.593  0.00  0.00    -0.233 NA
ATOM      8  C   UNL     1      34.507 -15.308 -23.593  0.00  0.00    +0.271 C 
ATOM      9  C   UNL     1      33.571 -15.559 -25.735  0.00  0.00    +0.173 C 
ATOM     10  C   UNL     1      33.349 -14.078 -25.790  0.00  0.00    +0.031 C 
ATOM     11  CA  UNL     1      33.907 -13.321 -24.634  0.00  0.00    +0.152 C 
ATOM     12  C   UNL     1      32.682 -13.480 -26.786  0.00  0.00    -0.000 C 
BRANCH  11  14
ATOM     13  OXT UNL     1      34.419 -11.168 -25.466  0.00  0.00    -0.243 OA
ATOM     14  C   UNL     1      33.839 -11.837 -24.639  0.00  0.00    +0.355 C 
BRANCH  14  15
ATOM     15  O   UNL     1      33.064 -11.433 -23.627  0.00  0.00    -0.476 OA
ATOM     16  H   UNL     1      33.266 -10.641 -23.168  0.00  0.00    +0.295 HD
ENDBRANCH  14  15
ENDBRANCH  11  14
ENDBRANCH   5   8
BRANCH   5  17
ATOM     17  O   UNL     1      34.719 -14.778 -21.198  0.00  0.00    -0.329 OA
ATOM     18  C   UNL     1      34.719 -15.198 -19.840  0.00  0.00    +0.177 C 
ENDBRANCH   5  17
BRANCH   5  20
ATOM     19  O   UNL     1      32.065 -15.004 -21.699  0.00  0.00    -0.284 OA
ATOM     20  C   UNL     1      32.853 -15.936 -21.828  0.00  0.00    +0.258 C 
ENDBRANCH   5  20
ENDBRANCH   2   5
BRANCH   3  21
ATOM     21  C   UNL     1      35.536 -19.395 -21.849  0.00  0.00    +0.197 C 
BRANCH  21  22
ATOM     22  C   UNL     1      34.750 -20.247 -20.864  0.00  0.00    -0.003 C 
ATOM     23  C   UNL     1      33.408 -19.963 -20.613  0.00  0.00    -0.000 C 
ATOM     24  C   UNL     1      35.372 -21.315 -20.215  0.00  0.00    -0.000 C 
ATOM     25  C   UNL     1      32.687 -20.745 -19.710  0.00  0.00    +0.036 C 
ATOM     26  C   UNL     1      34.651 -22.097 -19.313  0.00  0.00    +0.036 C 
ATOM     27  C   UNL     1      33.309 -21.811 -19.061  0.00  0.00    +0.134 C 
BRANCH  27  28
ATOM     28  O   UNL     1      32.605 -22.576 -18.181  0.00  0.00    -0.506 OA
ATOM     29  H   UNL     1      33.052 -23.181 -17.623  0.00  0.00    +0.292 HD
ENDBRANCH  27  28
ENDBRANCH  21  22
BRANCH  21  31
ATOM     30  O   UNL     1      37.151 -18.926 -20.073  0.00  0.00    -0.249 OA
ATOM     31  C   UNL     1      36.856 -18.912 -21.261  0.00  0.00    +0.326 C 
BRANCH  31  32
ATOM     32  O   UNL     1      37.717 -18.487 -22.222  0.00  0.00    -0.480 OA
ATOM     33  H   UNL     1      38.641 -18.582 -22.099  0.00  0.00    +0.295 HD
ENDBRANCH  31  32
ENDBRANCH  21  31
ENDBRANCH   3  21
TORSDOF 11
ENDMDL
MODEL 8
REMARK VINA RESULT:      -7.6      2.594      6.861
REMARK  Name = 131704211
REMARK  11 active torsions:
REMARK  status: ('A' for Active; 'I' for Inactive)
REMARK    1  A    between atoms: N_2  and  C_5
REMARK    2  A    between atoms: C_3  and  C_21
REMARK    3  A    between atoms: C_5  and  C_8
REMARK    4  A    between atoms: C_5  and  O_17
REMARK    5  A    between atoms: C_5  and  C_20
REMARK    6  A    between atoms: CA_11  and  C_14
REMARK    7  A    between atoms: C_14  and  O_15
REMARK    8  A    between atoms: C_21  and  C_22
REMARK    9  A    between atoms: C_21  and  C_31
REMARK   10  A    between atoms: C_27  and  O_28
REMARK   11  A    between atoms: C_31  and  O_32
REMARK                            x       y       z     vdW  Elec       q    Type
REMARK                         _______ _______ _______ _____ _____    ______ ____
ROOT
ATOM      1  O   UNL     1      36.471 -21.219 -17.467  0.00  0.00    -0.274 OA
ATOM      2  N   UNL     1      34.970 -22.924 -16.958  0.00  0.00    -0.276 N 
ATOM      3  C   UNL     1      35.659 -22.074 -17.811  0.00  0.00    +0.239 C 
ATOM      4  H   UNL     1      34.344 -23.567 -17.366  0.00  0.00    +0.152 HD
ENDROOT
BRANCH   2   5
ATOM      5  C   UNL     1      35.098 -22.944 -15.506  0.00  0.00    +0.259 C 
BRANCH   5   8
ATOM      6  O   UNL     1      36.674 -24.725 -15.505  0.00  0.00    -0.326 OA
ATOM      7  N   UNL     1      35.364 -24.194 -13.455  0.00  0.00    -0.233 NA
ATOM      8  C   UNL     1      35.428 -24.312 -14.921  0.00  0.00    +0.271 C 
ATOM      9  C   UNL     1      37.100 -25.964 -14.940  0.00  0.00    +0.173 C 
ATOM     10  C   UNL     1      37.222 -25.830 -13.452  0.00  0.00    +0.031 C 
ATOM     11  CA  UNL     1      36.227 -24.915 -12.826  0.00  0.00    +0.152 C 
ATOM     12  C   UNL     1      38.164 -26.462 -12.740  0.00  0.00    -0.000 C 
BRANCH  11  14
ATOM     13  OXT UNL     1      35.325 -25.316 -10.677  0.00  0.00    -0.243 OA
ATOM     14  C   UNL     1      36.188 -24.791 -11.346  0.00  0.00    +0.355 C 
BRANCH  14  15
ATOM     15  O   UNL     1      37.223 -24.045 -10.943  0.00  0.00    -0.476 OA
ATOM     16  H   UNL     1      37.997 -23.994 -11.468  0.00  0.00    +0.295 HD
ENDBRANCH  14  15
ENDBRANCH  11  14
ENDBRANCH   5   8
BRANCH   5  17
ATOM     17  O   UNL     1      33.933 -22.355 -14.913  0.00  0.00    -0.329 OA
ATOM     18  C   UNL     1      32.697 -22.969 -15.252  0.00  0.00    +0.177 C 
ENDBRANCH   5  17
BRANCH   5  20
ATOM     19  O   UNL     1      37.296 -22.232 -14.748  0.00  0.00    -0.284 OA
ATOM     20  C   UNL     1      36.168 -21.935 -15.131  0.00  0.00    +0.258 C 
ENDBRANCH   5  20
ENDBRANCH   2   5
BRANCH   3  21
ATOM     21  C   UNL     1      35.296 -22.308 -19.278  0.00  0.00    +0.197 C 
BRANCH  21  22
ATOM     22  C   UNL     1      35.217 -20.981 -20.017  0.00  0.00    -0.003 C 
ATOM     23  C   UNL     1      33.974 -20.443 -20.354  0.00  0.00    -0.000 C 
ATOM     24  C   UNL     1      36.387 -20.300 -20.354  0.00  0.00    -0.000 C 
ATOM     25  C   UNL     1      33.902 -19.226 -21.030  0.00  0.00    +0.036 C 
ATOM     26  C   UNL     1      36.314 -19.082 -21.031  0.00  0.00    +0.036 C 
ATOM     27  C   UNL     1      35.072 -18.546 -21.368  0.00  0.00    +0.134 C 
BRANCH  27  28
ATOM     28  O   UNL     1      35.001 -17.357 -22.027  0.00  0.00    -0.506 OA
ATOM     29  H   UNL     1      35.711 -16.749 -21.975  0.00  0.00    +0.292 HD
ENDBRANCH  27  28
ENDBRANCH  21  22
BRANCH  21  31
ATOM     30  O   UNL     1      33.995 -24.249 -20.001  0.00  0.00    -0.249 OA
ATOM     31  C   UNL     1      34.039 -23.146 -19.472  0.00  0.00    +0.326 C 
BRANCH  31  32
ATOM     32  O   UNL     1      32.939 -22.544 -18.946  0.00  0.00    -0.480 OA
ATOM     33  H   UNL     1      32.148 -22.496 -19.445  0.00  0.00    +0.295 HD
ENDBRANCH  31  32
ENDBRANCH  21  31
ENDBRANCH   3  21
TORSDOF 11
ENDMDL
MODEL 9
REMARK VINA RESULT:      -7.5     10.591     14.140
REMARK  Name = 131704211
REMARK  11 active torsions:
REMARK  status: ('A' for Active; 'I' for Inactive)
REMARK    1  A    between atoms: N_2  and  C_5
REMARK    2  A    between atoms: C_3  and  C_21
REMARK    3  A    between atoms: C_5  and  C_8
REMARK    4  A    between atoms: C_5  and  O_17
REMARK    5  A    between atoms: C_5  and  C_20
REMARK    6  A    between atoms: CA_11  and  C_14
REMARK    7  A    between atoms: C_14  and  O_15
REMARK    8  A    between atoms: C_21  and  C_22
REMARK    9  A    between atoms: C_21  and  C_31
REMARK   10  A    between atoms: C_27  and  O_28
REMARK   11  A    between atoms: C_31  and  O_32
REMARK                            x       y       z     vdW  Elec       q    Type
REMARK                         _______ _______ _______ _____ _____    ______ ____
ROOT
ATOM      1  O   UNL     1      32.451 -11.637 -23.271  0.00  0.00    -0.274 OA
ATOM      2  N   UNL     1      34.262 -13.063 -23.595  0.00  0.00    -0.276 N 
ATOM      3  C   UNL     1      33.609 -11.839 -23.627  0.00  0.00    +0.239 C 
ATOM      4  H   UNL     1      35.195 -13.087 -23.911  0.00  0.00    +0.152 HD
ENDROOT
BRANCH   2   5
ATOM      5  C   UNL     1      33.678 -14.317 -23.133  0.00  0.00    +0.259 C 
BRANCH   5   8
ATOM      6  O   UNL     1      34.496 -15.863 -21.523  0.00  0.00    -0.326 OA
ATOM      7  N   UNL     1      34.532 -16.425 -23.948  0.00  0.00    -0.233 NA
ATOM      8  C   UNL     1      34.690 -15.427 -22.878  0.00  0.00    +0.271 C 
ATOM      9  C   UNL     1      35.351 -16.968 -21.231  0.00  0.00    +0.173 C 
ATOM     10  C   UNL     1      35.089 -18.084 -22.197  0.00  0.00    +0.031 C 
ATOM     11  CA  UNL     1      34.720 -17.643 -23.571  0.00  0.00    +0.152 C 
ATOM     12  C   UNL     1      35.157 -19.376 -21.851  0.00  0.00    -0.000 C 
BRANCH  11  14
ATOM     13  OXT UNL     1      34.996 -19.783 -24.538  0.00  0.00    -0.243 OA
ATOM     14  C   UNL     1      34.544 -18.663 -24.637  0.00  0.00    +0.355 C 
BRANCH  14  15
ATOM     15  O   UNL     1      33.836 -18.131 -25.638  0.00  0.00    -0.476 OA
ATOM     16  H   UNL     1      34.130 -17.345 -26.055  0.00  0.00    +0.295 HD
ENDBRANCH  14  15
ENDBRANCH  11  14
ENDBRANCH   5   8
BRANCH   5  17
ATOM     17  O   UNL     1      32.631 -14.717 -24.027  0.00  0.00    -0.329 OA
ATOM     18  C   UNL     1      32.898 -14.521 -25.409  0.00  0.00    +0.177 C 
ENDBRANCH   5  17
BRANCH   5  20
ATOM     19  O   UNL     1      31.893 -14.625 -21.511  0.00  0.00    -0.284 OA
ATOM     20  C   UNL     1      32.895 -14.013 -21.869  0.00  0.00    +0.258 C 
ENDBRANCH   5  20
ENDBRANCH   2   5
BRANCH   3  21
ATOM     21  C   UNL     1      34.502 -10.721 -24.168  0.00  0.00    +0.197 C 
BRANCH  21  22
ATOM     22  C   UNL     1      33.880  -9.365 -23.871  0.00  0.00    -0.003 C 
ATOM     23  C   UNL     1      34.695  -8.243 -23.714  0.00  0.00    -0.000 C 
ATOM     24  C   UNL     1      32.495  -9.243 -23.759  0.00  0.00    -0.000 C 
ATOM     25  C   UNL     1      34.125  -7.000 -23.442  0.00  0.00    +0.036 C 
ATOM     26  C   UNL     1      31.924  -7.999 -23.487  0.00  0.00    +0.036 C 
ATOM     27  C   UNL     1      32.740  -6.878 -23.329  0.00  0.00    +0.134 C 
BRANCH  27  28
ATOM     28  O   UNL     1      32.183  -5.664 -23.066  0.00  0.00    -0.506 OA
ATOM     29  H   UNL     1      32.412  -4.920 -23.587  0.00  0.00    +0.292 HD
ENDBRANCH  27  28
ENDBRANCH  21  22
BRANCH  21  31
ATOM     30  O   UNL     1      35.825 -10.380 -26.196  0.00  0.00    -0.249 OA
ATOM     31  C   UNL     1      34.854 -10.878 -25.641  0.00  0.00    +0.326 C 
BRANCH  31  32
ATOM     32  O   UNL     1      33.975 -11.686 -26.292  0.00  0.00    -0.480 OA
ATOM     33  H   UNL     1      33.072 -11.441 -26.355  0.00  0.00    +0.295 HD
ENDBRANCH  31  32
ENDBRANCH  21  31
ENDBRANCH   3  21
TORSDOF 11
ENDMDL
