MODEL 1
REMARK VINA RESULT:      -8.4      0.000      0.000
REMARK  Name = 2405215
REMARK  2 active torsions:
REMARK  status: ('A' for Active; 'I' for Inactive)
REMARK    1  A    between atoms: N_2  and  N_15
REMARK    2  A    between atoms: C_5  and  C_8
REMARK                            x       y       z     vdW  Elec       q    Type
REMARK                         _______ _______ _______ _____ _____    ______ ____
ROOT
ATOM      1  S   UNL     1      34.755 -16.403 -24.672  0.00  0.00    -0.010 S 
ATOM      2  N   UNL     1      34.974 -18.416 -22.806  0.00  0.00    -0.225 N 
ATOM      3  N   UNL     1      35.094 -17.249 -20.908  0.00  0.00    -0.152 NA
ATOM      4  N   UNL     1      34.997 -16.385 -21.968  0.00  0.00    -0.253 N 
ATOM      5  C   UNL     1      35.082 -18.439 -21.446  0.00  0.00    +0.180 A 
ATOM      6  C   UNL     1      34.910 -17.093 -23.171  0.00  0.00    +0.193 A 
ATOM      7  H   UNL     1      34.989 -15.404 -21.892  0.00  0.00    +0.191 HD
ENDROOT
BRANCH   5   8
ATOM      8  C   UNL     1      35.162 -19.678 -20.665  0.00  0.00    +0.033 C 
ATOM      9  C   UNL     1      34.010 -20.365 -20.282  0.00  0.00    -0.019 C 
ATOM     10  C   UNL     1      36.418 -20.169 -20.304  0.00  0.00    +0.003 C 
ATOM     11  C   UNL     1      34.113 -21.541 -19.539  0.00  0.00    -0.004 C 
ATOM     12  C   UNL     1      32.653 -19.864 -20.653  0.00  0.00    +0.031 C 
ATOM     13  C   UNL     1      36.521 -21.344 -19.561  0.00  0.00    +0.000 C 
ATOM     14  C   UNL     1      35.369 -22.030 -19.178  0.00  0.00    -0.000 C 
ENDBRANCH   5   8
BRANCH   2  15
ATOM     15  N   UNL     1      34.821 -19.490 -23.643  0.00  0.00    -0.295 N 
ATOM     16  H   UNL     1      34.673 -20.389 -23.270  0.00  0.00    +0.163 HD
ATOM     17  H   UNL     1      34.861 -19.362 -24.619  0.00  0.00    +0.163 HD
ENDBRANCH   2  15
TORSDOF 2
ENDMDL
MODEL 2
REMARK VINA RESULT:      -8.0      0.701      1.868
REMARK  Name = 2405215
REMARK  2 active torsions:
REMARK  status: ('A' for Active; 'I' for Inactive)
REMARK    1  A    between atoms: N_2  and  N_15
REMARK    2  A    between atoms: C_5  and  C_8
REMARK                            x       y       z     vdW  Elec       q    Type
REMARK                         _______ _______ _______ _____ _____    ______ ____
ROOT
ATOM      1  S   UNL     1      34.632 -16.431 -25.046  0.00  0.00    -0.010 S 
ATOM      2  N   UNL     1      34.653 -18.373 -23.093  0.00  0.00    -0.225 N 
ATOM      3  N   UNL     1      34.284 -17.158 -21.258  0.00  0.00    -0.152 NA
ATOM      4  N   UNL     1      34.324 -16.331 -22.350  0.00  0.00    -0.253 N 
ATOM      5  C   UNL     1      34.488 -18.355 -21.739  0.00  0.00    +0.180 A 
ATOM      6  C   UNL     1      34.545 -17.070 -23.516  0.00  0.00    +0.193 A 
ATOM      7  H   UNL     1      34.213 -15.354 -22.317  0.00  0.00    +0.191 HD
ENDROOT
BRANCH   5   8
ATOM      8  C   UNL     1      34.521 -19.564 -20.907  0.00  0.00    +0.033 C 
ATOM      9  C   UNL     1      35.727 -20.082 -20.435  0.00  0.00    -0.019 C 
ATOM     10  C   UNL     1      33.318 -20.196 -20.589  0.00  0.00    +0.003 C 
ATOM     11  C   UNL     1      35.730 -21.233 -19.647  0.00  0.00    -0.004 C 
ATOM     12  C   UNL     1      37.029 -19.427 -20.761  0.00  0.00    +0.031 C 
ATOM     13  C   UNL     1      33.321 -21.345 -19.801  0.00  0.00    +0.000 C 
ATOM     14  C   UNL     1      34.528 -21.865 -19.330  0.00  0.00    -0.000 C 
ENDBRANCH   5   8
BRANCH   2  15
ATOM     15  N   UNL     1      34.769 -19.474 -23.899  0.00  0.00    -0.295 N 
ATOM     16  H   UNL     1      33.962 -19.920 -24.244  0.00  0.00    +0.163 HD
ATOM     17  H   UNL     1      35.661 -19.819 -24.135  0.00  0.00    +0.163 HD
ENDBRANCH   2  15
TORSDOF 2
ENDMDL
MODEL 3
REMARK VINA RESULT:      -8.0      2.948      4.907
REMARK  Name = 2405215
REMARK  2 active torsions:
REMARK  status: ('A' for Active; 'I' for Inactive)
REMARK    1  A    between atoms: N_2  and  N_15
REMARK    2  A    between atoms: C_5  and  C_8
REMARK                            x       y       z     vdW  Elec       q    Type
REMARK                         _______ _______ _______ _____ _____    ______ ____
ROOT
ATOM      1  S   UNL     1      34.201 -22.255 -19.137  0.00  0.00    -0.010 S 
ATOM      2  N   UNL     1      34.238 -19.899 -20.562  0.00  0.00    -0.225 N 
ATOM      3  N   UNL     1      36.410 -19.392 -20.522  0.00  0.00    -0.152 NA
ATOM      4  N   UNL     1      36.202 -20.555 -19.828  0.00  0.00    -0.253 N 
ATOM      5  C   UNL     1      35.224 -19.034 -20.935  0.00  0.00    +0.180 A 
ATOM      6  C   UNL     1      34.847 -20.901 -19.846  0.00  0.00    +0.193 A 
ATOM      7  H   UNL     1      36.908 -21.074 -19.379  0.00  0.00    +0.191 HD
ENDROOT
BRANCH   5   8
ATOM      8  C   UNL     1      34.979 -17.828 -21.735  0.00  0.00    +0.033 C 
ATOM      9  C   UNL     1      34.882 -17.893 -23.125  0.00  0.00    -0.019 C 
ATOM     10  C   UNL     1      34.841 -16.602 -21.083  0.00  0.00    +0.003 C 
ATOM     11  C   UNL     1      34.649 -16.732 -23.863  0.00  0.00    -0.004 C 
ATOM     12  C   UNL     1      35.026 -19.191 -23.850  0.00  0.00    +0.031 C 
ATOM     13  C   UNL     1      34.609 -15.442 -21.820  0.00  0.00    +0.000 C 
ATOM     14  C   UNL     1      34.513 -15.506 -23.210  0.00  0.00    -0.000 C 
ENDBRANCH   5   8
BRANCH   2  15
ATOM     15  N   UNL     1      32.919 -19.862 -20.933  0.00  0.00    -0.295 N 
ATOM     16  H   UNL     1      32.416 -20.701 -21.049  0.00  0.00    +0.163 HD
ATOM     17  H   UNL     1      32.475 -18.997 -21.084  0.00  0.00    +0.163 HD
ENDBRANCH   2  15
TORSDOF 2
ENDMDL
MODEL 4
REMARK VINA RESULT:      -7.7     10.379     12.495
REMARK  Name = 2405215
REMARK  2 active torsions:
REMARK  status: ('A' for Active; 'I' for Inactive)
REMARK    1  A    between atoms: N_2  and  N_15
REMARK    2  A    between atoms: C_5  and  C_8
REMARK                            x       y       z     vdW  Elec       q    Type
REMARK                         _______ _______ _______ _____ _____    ______ ____
ROOT
ATOM      1  S   UNL     1      31.256 -10.789 -19.476  0.00  0.00    -0.010 S 
ATOM      2  N   UNL     1      32.068  -9.150 -21.535  0.00  0.00    -0.225 N 
ATOM      3  N   UNL     1      33.048  -7.487 -20.416  0.00  0.00    -0.152 NA
ATOM      4  N   UNL     1      32.559  -8.407 -19.526  0.00  0.00    -0.253 N 
ATOM      5  C   UNL     1      32.733  -7.961 -21.592  0.00  0.00    +0.180 A 
ATOM      6  C   UNL     1      31.946  -9.467 -20.203  0.00  0.00    +0.193 A 
ATOM      7  H   UNL     1      32.628  -8.332 -18.547  0.00  0.00    +0.191 HD
ENDROOT
BRANCH   5   8
ATOM      8  C   UNL     1      33.074  -7.287 -22.850  0.00  0.00    +0.033 C 
ATOM      9  C   UNL     1      32.175  -6.419 -23.471  0.00  0.00    -0.019 C 
ATOM     10  C   UNL     1      34.323  -7.526 -23.425  0.00  0.00    +0.003 C 
ATOM     11  C   UNL     1      32.525  -5.792 -24.667  0.00  0.00    -0.004 C 
ATOM     12  C   UNL     1      30.832  -6.145 -22.878  0.00  0.00    +0.031 C 
ATOM     13  C   UNL     1      34.672  -6.900 -24.621  0.00  0.00    +0.000 C 
ATOM     14  C   UNL     1      33.772  -6.033 -25.242  0.00  0.00    -0.000 C 
ENDBRANCH   5   8
BRANCH   2  15
ATOM     15  N   UNL     1      31.705  -9.948 -22.588  0.00  0.00    -0.295 N 
ATOM     16  H   UNL     1      31.177  -9.575 -23.331  0.00  0.00    +0.163 HD
ATOM     17  H   UNL     1      31.973 -10.896 -22.601  0.00  0.00    +0.163 HD
ENDBRANCH   2  15
TORSDOF 2
ENDMDL
MODEL 5
REMARK VINA RESULT:      -7.6     10.396     12.778
REMARK  Name = 2405215
REMARK  2 active torsions:
REMARK  status: ('A' for Active; 'I' for Inactive)
REMARK    1  A    between atoms: N_2  and  N_15
REMARK    2  A    between atoms: C_5  and  C_8
REMARK                            x       y       z     vdW  Elec       q    Type
REMARK                         _______ _______ _______ _____ _____    ______ ____
ROOT
ATOM      1  S   UNL     1      31.585 -10.966 -19.524  0.00  0.00    -0.010 S 
ATOM      2  N   UNL     1      31.793  -9.071 -21.511  0.00  0.00    -0.225 N 
ATOM      3  N   UNL     1      32.737  -7.376 -20.409  0.00  0.00    -0.152 NA
ATOM      4  N   UNL     1      32.540  -8.424 -19.549  0.00  0.00    -0.253 N 
ATOM      5  C   UNL     1      32.278  -7.797 -21.557  0.00  0.00    +0.180 A 
ATOM      6  C   UNL     1      31.957  -9.505 -20.218  0.00  0.00    +0.193 A 
ATOM      7  H   UNL     1      32.775  -8.416 -18.593  0.00  0.00    +0.191 HD
ENDROOT
BRANCH   5   8
ATOM      8  C   UNL     1      32.296  -6.985 -22.780  0.00  0.00    +0.033 C 
ATOM      9  C   UNL     1      33.412  -6.968 -23.617  0.00  0.00    -0.019 C 
ATOM     10  C   UNL     1      31.173  -6.222 -23.099  0.00  0.00    +0.003 C 
ATOM     11  C   UNL     1      33.404  -6.187 -24.773  0.00  0.00    -0.004 C 
ATOM     12  C   UNL     1      34.628  -7.774 -23.300  0.00  0.00    +0.031 C 
ATOM     13  C   UNL     1      31.165  -5.441 -24.254  0.00  0.00    +0.000 C 
ATOM     14  C   UNL     1      32.281  -5.423 -25.092  0.00  0.00    -0.000 C 
ENDBRANCH   5   8
BRANCH   2  15
ATOM     15  N   UNL     1      31.352  -9.828 -22.565  0.00  0.00    -0.295 N 
ATOM     16  H   UNL     1      31.968 -10.060 -23.297  0.00  0.00    +0.163 HD
ATOM     17  H   UNL     1      30.419 -10.141 -22.589  0.00  0.00    +0.163 HD
ENDBRANCH   2  15
TORSDOF 2
ENDMDL
MODEL 6
REMARK VINA RESULT:      -7.0      5.154      6.327
REMARK  Name = 2405215
REMARK  2 active torsions:
REMARK  status: ('A' for Active; 'I' for Inactive)
REMARK    1  A    between atoms: N_2  and  N_15
REMARK    2  A    between atoms: C_5  and  C_8
REMARK                            x       y       z     vdW  Elec       q    Type
REMARK                         _______ _______ _______ _____ _____    ______ ____
ROOT
ATOM      1  S   UNL     1      32.276  -9.860 -22.894  0.00  0.00    -0.010 S 
ATOM      2  N   UNL     1      33.300 -12.366 -23.402  0.00  0.00    -0.225 N 
ATOM      3  N   UNL     1      31.910 -13.657 -22.228  0.00  0.00    -0.152 NA
ATOM      4  N   UNL     1      31.551 -12.344 -22.072  0.00  0.00    -0.253 N 
ATOM      5  C   UNL     1      32.951 -13.627 -23.016  0.00  0.00    +0.180 A 
ATOM      6  C   UNL     1      32.402 -11.513 -22.806  0.00  0.00    +0.193 A 
ATOM      7  H   UNL     1      30.799 -12.030 -21.520  0.00  0.00    +0.191 HD
ENDROOT
BRANCH   5   8
ATOM      8  C   UNL     1      33.664 -14.831 -23.456  0.00  0.00    +0.033 C 
ATOM      9  C   UNL     1      34.476 -15.550 -22.579  0.00  0.00    -0.019 C 
ATOM     10  C   UNL     1      33.519 -15.256 -24.778  0.00  0.00    +0.003 C 
ATOM     11  C   UNL     1      35.144 -16.692 -23.022  0.00  0.00    -0.004 C 
ATOM     12  C   UNL     1      34.650 -15.119 -21.159  0.00  0.00    +0.031 C 
ATOM     13  C   UNL     1      34.187 -16.396 -25.221  0.00  0.00    +0.000 C 
ATOM     14  C   UNL     1      34.999 -17.115 -24.344  0.00  0.00    -0.000 C 
ENDBRANCH   5   8
BRANCH   2  15
ATOM     15  N   UNL     1      34.266 -12.014 -24.307  0.00  0.00    -0.295 N 
ATOM     16  H   UNL     1      34.864 -12.701 -24.683  0.00  0.00    +0.163 HD
ATOM     17  H   UNL     1      34.363 -11.074 -24.582  0.00  0.00    +0.163 HD
ENDBRANCH   2  15
TORSDOF 2
ENDMDL
MODEL 7
REMARK VINA RESULT:      -6.9      5.462      6.719
REMARK  Name = 2405215
REMARK  2 active torsions:
REMARK  status: ('A' for Active; 'I' for Inactive)
REMARK    1  A    between atoms: N_2  and  N_15
REMARK    2  A    between atoms: C_5  and  C_8
REMARK                            x       y       z     vdW  Elec       q    Type
REMARK                         _______ _______ _______ _____ _____    ______ ____
ROOT
ATOM      1  S   UNL     1      32.625  -9.408 -23.220  0.00  0.00    -0.010 S 
ATOM      2  N   UNL     1      33.499 -11.987 -23.637  0.00  0.00    -0.225 N 
ATOM      3  N   UNL     1      31.981 -13.157 -22.495  0.00  0.00    -0.152 NA
ATOM      4  N   UNL     1      31.705 -11.820 -22.380  0.00  0.00    -0.253 N 
ATOM      5  C   UNL     1      33.052 -13.213 -23.241  0.00  0.00    +0.180 A 
ATOM      6  C   UNL     1      32.637 -11.063 -23.095  0.00  0.00    +0.193 A 
ATOM      7  H   UNL     1      30.955 -11.446 -21.864  0.00  0.00    +0.191 HD
ENDROOT
BRANCH   5   8
ATOM      8  C   UNL     1      33.700 -14.471 -23.629  0.00  0.00    +0.033 C 
ATOM      9  C   UNL     1      33.497 -15.028 -24.892  0.00  0.00    -0.019 C 
ATOM     10  C   UNL     1      34.532 -15.112 -22.710  0.00  0.00    +0.003 C 
ATOM     11  C   UNL     1      34.125 -16.225 -25.236  0.00  0.00    -0.004 C 
ATOM     12  C   UNL     1      32.611 -14.364 -25.895  0.00  0.00    +0.031 C 
ATOM     13  C   UNL     1      35.160 -16.309 -23.054  0.00  0.00    +0.000 C 
ATOM     14  C   UNL     1      34.956 -16.866 -24.316  0.00  0.00    -0.000 C 
ENDBRANCH   5   8
BRANCH   2  15
ATOM     15  N   UNL     1      34.521 -11.719 -24.510  0.00  0.00    -0.295 N 
ATOM     16  H   UNL     1      34.734 -12.357 -25.230  0.00  0.00    +0.163 HD
ATOM     17  H   UNL     1      35.042 -10.889 -24.417  0.00  0.00    +0.163 HD
ENDBRANCH   2  15
TORSDOF 2
ENDMDL
MODEL 8
REMARK VINA RESULT:      -6.8      8.681     11.446
REMARK  Name = 2405215
REMARK  2 active torsions:
REMARK  status: ('A' for Active; 'I' for Inactive)
REMARK    1  A    between atoms: N_2  and  N_15
REMARK    2  A    between atoms: C_5  and  C_8
REMARK                            x       y       z     vdW  Elec       q    Type
REMARK                         _______ _______ _______ _____ _____    ______ ____
ROOT
ATOM      1  S   UNL     1      33.364 -13.289 -23.266  0.00  0.00    -0.010 S 
ATOM      2  N   UNL     1      32.759 -10.604 -23.167  0.00  0.00    -0.225 N 
ATOM      3  N   UNL     1      30.865 -10.620 -21.989  0.00  0.00    -0.152 NA
ATOM      4  N   UNL     1      31.309 -11.906 -22.154  0.00  0.00    -0.253 N 
ATOM      5  C   UNL     1      31.747  -9.882 -22.608  0.00  0.00    +0.180 A 
ATOM      6  C   UNL     1      32.502 -11.923 -22.883  0.00  0.00    +0.193 A 
ATOM      7  H   UNL     1      30.851 -12.706 -21.808  0.00  0.00    +0.191 HD
ENDROOT
BRANCH   5   8
ATOM      8  C   UNL     1      31.665  -8.418 -22.679  0.00  0.00    +0.033 C 
ATOM      9  C   UNL     1      32.069  -7.620 -21.608  0.00  0.00    -0.019 C 
ATOM     10  C   UNL     1      31.174  -7.826 -23.843  0.00  0.00    +0.003 C 
ATOM     11  C   UNL     1      31.981  -6.231 -21.701  0.00  0.00    -0.004 C 
ATOM     12  C   UNL     1      32.597  -8.227 -20.349  0.00  0.00    +0.031 C 
ATOM     13  C   UNL     1      31.086  -6.438 -23.936  0.00  0.00    +0.000 C 
ATOM     14  C   UNL     1      31.489  -5.640 -22.865  0.00  0.00    -0.000 C 
ENDBRANCH   5   8
BRANCH   2  15
ATOM     15  N   UNL     1      33.885 -10.117 -23.779  0.00  0.00    -0.295 N 
ATOM     16  H   UNL     1      34.771 -10.468 -23.531  0.00  0.00    +0.163 HD
ATOM     17  H   UNL     1      33.807  -9.416 -24.466  0.00  0.00    +0.163 HD
ENDBRANCH   2  15
TORSDOF 2
ENDMDL
MODEL 9
REMARK VINA RESULT:      -6.8      3.207      4.199
REMARK  Name = 2405215
REMARK  2 active torsions:
REMARK  status: ('A' for Active; 'I' for Inactive)
REMARK    1  A    between atoms: N_2  and  N_15
REMARK    2  A    between atoms: C_5  and  C_8
REMARK                            x       y       z     vdW  Elec       q    Type
REMARK                         _______ _______ _______ _____ _____    ______ ____
ROOT
ATOM      1  S   UNL     1      31.990 -12.363 -22.126  0.00  0.00    -0.010 S 
ATOM      2  N   UNL     1      33.084 -14.891 -22.128  0.00  0.00    -0.225 N 
ATOM      3  N   UNL     1      34.848 -14.608 -23.464  0.00  0.00    -0.152 NA
ATOM      4  N   UNL     1      34.161 -13.426 -23.362  0.00  0.00    -0.253 N 
ATOM      5  C   UNL     1      34.176 -15.449 -22.725  0.00  0.00    +0.180 A 
ATOM      6  C   UNL     1      33.054 -13.574 -22.521  0.00  0.00    +0.193 A 
ATOM      7  H   UNL     1      34.413 -12.591 -23.818  0.00  0.00    +0.191 HD
ENDROOT
BRANCH   5   8
ATOM      8  C   UNL     1      34.566 -16.851 -22.541  0.00  0.00    +0.033 C 
ATOM      9  C   UNL     1      34.636 -17.729 -23.623  0.00  0.00    -0.019 C 
ATOM     10  C   UNL     1      34.872 -17.304 -21.256  0.00  0.00    +0.003 C 
ATOM     11  C   UNL     1      35.009 -19.057 -23.421  0.00  0.00    -0.004 C 
ATOM     12  C   UNL     1      34.314 -17.272 -25.009  0.00  0.00    +0.031 C 
ATOM     13  C   UNL     1      35.245 -18.632 -21.055  0.00  0.00    +0.000 C 
ATOM     14  C   UNL     1      35.313 -19.509 -22.137  0.00  0.00    -0.000 C 
ENDBRANCH   5   8
BRANCH   2  15
ATOM     15  N   UNL     1      32.251 -15.476 -21.211  0.00  0.00    -0.295 N 
ATOM     16  H   UNL     1      32.627 -15.988 -20.459  0.00  0.00    +0.163 HD
ATOM     17  H   UNL     1      31.275 -15.384 -21.305  0.00  0.00    +0.163 HD
ENDBRANCH   2  15
TORSDOF 2
ENDMDL
