MODEL 1
REMARK VINA RESULT:      -9.8      0.000      0.000
REMARK  Name = 160615
REMARK  2 active torsions:
REMARK  status: ('A' for Active; 'I' for Inactive)
REMARK    1  A    between atoms: C_9  and  O_21
REMARK    2  A    between atoms: C_19  and  O_23
REMARK                            x       y       z     vdW  Elec       q    Type
REMARK                         _______ _______ _______ _____ _____    ______ ____
ROOT
ATOM      1  O   UNL     1      40.017 -26.103 -13.827  0.00  0.00    -0.288 OA
ATOM      2  C   UNL     1      33.056 -23.627 -15.791  0.00  0.00    +0.002 C 
ATOM      3  C   UNL     1      31.948 -23.758 -14.729  0.00  0.00    +0.025 C 
ATOM      4  C   UNL     1      34.428 -23.323 -15.179  0.00  0.00    +0.001 C 
ATOM      5  C   UNL     1      34.816 -24.484 -14.211  0.00  0.00    +0.004 C 
ATOM      6  C   UNL     1      36.241 -24.289 -13.560  0.00  0.00    +0.019 C 
ATOM      7  C   UNL     1      32.296 -24.947 -13.825  0.00  0.00    +0.002 C 
ATOM      8  C   UNL     1      33.687 -24.782 -13.185  0.00  0.00    +0.000 C 
ATOM      9  C   UNL     1      30.739 -23.985 -15.655  0.00  0.00    +0.110 C 
ATOM     10  C   UNL     1      32.463 -22.654 -16.807  0.00  0.00    +0.003 C 
ATOM     11  C   UNL     1      35.500 -23.163 -16.262  0.00  0.00    +0.004 C 
ATOM     12  C   UNL     1      30.960 -22.987 -16.808  0.00  0.00    +0.029 C 
ATOM     13  C   UNL     1      37.274 -23.969 -14.655  0.00  0.00    -0.008 C 
ATOM     14  C   UNL     1      36.867 -22.895 -15.644  0.00  0.00    +0.025 C 
ATOM     15  C   UNL     1      31.732 -22.493 -13.860  0.00  0.00    +0.002 C 
ATOM     16  C   UNL     1      36.621 -25.610 -12.832  0.00  0.00    +0.012 C 
ATOM     17  C   UNL     1      36.252 -23.133 -12.533  0.00  0.00    +0.004 C 
ATOM     18  C   UNL     1      38.092 -25.700 -12.473  0.00  0.00    +0.073 C 
ATOM     19  C   UNL     1      38.481 -24.563 -14.745  0.00  0.00    +0.160 C 
ATOM     20  C   UNL     1      38.938 -25.525 -13.705  0.00  0.00    +0.206 C 
ENDROOT
BRANCH   9  21
ATOM     21  O   UNL     1      29.499 -23.771 -15.007  0.00  0.00    -0.384 OA
ATOM     22  H   UNL     1      29.441 -22.846 -14.719  0.00  0.00    +0.210 HD
ENDBRANCH   9  21
BRANCH  19  23
ATOM     23  O   UNL     1      39.368 -24.269 -15.761  0.00  0.00    -0.503 OA
ATOM     24  H   UNL     1      39.903 -24.946 -16.127  0.00  0.00    +0.292 HD
ENDBRANCH  19  23
TORSDOF 2
ENDMDL
MODEL 2
REMARK VINA RESULT:      -9.6      3.759      6.443
REMARK  Name = 160615
REMARK  2 active torsions:
REMARK  status: ('A' for Active; 'I' for Inactive)
REMARK    1  A    between atoms: C_9  and  O_21
REMARK    2  A    between atoms: C_19  and  O_23
REMARK                            x       y       z     vdW  Elec       q    Type
REMARK                         _______ _______ _______ _____ _____    ______ ____
ROOT
ATOM      1  O   UNL     1      33.832 -18.866 -21.548  0.00  0.00    -0.288 OA
ATOM      2  C   UNL     1      35.828 -22.825 -15.320  0.00  0.00    +0.002 C 
ATOM      3  C   UNL     1      34.805 -23.846 -14.789  0.00  0.00    +0.025 C 
ATOM      4  C   UNL     1      35.812 -22.712 -16.849  0.00  0.00    +0.001 C 
ATOM      5  C   UNL     1      34.390 -22.258 -17.304  0.00  0.00    +0.004 C 
ATOM      6  C   UNL     1      34.280 -22.066 -18.867  0.00  0.00    +0.019 C 
ATOM      7  C   UNL     1      33.403 -23.356 -15.175  0.00  0.00    +0.002 C 
ATOM      8  C   UNL     1      33.275 -23.153 -16.697  0.00  0.00    +0.000 C 
ATOM      9  C   UNL     1      35.124 -23.762 -13.285  0.00  0.00    +0.110 C 
ATOM     10  C   UNL     1      37.125 -23.223 -14.618  0.00  0.00    +0.003 C 
ATOM     11  C   UNL     1      36.865 -21.717 -17.347  0.00  0.00    +0.004 C 
ATOM     12  C   UNL     1      36.664 -23.712 -13.233  0.00  0.00    +0.029 C 
ATOM     13  C   UNL     1      35.445 -21.193 -19.368  0.00  0.00    -0.008 C 
ATOM     14  C   UNL     1      36.819 -21.586 -18.864  0.00  0.00    +0.025 C 
ATOM     15  C   UNL     1      35.006 -25.294 -15.304  0.00  0.00    +0.002 C 
ATOM     16  C   UNL     1      32.920 -21.374 -19.171  0.00  0.00    +0.012 C 
ATOM     17  C   UNL     1      34.330 -23.416 -19.618  0.00  0.00    +0.004 C 
ATOM     18  C   UNL     1      32.833 -20.804 -20.575  0.00  0.00    +0.073 C 
ATOM     19  C   UNL     1      35.295 -20.158 -20.220  0.00  0.00    +0.160 C 
ATOM     20  C   UNL     1      33.968 -19.847 -20.817  0.00  0.00    +0.206 C 
ENDROOT
BRANCH   9  21
ATOM     21  O   UNL     1      34.611 -24.856 -12.549  0.00  0.00    -0.384 OA
ATOM     22  H   UNL     1      34.136 -24.527 -11.770  0.00  0.00    +0.210 HD
ENDBRANCH   9  21
BRANCH  19  23
ATOM     23  O   UNL     1      36.362 -19.381 -20.622  0.00  0.00    -0.503 OA
ATOM     24  H   UNL     1      37.159 -19.388 -20.129  0.00  0.00    +0.292 HD
ENDBRANCH  19  23
TORSDOF 2
ENDMDL
MODEL 3
REMARK VINA RESULT:      -8.5     18.455     20.612
REMARK  Name = 160615
REMARK  2 active torsions:
REMARK  status: ('A' for Active; 'I' for Inactive)
REMARK    1  A    between atoms: C_9  and  O_21
REMARK    2  A    between atoms: C_19  and  O_23
REMARK                            x       y       z     vdW  Elec       q    Type
REMARK                         _______ _______ _______ _____ _____    ______ ____
ROOT
ATOM      1  O   UNL     1      32.822 -11.805 -22.970  0.00  0.00    -0.288 OA
ATOM      2  C   UNL     1      32.826  -4.761 -25.940  0.00  0.00    +0.002 C 
ATOM      3  C   UNL     1      31.689  -3.821 -25.498  0.00  0.00    +0.025 C 
ATOM      4  C   UNL     1      33.276  -5.710 -24.824  0.00  0.00    +0.001 C 
ATOM      5  C   UNL     1      32.060  -6.587 -24.389  0.00  0.00    +0.004 C 
ATOM      6  C   UNL     1      32.431  -7.636 -23.269  0.00  0.00    +0.019 C 
ATOM      7  C   UNL     1      30.472  -4.684 -25.143  0.00  0.00    +0.002 C 
ATOM      8  C   UNL     1      30.812  -5.722 -24.057  0.00  0.00    +0.000 C 
ATOM      9  C   UNL     1      31.535  -2.990 -26.786  0.00  0.00    +0.110 C 
ATOM     10  C   UNL     1      33.847  -3.815 -26.567  0.00  0.00    +0.003 C 
ATOM     11  C   UNL     1      34.431  -6.605 -25.282  0.00  0.00    +0.004 C 
ATOM     12  C   UNL     1      32.986  -2.727 -27.235  0.00  0.00    +0.029 C 
ATOM     13  C   UNL     1      33.693  -8.414 -23.682  0.00  0.00    -0.008 C 
ATOM     14  C   UNL     1      34.849  -7.568 -24.178  0.00  0.00    +0.025 C 
ATOM     15  C   UNL     1      32.037  -2.901 -24.301  0.00  0.00    +0.002 C 
ATOM     16  C   UNL     1      31.229  -8.609 -23.106  0.00  0.00    +0.012 C 
ATOM     17  C   UNL     1      32.707  -6.954 -21.909  0.00  0.00    +0.004 C 
ATOM     18  C   UNL     1      31.573  -9.871 -22.337  0.00  0.00    +0.073 C 
ATOM     19  C   UNL     1      33.811  -9.755 -23.596  0.00  0.00    +0.160 C 
ATOM     20  C   UNL     1      32.729 -10.578 -22.991  0.00  0.00    +0.206 C 
ENDROOT
BRANCH   9  21
ATOM     21  O   UNL     1      30.822  -1.786 -26.585  0.00  0.00    -0.384 OA
ATOM     22  H   UNL     1      30.846  -1.256 -27.398  0.00  0.00    +0.210 HD
ENDBRANCH   9  21
BRANCH  19  23
ATOM     23  O   UNL     1      34.950 -10.418 -24.005  0.00  0.00    -0.503 OA
ATOM     24  H   UNL     1      35.013 -11.347 -23.905  0.00  0.00    +0.292 HD
ENDBRANCH  19  23
TORSDOF 2
ENDMDL
MODEL 4
REMARK VINA RESULT:      -8.1     11.079     13.687
REMARK  Name = 160615
REMARK  2 active torsions:
REMARK  status: ('A' for Active; 'I' for Inactive)
REMARK    1  A    between atoms: C_9  and  O_21
REMARK    2  A    between atoms: C_19  and  O_23
REMARK                            x       y       z     vdW  Elec       q    Type
REMARK                         _______ _______ _______ _____ _____    ______ ____
ROOT
ATOM      1  O   UNL     1      34.313 -10.332 -25.873  0.00  0.00    -0.288 OA
ATOM      2  C   UNL     1      34.814 -17.471 -23.184  0.00  0.00    +0.002 C 
ATOM      3  C   UNL     1      34.650 -17.652 -21.664  0.00  0.00    +0.025 C 
ATOM      4  C   UNL     1      33.941 -16.341 -23.742  0.00  0.00    +0.001 C 
ATOM      5  C   UNL     1      34.343 -15.004 -23.046  0.00  0.00    +0.004 C 
ATOM      6  C   UNL     1      33.529 -13.763 -23.586  0.00  0.00    +0.019 C 
ATOM      7  C   UNL     1      35.117 -16.361 -20.980  0.00  0.00    +0.002 C 
ATOM      8  C   UNL     1      34.342 -15.135 -21.497  0.00  0.00    +0.000 C 
ATOM      9  C   UNL     1      35.578 -18.864 -21.455  0.00  0.00    +0.110 C 
ATOM     10  C   UNL     1      34.640 -18.885 -23.733  0.00  0.00    +0.003 C 
ATOM     11  C   UNL     1      34.098 -16.210 -25.260  0.00  0.00    +0.004 C 
ATOM     12  C   UNL     1      35.265 -19.784 -22.651  0.00  0.00    +0.029 C 
ATOM     13  C   UNL     1      33.568 -13.745 -25.124  0.00  0.00    -0.008 C 
ATOM     14  C   UNL     1      33.253 -15.064 -25.802  0.00  0.00    +0.025 C 
ATOM     15  C   UNL     1      33.209 -17.990 -21.204  0.00  0.00    +0.002 C 
ATOM     16  C   UNL     1      34.185 -12.473 -23.016  0.00  0.00    +0.012 C 
ATOM     17  C   UNL     1      32.049 -13.807 -23.141  0.00  0.00    +0.004 C 
ATOM     18  C   UNL     1      33.745 -11.207 -23.726  0.00  0.00    +0.073 C 
ATOM     19  C   UNL     1      33.832 -12.643 -25.856  0.00  0.00    +0.160 C 
ATOM     20  C   UNL     1      34.016 -11.319 -25.202  0.00  0.00    +0.206 C 
ENDROOT
BRANCH   9  21
ATOM     21  O   UNL     1      35.361 -19.518 -20.220  0.00  0.00    -0.384 OA
ATOM     22  H   UNL     1      34.667 -20.187 -20.326  0.00  0.00    +0.210 HD
ENDBRANCH   9  21
BRANCH  19  23
ATOM     23  O   UNL     1      33.887 -12.675 -27.234  0.00  0.00    -0.503 OA
ATOM     24  H   UNL     1      33.644 -13.454 -27.695  0.00  0.00    +0.292 HD
ENDBRANCH  19  23
TORSDOF 2
ENDMDL
MODEL 5
REMARK VINA RESULT:      -7.7      1.304      6.956
REMARK  Name = 160615
REMARK  2 active torsions:
REMARK  status: ('A' for Active; 'I' for Inactive)
REMARK    1  A    between atoms: C_9  and  O_21
REMARK    2  A    between atoms: C_19  and  O_23
REMARK                            x       y       z     vdW  Elec       q    Type
REMARK                         _______ _______ _______ _____ _____    ______ ____
ROOT
ATOM      1  O   UNL     1      27.827 -24.353 -16.486  0.00  0.00    -0.288 OA
ATOM      2  C   UNL     1      35.204 -24.868 -14.548  0.00  0.00    +0.002 C 
ATOM      3  C   UNL     1      36.139 -23.765 -15.078  0.00  0.00    +0.025 C 
ATOM      4  C   UNL     1      33.800 -24.347 -14.224  0.00  0.00    +0.001 C 
ATOM      5  C   UNL     1      33.170 -23.757 -15.524  0.00  0.00    +0.004 C 
ATOM      6  C   UNL     1      31.697 -23.231 -15.306  0.00  0.00    +0.019 C 
ATOM      7  C   UNL     1      35.554 -23.240 -16.395  0.00  0.00    +0.002 C 
ATOM      8  C   UNL     1      34.113 -22.729 -16.209  0.00  0.00    +0.000 C 
ATOM      9  C   UNL     1      37.434 -24.586 -15.231  0.00  0.00    +0.110 C 
ATOM     10  C   UNL     1      36.025 -25.531 -13.444  0.00  0.00    +0.003 C 
ATOM     11  C   UNL     1      32.906 -25.458 -13.665  0.00  0.00    +0.004 C 
ATOM     12  C   UNL     1      37.473 -25.461 -13.962  0.00  0.00    +0.029 C 
ATOM     13  C   UNL     1      30.859 -24.309 -14.596  0.00  0.00    -0.008 C 
ATOM     14  C   UNL     1      31.502 -24.940 -13.377  0.00  0.00    +0.025 C 
ATOM     15  C   UNL     1      36.363 -22.582 -14.103  0.00  0.00    +0.002 C 
ATOM     16  C   UNL     1      31.090 -22.912 -16.702  0.00  0.00    +0.012 C 
ATOM     17  C   UNL     1      31.664 -21.948 -14.444  0.00  0.00    +0.004 C 
ATOM     18  C   UNL     1      29.582 -22.746 -16.682  0.00  0.00    +0.073 C 
ATOM     19  C   UNL     1      29.621 -24.676 -14.985  0.00  0.00    +0.160 C 
ATOM     20  C   UNL     1      28.933 -23.973 -16.102  0.00  0.00    +0.206 C 
ENDROOT
BRANCH   9  21
ATOM     21  O   UNL     1      38.590 -23.779 -15.346  0.00  0.00    -0.384 OA
ATOM     22  H   UNL     1      38.387 -22.879 -15.044  0.00  0.00    +0.210 HD
ENDBRANCH   9  21
BRANCH  19  23
ATOM     23  O   UNL     1      28.914 -25.669 -14.339  0.00  0.00    -0.503 OA
ATOM     24  H   UNL     1      29.367 -26.397 -13.961  0.00  0.00    +0.292 HD
ENDBRANCH  19  23
TORSDOF 2
ENDMDL
MODEL 6
REMARK VINA RESULT:      -7.6      1.472      6.530
REMARK  Name = 160615
REMARK  2 active torsions:
REMARK  status: ('A' for Active; 'I' for Inactive)
REMARK    1  A    between atoms: C_9  and  O_21
REMARK    2  A    between atoms: C_19  and  O_23
REMARK                            x       y       z     vdW  Elec       q    Type
REMARK                         _______ _______ _______ _____ _____    ______ ____
ROOT
ATOM      1  O   UNL     1      28.422 -21.962 -15.228  0.00  0.00    -0.288 OA
ATOM      2  C   UNL     1      35.920 -23.401 -14.848  0.00  0.00    +0.002 C 
ATOM      3  C   UNL     1      36.422 -24.144 -13.596  0.00  0.00    +0.025 C 
ATOM      4  C   UNL     1      34.522 -23.853 -15.284  0.00  0.00    +0.001 C 
ATOM      5  C   UNL     1      33.519 -23.578 -14.120  0.00  0.00    +0.004 C 
ATOM      6  C   UNL     1      32.034 -23.968 -14.486  0.00  0.00    +0.019 C 
ATOM      7  C   UNL     1      35.474 -23.811 -12.437  0.00  0.00    +0.002 C 
ATOM      8  C   UNL     1      34.017 -24.176 -12.775  0.00  0.00    +0.000 C 
ATOM      9  C   UNL     1      37.826 -23.522 -13.480  0.00  0.00    +0.110 C 
ATOM     10  C   UNL     1      37.083 -23.532 -15.829  0.00  0.00    +0.003 C 
ATOM     11  C   UNL     1      34.068 -23.123 -16.551  0.00  0.00    +0.004 C 
ATOM     12  C   UNL     1      38.334 -23.475 -14.934  0.00  0.00    +0.029 C 
ATOM     13  C   UNL     1      31.654 -23.354 -15.845  0.00  0.00    -0.008 C 
ATOM     14  C   UNL     1      32.664 -23.553 -16.958  0.00  0.00    +0.025 C 
ATOM     15  C   UNL     1      36.525 -25.682 -13.754  0.00  0.00    +0.002 C 
ATOM     16  C   UNL     1      31.103 -23.418 -13.368  0.00  0.00    +0.012 C 
ATOM     17  C   UNL     1      31.847 -25.500 -14.580  0.00  0.00    +0.004 C 
ATOM     18  C   UNL     1      29.637 -23.398 -13.758  0.00  0.00    +0.073 C 
ATOM     19  C   UNL     1      30.498 -22.698 -16.076  0.00  0.00    +0.160 C 
ATOM     20  C   UNL     1      29.448 -22.610 -15.025  0.00  0.00    +0.206 C 
ENDROOT
BRANCH   9  21
ATOM     21  O   UNL     1      38.692 -24.265 -12.645  0.00  0.00    -0.384 OA
ATOM     22  H   UNL     1      38.780 -23.817 -11.790  0.00  0.00    +0.210 HD
ENDBRANCH   9  21
BRANCH  19  23
ATOM     23  O   UNL     1      30.208 -22.135 -17.302  0.00  0.00    -0.503 OA
ATOM     24  H   UNL     1      29.799 -21.294 -17.347  0.00  0.00    +0.292 HD
ENDBRANCH  19  23
TORSDOF 2
ENDMDL
MODEL 7
REMARK VINA RESULT:      -7.5     13.404     15.773
REMARK  Name = 160615
REMARK  2 active torsions:
REMARK  status: ('A' for Active; 'I' for Inactive)
REMARK    1  A    between atoms: C_9  and  O_21
REMARK    2  A    between atoms: C_19  and  O_23
REMARK                            x       y       z     vdW  Elec       q    Type
REMARK                         _______ _______ _______ _____ _____    ______ ____
ROOT
ATOM      1  O   UNL     1      34.406 -16.518 -21.489  0.00  0.00    -0.288 OA
ATOM      2  C   UNL     1      32.627  -9.094 -21.898  0.00  0.00    +0.002 C 
ATOM      3  C   UNL     1      32.827  -8.407 -23.261  0.00  0.00    +0.025 C 
ATOM      4  C   UNL     1      32.183 -10.555 -22.032  0.00  0.00    +0.001 C 
ATOM      5  C   UNL     1      33.276 -11.343 -22.819  0.00  0.00    +0.004 C 
ATOM      6  C   UNL     1      32.934 -12.877 -22.972  0.00  0.00    +0.019 C 
ATOM      7  C   UNL     1      33.954  -9.140 -24.001  0.00  0.00    +0.002 C 
ATOM      8  C   UNL     1      33.646 -10.641 -24.155  0.00  0.00    +0.000 C 
ATOM      9  C   UNL     1      33.189  -6.991 -22.778  0.00  0.00    +0.110 C 
ATOM     10  C   UNL     1      31.741  -8.115 -21.132  0.00  0.00    +0.003 C 
ATOM     11  C   UNL     1      31.957 -11.199 -20.660  0.00  0.00    +0.004 C 
ATOM     12  C   UNL     1      32.209  -6.731 -21.617  0.00  0.00    +0.029 C 
ATOM     13  C   UNL     1      32.553 -13.465 -21.602  0.00  0.00    -0.008 C 
ATOM     14  C   UNL     1      31.549 -12.661 -20.801  0.00  0.00    +0.025 C 
ATOM     15  C   UNL     1      31.563  -8.365 -24.157  0.00  0.00    +0.002 C 
ATOM     16  C   UNL     1      34.194 -13.596 -23.535  0.00  0.00    +0.012 C 
ATOM     17  C   UNL     1      31.754 -13.110 -23.943  0.00  0.00    +0.004 C 
ATOM     18  C   UNL     1      34.140 -15.106 -23.396  0.00  0.00    +0.073 C 
ATOM     19  C   UNL     1      33.038 -14.630 -21.123  0.00  0.00    +0.160 C 
ATOM     20  C   UNL     1      33.925 -15.487 -21.956  0.00  0.00    +0.206 C 
ENDROOT
BRANCH   9  21
ATOM     21  O   UNL     1      33.069  -6.013 -23.793  0.00  0.00    -0.384 OA
ATOM     22  H   UNL     1      33.920  -5.561 -23.909  0.00  0.00    +0.210 HD
ENDBRANCH   9  21
BRANCH  19  23
ATOM     23  O   UNL     1      32.694 -15.108 -19.875  0.00  0.00    -0.503 OA
ATOM     24  H   UNL     1      31.858 -15.509 -19.741  0.00  0.00    +0.292 HD
ENDBRANCH  19  23
TORSDOF 2
ENDMDL
MODEL 8
REMARK VINA RESULT:      -7.5     19.770     22.108
REMARK  Name = 160615
REMARK  2 active torsions:
REMARK  status: ('A' for Active; 'I' for Inactive)
REMARK    1  A    between atoms: C_9  and  O_21
REMARK    2  A    between atoms: C_19  and  O_23
REMARK                            x       y       z     vdW  Elec       q    Type
REMARK                         _______ _______ _______ _____ _____    ______ ____
ROOT
ATOM      1  O   UNL     1      32.698  -7.586 -19.858  0.00  0.00    -0.288 OA
ATOM      2  C   UNL     1      32.997  -3.437 -26.273  0.00  0.00    +0.002 C 
ATOM      3  C   UNL     1      33.704  -4.078 -27.481  0.00  0.00    +0.025 C 
ATOM      4  C   UNL     1      32.251  -4.463 -25.412  0.00  0.00    +0.001 C 
ATOM      5  C   UNL     1      33.277  -5.511 -24.877  0.00  0.00    +0.004 C 
ATOM      6  C   UNL     1      32.614  -6.592 -23.936  0.00  0.00    +0.019 C 
ATOM      7  C   UNL     1      34.763  -5.052 -26.948  0.00  0.00    +0.002 C 
ATOM      8  C   UNL     1      34.140  -6.112 -26.021  0.00  0.00    +0.000 C 
ATOM      9  C   UNL     1      34.273  -2.808 -28.142  0.00  0.00    +0.110 C 
ATOM     10  C   UNL     1      32.218  -2.278 -26.890  0.00  0.00    +0.003 C 
ATOM     11  C   UNL     1      31.529  -3.791 -24.241  0.00  0.00    +0.004 C 
ATOM     12  C   UNL     1      33.125  -1.786 -28.032  0.00  0.00    +0.029 C 
ATOM     13  C   UNL     1      31.760  -5.894 -22.862  0.00  0.00    -0.008 C 
ATOM     14  C   UNL     1      30.818  -4.821 -23.371  0.00  0.00    +0.025 C 
ATOM     15  C   UNL     1      32.764  -4.822 -28.463  0.00  0.00    +0.002 C 
ATOM     16  C   UNL     1      33.755  -7.411 -23.268  0.00  0.00    +0.012 C 
ATOM     17  C   UNL     1      31.702  -7.560 -24.724  0.00  0.00    +0.004 C 
ATOM     18  C   UNL     1      33.292  -8.232 -22.079  0.00  0.00    +0.073 C 
ATOM     19  C   UNL     1      31.799  -6.208 -21.551  0.00  0.00    +0.160 C 
ATOM     20  C   UNL     1      32.626  -7.344 -21.063  0.00  0.00    +0.206 C 
ENDROOT
BRANCH   9  21
ATOM     21  O   UNL     1      34.665  -3.012 -29.485  0.00  0.00    -0.384 OA
ATOM     22  H   UNL     1      34.682  -3.964 -29.676  0.00  0.00    +0.210 HD
ENDBRANCH   9  21
BRANCH  19  23
ATOM     23  O   UNL     1      31.038  -5.537 -20.615  0.00  0.00    -0.503 OA
ATOM     24  H   UNL     1      30.512  -4.807 -20.875  0.00  0.00    +0.292 HD
ENDBRANCH  19  23
TORSDOF 2
ENDMDL
MODEL 9
REMARK VINA RESULT:      -7.0     15.184     17.918
REMARK  Name = 160615
REMARK  2 active torsions:
REMARK  status: ('A' for Active; 'I' for Inactive)
REMARK    1  A    between atoms: C_9  and  O_21
REMARK    2  A    between atoms: C_19  and  O_23
REMARK                            x       y       z     vdW  Elec       q    Type
REMARK                         _______ _______ _______ _____ _____    ______ ____
ROOT
ATOM      1  O   UNL     1      30.835  -4.185 -23.100  0.00  0.00    -0.288 OA
ATOM      2  C   UNL     1      32.163 -11.673 -22.313  0.00  0.00    +0.002 C 
ATOM      3  C   UNL     1      33.021 -12.343 -23.402  0.00  0.00    +0.025 C 
ATOM      4  C   UNL     1      32.595 -10.230 -22.025  0.00  0.00    +0.001 C 
ATOM      5  C   UNL     1      32.459  -9.394 -23.336  0.00  0.00    +0.004 C 
ATOM      6  C   UNL     1      32.838  -7.875 -23.135  0.00  0.00    +0.019 C 
ATOM      7  C   UNL     1      32.826 -11.561 -24.707  0.00  0.00    +0.002 C 
ATOM      8  C   UNL     1      33.182 -10.073 -24.532  0.00  0.00    +0.000 C 
ATOM      9  C   UNL     1      32.387 -13.747 -23.392  0.00  0.00    +0.110 C 
ATOM     10  C   UNL     1      32.170 -12.692 -21.176  0.00  0.00    +0.003 C 
ATOM     11  C   UNL     1      31.747  -9.604 -20.914  0.00  0.00    +0.004 C 
ATOM     12  C   UNL     1      32.182 -14.053 -21.895  0.00  0.00    +0.029 C 
ATOM     13  C   UNL     1      32.095  -7.311 -21.911  0.00  0.00    -0.008 C 
ATOM     14  C   UNL     1      32.160  -8.160 -20.657  0.00  0.00    +0.025 C 
ATOM     15  C   UNL     1      34.533 -12.432 -23.072  0.00  0.00    +0.002 C 
ATOM     16  C   UNL     1      32.423  -7.102 -24.419  0.00  0.00    +0.012 C 
ATOM     17  C   UNL     1      34.356  -7.684 -22.908  0.00  0.00    +0.004 C 
ATOM     18  C   UNL     1      32.391  -5.596 -24.235  0.00  0.00    +0.073 C 
ATOM     19  C   UNL     1      31.442  -6.130 -21.907  0.00  0.00    +0.160 C 
ATOM     20  C   UNL     1      31.481  -5.233 -23.094  0.00  0.00    +0.206 C 
ENDROOT
BRANCH   9  21
ATOM     21  O   UNL     1      33.196 -14.723 -24.020  0.00  0.00    -0.384 OA
ATOM     22  H   UNL     1      33.975 -14.296 -24.409  0.00  0.00    +0.210 HD
ENDBRANCH   9  21
BRANCH  19  23
ATOM     23  O   UNL     1      30.761  -5.674 -20.797  0.00  0.00    -0.503 OA
ATOM     24  H   UNL     1      31.215  -5.553 -19.986  0.00  0.00    +0.292 HD
ENDBRANCH  19  23
TORSDOF 2
ENDMDL
