MODEL 1
REMARK VINA RESULT:      -8.1      0.000      0.000
REMARK  Name = 5288998
REMARK  7 active torsions:
REMARK  status: ('A' for Active; 'I' for Inactive)
REMARK    1  A    between atoms: CA_1  and  N_3
REMARK    2  A    between atoms: CA_1  and  C_11
REMARK    3  A    between atoms: CA_1  and  CB_14
REMARK    4  A    between atoms: C_4  and  C_7
REMARK    5  A    between atoms: C_7  and  O_8
REMARK    6  A    between atoms: C_11  and  O_12
REMARK    7  A    between atoms: CB_14  and  CG_15
REMARK                            x       y       z     vdW  Elec       q    Type
REMARK                         _______ _______ _______ _____ _____    ______ ____
ROOT
ATOM      1  CA  PHE A   1      36.723 -24.747 -13.604  0.00  0.00    +0.176 C 
ENDROOT
BRANCH   1   3
ATOM      2  O   UNK A   0      38.389 -26.906 -14.671  0.00  0.00    -0.263 OA
ATOM      3  N   PHE A   1      38.093 -24.673 -14.049  0.00  0.00    -0.288 N 
ATOM      4  C   UNK A   0      38.789 -25.760 -14.538  0.00  0.00    +0.322 C 
ATOM      5  H   PHE A   1      38.554 -23.805 -14.001  0.00  0.00    +0.150 HD
BRANCH   4   7
ATOM      6  O   UNK A   0      40.944 -24.736 -14.247  0.00  0.00    -0.240 OA
ATOM      7  C   UNK A   0      40.208 -25.416 -14.934  0.00  0.00    +0.392 C 
BRANCH   7   8
ATOM      8  O   UNK A   0      40.502 -25.969 -16.121  0.00  0.00    -0.474 OA
ATOM      9  H   UNK A   0      39.896 -26.556 -16.527  0.00  0.00    +0.296 HD
ENDBRANCH   7   8
ENDBRANCH   4   7
ENDBRANCH   1   3
BRANCH   1  11
ATOM     10  OXT PHE A   1      36.430 -24.524 -11.213  0.00  0.00    -0.248 OA
ATOM     11  C   PHE A   1      36.641 -25.258 -12.173  0.00  0.00    +0.332 C 
BRANCH  11  12
ATOM     12  O   PHE A   1      36.813 -26.595 -12.036  0.00  0.00    -0.479 OA
ATOM     13  H   PHE A   1      37.639 -26.934 -11.751  0.00  0.00    +0.295 HD
ENDBRANCH  11  12
ENDBRANCH   1  11
BRANCH   1  14
ATOM     14  CB  PHE A   1      36.024 -23.386 -13.715  0.00  0.00    +0.057 C 
BRANCH  14  15
ATOM     15  CG  PHE A   1      34.859 -23.399 -14.676  0.00  0.00    -0.020 C 
ATOM     16  CD1 PHE A   1      33.587 -23.674 -14.197  0.00  0.00    -0.004 C 
ATOM     17  CD2 PHE A   1      35.084 -23.139 -16.018  0.00  0.00    -0.004 C 
ATOM     18  CE1 PHE A   1      32.512 -23.686 -15.085  0.00  0.00    -0.000 C 
ATOM     19  CE2 PHE A   1      34.007 -23.151 -16.906  0.00  0.00    -0.000 C 
ATOM     20  CZ  PHE A   1      32.721 -23.425 -16.440  0.00  0.00    -0.000 C 
ENDBRANCH  14  15
ENDBRANCH   1  14
TORSDOF 7
ENDMDL
MODEL 2
REMARK VINA RESULT:      -8.1      0.022      1.172
REMARK  Name = 5288998
REMARK  7 active torsions:
REMARK  status: ('A' for Active; 'I' for Inactive)
REMARK    1  A    between atoms: CA_1  and  N_3
REMARK    2  A    between atoms: CA_1  and  C_11
REMARK    3  A    between atoms: CA_1  and  CB_14
REMARK    4  A    between atoms: C_4  and  C_7
REMARK    5  A    between atoms: C_7  and  O_8
REMARK    6  A    between atoms: C_11  and  O_12
REMARK    7  A    between atoms: CB_14  and  CG_15
REMARK                            x       y       z     vdW  Elec       q    Type
REMARK                         _______ _______ _______ _____ _____    ______ ____
ROOT
ATOM      1  CA  PHE A   1      36.721 -24.757 -13.598  0.00  0.00    +0.176 C 
ENDROOT
BRANCH   1   3
ATOM      2  O   UNK A   0      38.378 -26.909 -14.692  0.00  0.00    -0.263 OA
ATOM      3  N   PHE A   1      38.094 -24.685 -14.034  0.00  0.00    -0.288 N 
ATOM      4  C   UNK A   0      38.785 -25.768 -14.538  0.00  0.00    +0.322 C 
ATOM      5  H   PHE A   1      38.560 -23.821 -13.970  0.00  0.00    +0.150 HD
BRANCH   4   7
ATOM      6  O   UNK A   0      40.936 -24.739 -14.233  0.00  0.00    -0.240 OA
ATOM      7  C   UNK A   0      40.208 -25.427 -14.921  0.00  0.00    +0.392 C 
BRANCH   7   8
ATOM      8  O   UNK A   0      40.516 -25.991 -16.099  0.00  0.00    -0.474 OA
ATOM      9  H   UNK A   0      40.152 -26.823 -16.330  0.00  0.00    +0.296 HD
ENDBRANCH   7   8
ENDBRANCH   4   7
ENDBRANCH   1   3
BRANCH   1  11
ATOM     10  OXT PHE A   1      36.391 -24.540 -11.211  0.00  0.00    -0.248 OA
ATOM     11  C   PHE A   1      36.630 -25.270 -12.168  0.00  0.00    +0.332 C 
BRANCH  11  12
ATOM     12  O   PHE A   1      36.827 -26.602 -12.027  0.00  0.00    -0.479 OA
ATOM     13  H   PHE A   1      36.092 -27.178 -11.937  0.00  0.00    +0.295 HD
ENDBRANCH  11  12
ENDBRANCH   1  11
BRANCH   1  14
ATOM     14  CB  PHE A   1      36.025 -23.395 -13.711  0.00  0.00    +0.057 C 
BRANCH  14  15
ATOM     15  CG  PHE A   1      34.854 -23.410 -14.665  0.00  0.00    -0.020 C 
ATOM     16  CD1 PHE A   1      35.071 -23.147 -16.010  0.00  0.00    -0.004 C 
ATOM     17  CD2 PHE A   1      33.587 -23.686 -14.180  0.00  0.00    -0.004 C 
ATOM     18  CE1 PHE A   1      33.989 -23.162 -16.891  0.00  0.00    -0.000 C 
ATOM     19  CE2 PHE A   1      32.505 -23.700 -15.062  0.00  0.00    -0.000 C 
ATOM     20  CZ  PHE A   1      32.707 -23.437 -16.417  0.00  0.00    -0.000 C 
ENDBRANCH  14  15
ENDBRANCH   1  14
TORSDOF 7
ENDMDL
MODEL 3
REMARK VINA RESULT:      -8.0      1.599      2.350
REMARK  Name = 5288998
REMARK  7 active torsions:
REMARK  status: ('A' for Active; 'I' for Inactive)
REMARK    1  A    between atoms: CA_1  and  N_3
REMARK    2  A    between atoms: CA_1  and  C_11
REMARK    3  A    between atoms: CA_1  and  CB_14
REMARK    4  A    between atoms: C_4  and  C_7
REMARK    5  A    between atoms: C_7  and  O_8
REMARK    6  A    between atoms: C_11  and  O_12
REMARK    7  A    between atoms: CB_14  and  CG_15
REMARK                            x       y       z     vdW  Elec       q    Type
REMARK                         _______ _______ _______ _____ _____    ______ ____
ROOT
ATOM      1  CA  PHE A   1      36.994 -24.046 -15.043  0.00  0.00    +0.176 C 
ENDROOT
BRANCH   1   3
ATOM      2  O   UNK A   0      37.969 -26.701 -14.286  0.00  0.00    -0.263 OA
ATOM      3  N   PHE A   1      38.351 -24.532 -15.068  0.00  0.00    -0.288 N 
ATOM      4  C   UNK A   0      38.703 -25.811 -14.688  0.00  0.00    +0.322 C 
ATOM      5  H   PHE A   1      39.061 -23.922 -15.372  0.00  0.00    +0.150 HD
BRANCH   4   7
ATOM      6  O   UNK A   0      40.901 -26.304 -13.850  0.00  0.00    -0.240 OA
ATOM      7  C   UNK A   0      40.190 -26.069 -14.806  0.00  0.00    +0.392 C 
BRANCH   7   8
ATOM      8  O   UNK A   0      40.569 -25.998 -16.091  0.00  0.00    -0.474 OA
ATOM      9  H   UNK A   0      40.151 -25.392 -16.670  0.00  0.00    +0.296 HD
ENDBRANCH   7   8
ENDBRANCH   4   7
ENDBRANCH   1   3
BRANCH   1  11
ATOM     10  OXT PHE A   1      36.693 -23.209 -12.794  0.00  0.00    -0.248 OA
ATOM     11  C   PHE A   1      36.432 -24.069 -13.629  0.00  0.00    +0.332 C 
BRANCH  11  12
ATOM     12  O   PHE A   1      35.612 -25.112 -13.360  0.00  0.00    -0.479 OA
ATOM     13  H   PHE A   1      34.812 -25.214 -13.838  0.00  0.00    +0.295 HD
ENDBRANCH  11  12
ENDBRANCH   1  11
BRANCH   1  14
ATOM     14  CB  PHE A   1      36.896 -22.628 -15.623  0.00  0.00    +0.057 C 
BRANCH  14  15
ATOM     15  CG  PHE A   1      35.919 -22.528 -16.769  0.00  0.00    -0.020 C 
ATOM     16  CD1 PHE A   1      36.310 -21.900 -17.942  0.00  0.00    -0.004 C 
ATOM     17  CD2 PHE A   1      34.649 -23.063 -16.627  0.00  0.00    -0.004 C 
ATOM     18  CE1 PHE A   1      35.406 -21.807 -19.001  0.00  0.00    -0.000 C 
ATOM     19  CE2 PHE A   1      33.746 -22.970 -17.687  0.00  0.00    -0.000 C 
ATOM     20  CZ  PHE A   1      34.124 -22.341 -18.873  0.00  0.00    -0.000 C 
ENDBRANCH  14  15
ENDBRANCH   1  14
TORSDOF 7
ENDMDL
MODEL 4
REMARK VINA RESULT:      -7.7     10.792     12.690
REMARK  Name = 5288998
REMARK  7 active torsions:
REMARK  status: ('A' for Active; 'I' for Inactive)
REMARK    1  A    between atoms: CA_1  and  N_3
REMARK    2  A    between atoms: CA_1  and  C_11
REMARK    3  A    between atoms: CA_1  and  CB_14
REMARK    4  A    between atoms: C_4  and  C_7
REMARK    5  A    between atoms: C_7  and  O_8
REMARK    6  A    between atoms: C_11  and  O_12
REMARK    7  A    between atoms: CB_14  and  CG_15
REMARK                            x       y       z     vdW  Elec       q    Type
REMARK                         _______ _______ _______ _____ _____    ______ ____
ROOT
ATOM      1  CA  PHE A   1      34.303 -16.984 -23.373  0.00  0.00    +0.176 C 
ENDROOT
BRANCH   1   3
ATOM      2  O   UNK A   0      32.442 -15.338 -21.823  0.00  0.00    -0.263 OA
ATOM      3  N   PHE A   1      34.088 -15.561 -23.467  0.00  0.00    -0.288 N 
ATOM      4  C   UNK A   0      33.179 -14.880 -22.682  0.00  0.00    +0.322 C 
ATOM      5  H   PHE A   1      34.615 -15.050 -24.122  0.00  0.00    +0.150 HD
BRANCH   4   7
ATOM      6  O   UNK A   0      32.229 -12.673 -22.645  0.00  0.00    -0.240 OA
ATOM      7  C   UNK A   0      33.146 -13.397 -22.978  0.00  0.00    +0.392 C 
BRANCH   7   8
ATOM      8  O   UNK A   0      34.255 -13.034 -23.641  0.00  0.00    -0.474 OA
ATOM      9  H   UNK A   0      34.856 -12.429 -23.254  0.00  0.00    +0.296 HD
ENDBRANCH   7   8
ENDBRANCH   4   7
ENDBRANCH   1   3
BRANCH   1  11
ATOM     10  OXT PHE A   1      34.550 -18.791 -24.962  0.00  0.00    -0.248 OA
ATOM     11  C   PHE A   1      34.581 -17.584 -24.744  0.00  0.00    +0.332 C 
BRANCH  11  12
ATOM     12  O   PHE A   1      34.862 -16.682 -25.714  0.00  0.00    -0.479 OA
ATOM     13  H   PHE A   1      35.683 -16.719 -26.165  0.00  0.00    +0.295 HD
ENDBRANCH  11  12
ENDBRANCH   1  11
BRANCH   1  14
ATOM     14  CB  PHE A   1      35.453 -17.315 -22.413  0.00  0.00    +0.057 C 
BRANCH  14  15
ATOM     15  CG  PHE A   1      35.184 -18.540 -21.574  0.00  0.00    -0.020 C 
ATOM     16  CD1 PHE A   1      36.252 -19.248 -21.043  0.00  0.00    -0.004 C 
ATOM     17  CD2 PHE A   1      33.875 -18.936 -21.351  0.00  0.00    -0.004 C 
ATOM     18  CE1 PHE A   1      36.002 -20.381 -20.267  0.00  0.00    -0.000 C 
ATOM     19  CE2 PHE A   1      33.626 -20.069 -20.574  0.00  0.00    -0.000 C 
ATOM     20  CZ  PHE A   1      34.690 -20.792 -20.033  0.00  0.00    -0.000 C 
ENDBRANCH  14  15
ENDBRANCH   1  14
TORSDOF 7
ENDMDL
MODEL 5
REMARK VINA RESULT:      -7.6      9.566     11.209
REMARK  Name = 5288998
REMARK  7 active torsions:
REMARK  status: ('A' for Active; 'I' for Inactive)
REMARK    1  A    between atoms: CA_1  and  N_3
REMARK    2  A    between atoms: CA_1  and  C_11
REMARK    3  A    between atoms: CA_1  and  CB_14
REMARK    4  A    between atoms: C_4  and  C_7
REMARK    5  A    between atoms: C_7  and  O_8
REMARK    6  A    between atoms: C_11  and  O_12
REMARK    7  A    between atoms: CB_14  and  CG_15
REMARK                            x       y       z     vdW  Elec       q    Type
REMARK                         _______ _______ _______ _____ _____    ______ ____
ROOT
ATOM      1  CA  PHE A   1      34.333 -17.769 -21.711  0.00  0.00    +0.176 C 
ENDROOT
BRANCH   1   3
ATOM      2  O   UNK A   0      35.315 -15.602 -23.419  0.00  0.00    -0.263 OA
ATOM      3  N   PHE A   1      34.223 -17.649 -23.144  0.00  0.00    -0.288 N 
ATOM      4  C   UNK A   0      34.725 -16.579 -23.855  0.00  0.00    +0.322 C 
ATOM      5  H   PHE A   1      33.767 -18.367 -23.640  0.00  0.00    +0.150 HD
BRANCH   4   7
ATOM      6  O   UNK A   0      34.200 -15.744 -26.047  0.00  0.00    -0.240 OA
ATOM      7  C   UNK A   0      34.476 -16.695 -25.343  0.00  0.00    +0.392 C 
BRANCH   7   8
ATOM      8  O   UNK A   0      34.608 -17.971 -25.734  0.00  0.00    -0.474 OA
ATOM      9  H   UNK A   0      35.457 -18.367 -25.764  0.00  0.00    +0.296 HD
ENDBRANCH   7   8
ENDBRANCH   4   7
ENDBRANCH   1   3
BRANCH   1  11
ATOM     10  OXT PHE A   1      32.798 -16.042 -20.995  0.00  0.00    -0.248 OA
ATOM     11  C   PHE A   1      33.949 -16.467 -21.025  0.00  0.00    +0.332 C 
BRANCH  11  12
ATOM     12  O   PHE A   1      34.976 -15.808 -20.437  0.00  0.00    -0.479 OA
ATOM     13  H   PHE A   1      34.829 -15.313 -19.655  0.00  0.00    +0.295 HD
ENDBRANCH  11  12
ENDBRANCH   1  11
BRANCH   1  14
ATOM     14  CB  PHE A   1      33.469 -18.918 -21.177  0.00  0.00    +0.057 C 
BRANCH  14  15
ATOM     15  CG  PHE A   1      34.278 -19.990 -20.486  0.00  0.00    -0.020 C 
ATOM     16  CD1 PHE A   1      33.621 -21.006 -19.809  0.00  0.00    -0.004 C 
ATOM     17  CD2 PHE A   1      35.661 -19.938 -20.541  0.00  0.00    -0.004 C 
ATOM     18  CE1 PHE A   1      34.368 -21.996 -19.171  0.00  0.00    -0.000 C 
ATOM     19  CE2 PHE A   1      36.408 -20.929 -19.903  0.00  0.00    -0.000 C 
ATOM     20  CZ  PHE A   1      35.762 -21.957 -19.217  0.00  0.00    -0.000 C 
ENDBRANCH  14  15
ENDBRANCH   1  14
TORSDOF 7
ENDMDL
MODEL 6
REMARK VINA RESULT:      -7.5     12.133     14.090
REMARK  Name = 5288998
REMARK  7 active torsions:
REMARK  status: ('A' for Active; 'I' for Inactive)
REMARK    1  A    between atoms: CA_1  and  N_3
REMARK    2  A    between atoms: CA_1  and  C_11
REMARK    3  A    between atoms: CA_1  and  CB_14
REMARK    4  A    between atoms: C_4  and  C_7
REMARK    5  A    between atoms: C_7  and  O_8
REMARK    6  A    between atoms: C_11  and  O_12
REMARK    7  A    between atoms: CB_14  and  CG_15
REMARK                            x       y       z     vdW  Elec       q    Type
REMARK                         _______ _______ _______ _____ _____    ______ ____
ROOT
ATOM      1  CA  PHE A   1      33.405 -15.114 -24.052  0.00  0.00    +0.176 C 
ENDROOT
BRANCH   1   3
ATOM      2  O   UNK A   0      32.134 -15.182 -21.415  0.00  0.00    -0.263 OA
ATOM      3  N   PHE A   1      32.941 -14.000 -23.263  0.00  0.00    -0.288 N 
ATOM      4  C   UNK A   0      32.352 -14.145 -22.023  0.00  0.00    +0.322 C 
ATOM      5  H   PHE A   1      33.049 -13.092 -23.626  0.00  0.00    +0.150 HD
BRANCH   4   7
ATOM      6  O   UNK A   0      32.116 -12.562 -20.231  0.00  0.00    -0.240 OA
ATOM      7  C   UNK A   0      31.954 -12.822 -21.406  0.00  0.00    +0.392 C 
BRANCH   7   8
ATOM      8  O   UNK A   0      31.416 -12.022 -22.339  0.00  0.00    -0.474 OA
ATOM      9  H   UNK A   0      31.484 -11.092 -22.254  0.00  0.00    +0.296 HD
ENDBRANCH   7   8
ENDBRANCH   4   7
ENDBRANCH   1   3
BRANCH   1  11
ATOM     10  OXT PHE A   1      33.006 -13.694 -25.969  0.00  0.00    -0.248 OA
ATOM     11  C   PHE A   1      33.361 -14.786 -25.537  0.00  0.00    +0.332 C 
BRANCH  11  12
ATOM     12  O   PHE A   1      33.750 -15.793 -26.354  0.00  0.00    -0.479 OA
ATOM     13  H   PHE A   1      34.541 -15.714 -26.852  0.00  0.00    +0.295 HD
ENDBRANCH  11  12
ENDBRANCH   1  11
BRANCH   1  14
ATOM     14  CB  PHE A   1      34.826 -15.532 -23.651  0.00  0.00    +0.057 C 
BRANCH  14  15
ATOM     15  CG  PHE A   1      34.888 -16.926 -23.074  0.00  0.00    -0.020 C 
ATOM     16  CD1 PHE A   1      34.827 -18.018 -23.927  0.00  0.00    -0.004 C 
ATOM     17  CD2 PHE A   1      35.003 -17.089 -21.703  0.00  0.00    -0.004 C 
ATOM     18  CE1 PHE A   1      34.884 -19.305 -23.394  0.00  0.00    -0.000 C 
ATOM     19  CE2 PHE A   1      35.061 -18.378 -21.170  0.00  0.00    -0.000 C 
ATOM     20  CZ  PHE A   1      35.000 -19.486 -22.016  0.00  0.00    -0.000 C 
ENDBRANCH  14  15
ENDBRANCH   1  14
TORSDOF 7
ENDMDL
MODEL 7
REMARK VINA RESULT:      -7.3     10.635     12.358
REMARK  Name = 5288998
REMARK  7 active torsions:
REMARK  status: ('A' for Active; 'I' for Inactive)
REMARK    1  A    between atoms: CA_1  and  N_3
REMARK    2  A    between atoms: CA_1  and  C_11
REMARK    3  A    between atoms: CA_1  and  CB_14
REMARK    4  A    between atoms: C_4  and  C_7
REMARK    5  A    between atoms: C_7  and  O_8
REMARK    6  A    between atoms: C_11  and  O_12
REMARK    7  A    between atoms: CB_14  and  CG_15
REMARK                            x       y       z     vdW  Elec       q    Type
REMARK                         _______ _______ _______ _____ _____    ______ ____
ROOT
ATOM      1  CA  PHE A   1      34.538 -16.595 -22.479  0.00  0.00    +0.176 C 
ENDROOT
BRANCH   1   3
ATOM      2  O   UNK A   0      34.829 -16.931 -25.373  0.00  0.00    -0.263 OA
ATOM      3  N   PHE A   1      33.949 -15.799 -23.528  0.00  0.00    -0.288 N 
ATOM      4  C   UNK A   0      34.153 -16.046 -24.869  0.00  0.00    +0.322 C 
ATOM      5  H   PHE A   1      33.374 -15.043 -23.273  0.00  0.00    +0.150 HD
BRANCH   4   7
ATOM      6  O   UNK A   0      33.438 -15.135 -26.976  0.00  0.00    -0.240 OA
ATOM      7  C   UNK A   0      33.425 -15.066 -25.763  0.00  0.00    +0.392 C 
BRANCH   7   8
ATOM      8  O   UNK A   0      32.790 -14.149 -25.018  0.00  0.00    -0.474 OA
ATOM      9  H   UNK A   0      31.970 -13.797 -25.305  0.00  0.00    +0.296 HD
ENDBRANCH   7   8
ENDBRANCH   4   7
ENDBRANCH   1   3
BRANCH   1  11
ATOM     10  OXT PHE A   1      34.985 -15.706 -20.274  0.00  0.00    -0.248 OA
ATOM     11  C   PHE A   1      34.156 -16.058 -21.107  0.00  0.00    +0.332 C 
BRANCH  11  12
ATOM     12  O   PHE A   1      32.824 -15.991 -20.873  0.00  0.00    -0.479 OA
ATOM     13  H   PHE A   1      32.396 -16.678 -20.401  0.00  0.00    +0.295 HD
ENDBRANCH  11  12
ENDBRANCH   1  11
BRANCH   1  14
ATOM     14  CB  PHE A   1      34.127 -18.069 -22.597  0.00  0.00    +0.057 C 
BRANCH  14  15
ATOM     15  CG  PHE A   1      34.873 -18.966 -21.637  0.00  0.00    -0.020 C 
ATOM     16  CD1 PHE A   1      36.242 -18.808 -21.484  0.00  0.00    -0.004 C 
ATOM     17  CD2 PHE A   1      34.175 -19.930 -20.929  0.00  0.00    -0.004 C 
ATOM     18  CE1 PHE A   1      36.930 -19.636 -20.598  0.00  0.00    -0.000 C 
ATOM     19  CE2 PHE A   1      34.864 -20.759 -20.042  0.00  0.00    -0.000 C 
ATOM     20  CZ  PHE A   1      36.241 -20.612 -19.877  0.00  0.00    -0.000 C 
ENDBRANCH  14  15
ENDBRANCH   1  14
TORSDOF 7
ENDMDL
MODEL 8
REMARK VINA RESULT:      -7.3      7.615      9.101
REMARK  Name = 5288998
REMARK  7 active torsions:
REMARK  status: ('A' for Active; 'I' for Inactive)
REMARK    1  A    between atoms: CA_1  and  N_3
REMARK    2  A    between atoms: CA_1  and  C_11
REMARK    3  A    between atoms: CA_1  and  CB_14
REMARK    4  A    between atoms: C_4  and  C_7
REMARK    5  A    between atoms: C_7  and  O_8
REMARK    6  A    between atoms: C_11  and  O_12
REMARK    7  A    between atoms: CB_14  and  CG_15
REMARK                            x       y       z     vdW  Elec       q    Type
REMARK                         _______ _______ _______ _____ _____    ______ ____
ROOT
ATOM      1  CA  PHE A   1      34.970 -20.051 -20.800  0.00  0.00    +0.176 C 
ENDROOT
BRANCH   1   3
ATOM      2  O   UNK A   0      34.894 -22.747 -19.662  0.00  0.00    -0.263 OA
ATOM      3  N   PHE A   1      35.529 -20.502 -19.549  0.00  0.00    -0.288 N 
ATOM      4  C   UNK A   0      35.435 -21.804 -19.106  0.00  0.00    +0.322 C 
ATOM      5  H   PHE A   1      36.000 -19.848 -18.985  0.00  0.00    +0.150 HD
BRANCH   4   7
ATOM      6  O   UNK A   0      37.088 -21.401 -17.408  0.00  0.00    -0.240 OA
ATOM      7  C   UNK A   0      36.103 -22.015 -17.764  0.00  0.00    +0.392 C 
BRANCH   7   8
ATOM      8  O   UNK A   0      35.447 -22.955 -17.066  0.00  0.00    -0.474 OA
ATOM      9  H   UNK A   0      35.577 -23.029 -16.141  0.00  0.00    +0.296 HD
ENDBRANCH   7   8
ENDBRANCH   4   7
ENDBRANCH   1   3
BRANCH   1  11
ATOM     10  OXT PHE A   1      32.995 -18.662 -20.650  0.00  0.00    -0.248 OA
ATOM     11  C   PHE A   1      33.477 -19.790 -20.667  0.00  0.00    +0.332 C 
BRANCH  11  12
ATOM     12  O   PHE A   1      32.711 -20.903 -20.576  0.00  0.00    -0.479 OA
ATOM     13  H   PHE A   1      31.795 -20.860 -20.773  0.00  0.00    +0.295 HD
ENDBRANCH  11  12
ENDBRANCH   1  11
BRANCH   1  14
ATOM     14  CB  PHE A   1      35.679 -18.788 -21.307  0.00  0.00    +0.057 C 
BRANCH  14  15
ATOM     15  CG  PHE A   1      35.241 -18.386 -22.695  0.00  0.00    -0.020 C 
ATOM     16  CD1 PHE A   1      34.935 -19.370 -23.623  0.00  0.00    -0.004 C 
ATOM     17  CD2 PHE A   1      35.155 -17.041 -23.017  0.00  0.00    -0.004 C 
ATOM     18  CE1 PHE A   1      34.531 -18.998 -24.905  0.00  0.00    -0.000 C 
ATOM     19  CE2 PHE A   1      34.751 -16.669 -24.300  0.00  0.00    -0.000 C 
ATOM     20  CZ  PHE A   1      34.439 -17.647 -25.244  0.00  0.00    -0.000 C 
ENDBRANCH  14  15
ENDBRANCH   1  14
TORSDOF 7
ENDMDL
MODEL 9
REMARK VINA RESULT:      -7.1     15.715     17.169
REMARK  Name = 5288998
REMARK  7 active torsions:
REMARK  status: ('A' for Active; 'I' for Inactive)
REMARK    1  A    between atoms: CA_1  and  N_3
REMARK    2  A    between atoms: CA_1  and  C_11
REMARK    3  A    between atoms: CA_1  and  CB_14
REMARK    4  A    between atoms: C_4  and  C_7
REMARK    5  A    between atoms: C_7  and  O_8
REMARK    6  A    between atoms: C_11  and  O_12
REMARK    7  A    between atoms: CB_14  and  CG_15
REMARK                            x       y       z     vdW  Elec       q    Type
REMARK                         _______ _______ _______ _____ _____    ______ ____
ROOT
ATOM      1  CA  PHE A   1      33.774 -10.671 -24.038  0.00  0.00    +0.176 C 
ENDROOT
BRANCH   1   3
ATOM      2  O   UNK A   0      33.739 -13.598 -24.074  0.00  0.00    -0.263 OA
ATOM      3  N   PHE A   1      33.496 -11.540 -25.154  0.00  0.00    -0.288 N 
ATOM      4  C   UNK A   0      33.506 -12.917 -25.061  0.00  0.00    +0.322 C 
ATOM      5  H   PHE A   1      33.289 -11.132 -26.025  0.00  0.00    +0.150 HD
BRANCH   4   7
ATOM      6  O   UNK A   0      33.636 -13.228 -27.441  0.00  0.00    -0.240 OA
ATOM      7  C   UNK A   0      33.183 -13.595 -26.375  0.00  0.00    +0.392 C 
BRANCH   7   8
ATOM      8  O   UNK A   0      32.351 -14.627 -26.169  0.00  0.00    -0.474 OA
ATOM      9  H   UNK A   0      31.947 -15.057 -26.896  0.00  0.00    +0.296 HD
ENDBRANCH   7   8
ENDBRANCH   4   7
ENDBRANCH   1   3
BRANCH   1  11
ATOM     10  OXT PHE A   1      35.127  -8.682 -23.777  0.00  0.00    -0.248 OA
ATOM     11  C   PHE A   1      34.956  -9.761 -24.337  0.00  0.00    +0.332 C 
BRANCH  11  12
ATOM     12  O   PHE A   1      35.817 -10.234 -25.269  0.00  0.00    -0.479 OA
ATOM     13  H   PHE A   1      35.567 -10.953 -25.816  0.00  0.00    +0.295 HD
ENDBRANCH  11  12
ENDBRANCH   1  11
BRANCH   1  14
ATOM     14  CB  PHE A   1      32.547  -9.829 -23.664  0.00  0.00    +0.057 C 
BRANCH  14  15
ATOM     15  CG  PHE A   1      32.120 -10.018 -22.228  0.00  0.00    -0.020 C 
ATOM     16  CD1 PHE A   1      31.503 -11.202 -21.852  0.00  0.00    -0.004 C 
ATOM     17  CD2 PHE A   1      32.352  -9.005 -21.312  0.00  0.00    -0.004 C 
ATOM     18  CE1 PHE A   1      31.108 -11.376 -20.526  0.00  0.00    -0.000 C 
ATOM     19  CE2 PHE A   1      31.957  -9.179 -19.985  0.00  0.00    -0.000 C 
ATOM     20  CZ  PHE A   1      31.335 -10.364 -19.592  0.00  0.00    -0.000 C 
ENDBRANCH  14  15
ENDBRANCH   1  14
TORSDOF 7
ENDMDL
