MODEL 1
REMARK VINA RESULT:      -6.0      0.000      0.000
REMARK  Name = 114705
REMARK  1 active torsions:
REMARK  status: ('A' for Active; 'I' for Inactive)
REMARK    1  A    between atoms: C_1  and  C_8
REMARK                            x       y       z     vdW  Elec       q    Type
REMARK                         _______ _______ _______ _____ _____    ______ ____
ROOT
ATOM      1  C   UNL     1      34.604 -19.470 -21.137  0.00  0.00    +0.007 C 
ATOM      2  C   UNL     1      35.639 -20.241 -20.607  0.00  0.00    -0.002 C 
ATOM      3  C   UNL     1      33.281 -19.755 -20.803  0.00  0.00    -0.002 C 
ATOM      4  C   UNL     1      35.350 -21.298 -19.745  0.00  0.00    -0.000 C 
ATOM      5  C   UNL     1      32.991 -20.812 -19.939  0.00  0.00    -0.000 C 
ATOM      6  C   UNL     1      34.026 -21.584 -19.410  0.00  0.00    -0.000 C 
ENDROOT
BRANCH   1   8
ATOM      7  O   UNL     1      36.229 -18.309 -22.610  0.00  0.00    -0.346 OA
ATOM      8  C   UNL     1      34.913 -18.340 -22.059  0.00  0.00    +0.167 C 
ATOM      9  C   UNL     1      35.154 -18.615 -23.508  0.00  0.00    +0.177 C 
ENDBRANCH   1   8
TORSDOF 1
ENDMDL
MODEL 2
REMARK VINA RESULT:      -6.0      0.029      1.611
REMARK  Name = 114705
REMARK  1 active torsions:
REMARK  status: ('A' for Active; 'I' for Inactive)
REMARK    1  A    between atoms: C_1  and  C_8
REMARK                            x       y       z     vdW  Elec       q    Type
REMARK                         _______ _______ _______ _____ _____    ______ ____
ROOT
ATOM      1  C   UNL     1      34.608 -19.473 -21.147  0.00  0.00    +0.007 C 
ATOM      2  C   UNL     1      33.289 -19.770 -20.799  0.00  0.00    -0.002 C 
ATOM      3  C   UNL     1      35.654 -20.231 -20.623  0.00  0.00    -0.002 C 
ATOM      4  C   UNL     1      33.018 -20.823 -19.927  0.00  0.00    -0.000 C 
ATOM      5  C   UNL     1      35.383 -21.287 -19.751  0.00  0.00    -0.000 C 
ATOM      6  C   UNL     1      34.065 -21.582 -19.403  0.00  0.00    -0.000 C 
ENDROOT
BRANCH   1   8
ATOM      7  O   UNL     1      36.211 -18.304 -22.638  0.00  0.00    -0.346 OA
ATOM      8  C   UNL     1      34.898 -18.347 -22.079  0.00  0.00    +0.167 C 
ATOM      9  C   UNL     1      35.135 -18.629 -23.528  0.00  0.00    +0.177 C 
ENDBRANCH   1   8
TORSDOF 1
ENDMDL
MODEL 3
REMARK VINA RESULT:      -5.9      2.623      4.614
REMARK  Name = 114705
REMARK  1 active torsions:
REMARK  status: ('A' for Active; 'I' for Inactive)
REMARK    1  A    between atoms: C_1  and  C_8
REMARK                            x       y       z     vdW  Elec       q    Type
REMARK                         _______ _______ _______ _____ _____    ______ ____
ROOT
ATOM      1  C   UNL     1      34.076 -21.731 -19.522  0.00  0.00    +0.007 C 
ATOM      2  C   UNL     1      32.994 -20.972 -19.972  0.00  0.00    -0.002 C 
ATOM      3  C   UNL     1      35.379 -21.315 -19.792  0.00  0.00    -0.002 C 
ATOM      4  C   UNL     1      33.216 -19.799 -20.692  0.00  0.00    -0.000 C 
ATOM      5  C   UNL     1      35.602 -20.140 -20.512  0.00  0.00    -0.000 C 
ATOM      6  C   UNL     1      34.520 -19.383 -20.962  0.00  0.00    -0.000 C 
ENDROOT
BRANCH   1   8
ATOM      7  O   UNL     1      34.554 -23.126 -17.526  0.00  0.00    -0.346 OA
ATOM      8  C   UNL     1      33.838 -22.985 -18.752  0.00  0.00    +0.167 C 
ATOM      9  C   UNL     1      33.138 -22.921 -17.433  0.00  0.00    +0.177 C 
ENDBRANCH   1   8
TORSDOF 1
ENDMDL
MODEL 4
REMARK VINA RESULT:      -5.7      2.574      3.686
REMARK  Name = 114705
REMARK  1 active torsions:
REMARK  status: ('A' for Active; 'I' for Inactive)
REMARK    1  A    between atoms: C_1  and  C_8
REMARK                            x       y       z     vdW  Elec       q    Type
REMARK                         _______ _______ _______ _____ _____    ______ ____
ROOT
ATOM      1  C   UNL     1      34.870 -17.470 -23.698  0.00  0.00    +0.007 C 
ATOM      2  C   UNL     1      35.066 -16.671 -22.571  0.00  0.00    -0.002 C 
ATOM      3  C   UNL     1      34.706 -18.847 -23.555  0.00  0.00    -0.002 C 
ATOM      4  C   UNL     1      35.098 -17.249 -21.303  0.00  0.00    -0.000 C 
ATOM      5  C   UNL     1      34.736 -19.426 -22.286  0.00  0.00    -0.000 C 
ATOM      6  C   UNL     1      34.932 -18.626 -21.160  0.00  0.00    -0.000 C 
ENDROOT
BRANCH   1   8
ATOM      7  O   UNL     1      33.753 -17.232 -25.901  0.00  0.00    -0.346 OA
ATOM      8  C   UNL     1      34.837 -16.852 -25.054  0.00  0.00    +0.167 C 
ATOM      9  C   UNL     1      33.748 -15.889 -25.400  0.00  0.00    +0.177 C 
ENDBRANCH   1   8
TORSDOF 1
ENDMDL
MODEL 5
REMARK VINA RESULT:      -5.7      2.567      3.680
REMARK  Name = 114705
REMARK  1 active torsions:
REMARK  status: ('A' for Active; 'I' for Inactive)
REMARK    1  A    between atoms: C_1  and  C_8
REMARK                            x       y       z     vdW  Elec       q    Type
REMARK                         _______ _______ _______ _____ _____    ______ ____
ROOT
ATOM      1  C   UNL     1      34.874 -17.461 -23.688  0.00  0.00    +0.007 C 
ATOM      2  C   UNL     1      34.721 -18.842 -23.558  0.00  0.00    -0.002 C 
ATOM      3  C   UNL     1      35.062 -16.671 -22.554  0.00  0.00    -0.002 C 
ATOM      4  C   UNL     1      34.753 -19.432 -22.295  0.00  0.00    -0.000 C 
ATOM      5  C   UNL     1      35.096 -17.261 -21.290  0.00  0.00    -0.000 C 
ATOM      6  C   UNL     1      34.941 -18.641 -21.161  0.00  0.00    -0.000 C 
ENDROOT
BRANCH   1   8
ATOM      7  O   UNL     1      33.760 -17.212 -25.891  0.00  0.00    -0.346 OA
ATOM      8  C   UNL     1      34.839 -16.831 -25.038  0.00  0.00    +0.167 C 
ATOM      9  C   UNL     1      33.742 -15.873 -25.378  0.00  0.00    +0.177 C 
ENDBRANCH   1   8
TORSDOF 1
ENDMDL
MODEL 6
REMARK VINA RESULT:      -5.7      1.269      1.576
REMARK  Name = 114705
REMARK  1 active torsions:
REMARK  status: ('A' for Active; 'I' for Inactive)
REMARK    1  A    between atoms: C_1  and  C_8
REMARK                            x       y       z     vdW  Elec       q    Type
REMARK                         _______ _______ _______ _____ _____    ______ ____
ROOT
ATOM      1  C   UNL     1      35.175 -19.293 -20.980  0.00  0.00    +0.007 C 
ATOM      2  C   UNL     1      36.401 -19.812 -20.562  0.00  0.00    -0.002 C 
ATOM      3  C   UNL     1      33.990 -19.943 -20.638  0.00  0.00    -0.002 C 
ATOM      4  C   UNL     1      36.441 -20.981 -19.803  0.00  0.00    -0.000 C 
ATOM      5  C   UNL     1      34.029 -21.112 -19.877  0.00  0.00    -0.000 C 
ATOM      6  C   UNL     1      35.255 -21.631 -19.460  0.00  0.00    -0.000 C 
ENDROOT
BRANCH   1   8
ATOM      7  O   UNL     1      33.907 -17.312 -21.774  0.00  0.00    -0.346 OA
ATOM      8  C   UNL     1      35.132 -18.043 -21.792  0.00  0.00    +0.167 C 
ATOM      9  C   UNL     1      35.028 -16.720 -21.105  0.00  0.00    +0.177 C 
ENDBRANCH   1   8
TORSDOF 1
ENDMDL
MODEL 7
REMARK VINA RESULT:      -5.7      1.699      4.551
REMARK  Name = 114705
REMARK  1 active torsions:
REMARK  status: ('A' for Active; 'I' for Inactive)
REMARK    1  A    between atoms: C_1  and  C_8
REMARK                            x       y       z     vdW  Elec       q    Type
REMARK                         _______ _______ _______ _____ _____    ______ ____
ROOT
ATOM      1  C   UNL     1      34.972 -18.533 -22.913  0.00  0.00    +0.007 C 
ATOM      2  C   UNL     1      34.616 -18.928 -24.204  0.00  0.00    -0.002 C 
ATOM      3  C   UNL     1      35.170 -17.183 -22.628  0.00  0.00    -0.002 C 
ATOM      4  C   UNL     1      34.459 -17.974 -25.208  0.00  0.00    -0.000 C 
ATOM      5  C   UNL     1      35.011 -16.226 -23.632  0.00  0.00    -0.000 C 
ATOM      6  C   UNL     1      34.656 -16.622 -24.922  0.00  0.00    -0.000 C 
ENDROOT
BRANCH   1   8
ATOM      7  O   UNL     1      35.249 -19.063 -20.505  0.00  0.00    -0.346 OA
ATOM      8  C   UNL     1      35.141 -19.554 -21.841  0.00  0.00    +0.167 C 
ATOM      9  C   UNL     1      34.047 -19.766 -20.845  0.00  0.00    +0.177 C 
ENDBRANCH   1   8
TORSDOF 1
ENDMDL
MODEL 8
REMARK VINA RESULT:      -5.6      1.696      4.511
REMARK  Name = 114705
REMARK  1 active torsions:
REMARK  status: ('A' for Active; 'I' for Inactive)
REMARK    1  A    between atoms: C_1  and  C_8
REMARK                            x       y       z     vdW  Elec       q    Type
REMARK                         _______ _______ _______ _____ _____    ______ ____
ROOT
ATOM      1  C   UNL     1      34.977 -18.539 -22.914  0.00  0.00    +0.007 C 
ATOM      2  C   UNL     1      35.179 -17.187 -22.633  0.00  0.00    -0.002 C 
ATOM      3  C   UNL     1      34.616 -18.937 -24.200  0.00  0.00    -0.002 C 
ATOM      4  C   UNL     1      35.018 -16.234 -23.638  0.00  0.00    -0.000 C 
ATOM      5  C   UNL     1      34.456 -17.984 -25.207  0.00  0.00    -0.000 C 
ATOM      6  C   UNL     1      34.657 -16.633 -24.925  0.00  0.00    -0.000 C 
ENDROOT
BRANCH   1   8
ATOM      7  O   UNL     1      35.251 -19.064 -20.504  0.00  0.00    -0.346 OA
ATOM      8  C   UNL     1      35.149 -19.558 -21.839  0.00  0.00    +0.167 C 
ATOM      9  C   UNL     1      34.053 -19.774 -20.845  0.00  0.00    +0.177 C 
ENDBRANCH   1   8
TORSDOF 1
ENDMDL
MODEL 9
REMARK VINA RESULT:      -5.6      2.053      3.826
REMARK  Name = 114705
REMARK  1 active torsions:
REMARK  status: ('A' for Active; 'I' for Inactive)
REMARK    1  A    between atoms: C_1  and  C_8
REMARK                            x       y       z     vdW  Elec       q    Type
REMARK                         _______ _______ _______ _____ _____    ______ ____
ROOT
ATOM      1  C   UNL     1      35.280 -21.028 -19.657  0.00  0.00    +0.007 C 
ATOM      2  C   UNL     1      34.017 -21.527 -19.335  0.00  0.00    -0.002 C 
ATOM      3  C   UNL     1      35.408 -20.019 -20.610  0.00  0.00    -0.002 C 
ATOM      4  C   UNL     1      32.884 -21.017 -19.967  0.00  0.00    -0.000 C 
ATOM      5  C   UNL     1      34.274 -19.506 -21.242  0.00  0.00    -0.000 C 
ATOM      6  C   UNL     1      33.012 -20.007 -20.920  0.00  0.00    -0.000 C 
ENDROOT
BRANCH   1   8
ATOM      7  O   UNL     1      37.078 -20.758 -17.968  0.00  0.00    -0.346 OA
ATOM      8  C   UNL     1      36.492 -21.574 -18.982  0.00  0.00    +0.167 C 
ATOM      9  C   UNL     1      36.423 -21.959 -17.540  0.00  0.00    +0.177 C 
ENDBRANCH   1   8
TORSDOF 1
ENDMDL
