MODEL 1
REMARK VINA RESULT:      -9.7      0.000      0.000
REMARK  Name = 42647299
REMARK  2 active torsions:
REMARK  status: ('A' for Active; 'I' for Inactive)
REMARK    1  A    between atoms: C_3  and  C_8
REMARK    2  A    between atoms: C_4  and  C_16
REMARK                            x       y       z     vdW  Elec       q    Type
REMARK                         _______ _______ _______ _____ _____    ______ ____
ROOT
ATOM      1  N   UNL     1      35.061 -18.093 -24.883  0.00  0.00    -0.236 N 
ATOM      2  N   UNL     1      34.770 -17.216 -25.860  0.00  0.00    -0.180 NA
ATOM      3  C   UNL     1      34.201 -16.400 -23.803  0.00  0.00    +0.035 C 
ATOM      4  C   UNL     1      34.740 -17.651 -23.633  0.00  0.00    +0.067 C 
ATOM      5  C   UNL     1      34.245 -16.184 -25.194  0.00  0.00    +0.119 C 
ATOM      6  H   UNL     1      35.468 -18.972 -25.055  0.00  0.00    +0.174 HD
ENDROOT
BRANCH   3   8
ATOM      7  F   UNL     1      32.341 -13.134 -19.700  0.00  0.00    -0.204 F 
ATOM      8  C   UNL     1      33.722 -15.557 -22.744  0.00  0.00    +0.003 C 
ATOM      9  C   UNL     1      32.770 -14.573 -23.014  0.00  0.00    +0.002 C 
ATOM     10  C   UNL     1      34.207 -15.722 -21.447  0.00  0.00    +0.002 C 
ATOM     11  C   UNL     1      32.304 -13.754 -21.984  0.00  0.00    +0.030 C 
ATOM     12  C   UNL     1      33.740 -14.903 -20.419  0.00  0.00    +0.030 C 
ATOM     13  C   UNL     1      32.789 -13.920 -20.687  0.00  0.00    +0.140 C 
ENDBRANCH   3   8
BRANCH   4  16
ATOM     14  F   UNL     1      33.218 -20.625 -20.187  0.00  0.00    -0.183 F 
ATOM     15  N   UNL     1      35.431 -19.994 -20.170  0.00  0.00    -0.216 NA
ATOM     16  C   UNL     1      34.975 -18.449 -22.454  0.00  0.00    +0.020 C 
ATOM     17  C   UNL     1      33.935 -19.173 -21.881  0.00  0.00    +0.051 C 
ATOM     18  C   UNL     1      36.244 -18.498 -21.885  0.00  0.00    +0.022 C 
ATOM     19  C   UNL     1      34.213 -19.923 -20.750  0.00  0.00    +0.222 C 
ATOM     20  C   UNL     1      36.417 -19.278 -20.755  0.00  0.00    +0.101 C 
ENDBRANCH   4  16
TORSDOF 2
ENDMDL
MODEL 2
REMARK VINA RESULT:      -9.6      8.041     10.487
REMARK  Name = 42647299
REMARK  2 active torsions:
REMARK  status: ('A' for Active; 'I' for Inactive)
REMARK    1  A    between atoms: C_3  and  C_8
REMARK    2  A    between atoms: C_4  and  C_16
REMARK                            x       y       z     vdW  Elec       q    Type
REMARK                         _______ _______ _______ _____ _____    ______ ____
ROOT
ATOM      1  N   UNL     1      33.827 -24.728 -13.427  0.00  0.00    -0.236 N 
ATOM      2  N   UNL     1      32.706 -23.996 -13.547  0.00  0.00    -0.180 NA
ATOM      3  C   UNL     1      34.208 -23.503 -15.196  0.00  0.00    +0.035 C 
ATOM      4  C   UNL     1      34.758 -24.470 -14.391  0.00  0.00    +0.067 C 
ATOM      5  C   UNL     1      32.945 -23.250 -14.629  0.00  0.00    +0.119 C 
ATOM      6  H   UNL     1      33.963 -25.388 -12.711  0.00  0.00    +0.174 HD
ENDROOT
BRANCH   3   8
ATOM      7  F   UNL     1      36.673 -21.272 -19.658  0.00  0.00    -0.204 F 
ATOM      8  C   UNL     1      34.845 -22.928 -16.347  0.00  0.00    +0.003 C 
ATOM      9  C   UNL     1      34.165 -22.873 -17.564  0.00  0.00    +0.002 C 
ATOM     10  C   UNL     1      36.141 -22.423 -16.248  0.00  0.00    +0.002 C 
ATOM     11  C   UNL     1      34.784 -22.314 -18.683  0.00  0.00    +0.030 C 
ATOM     12  C   UNL     1      36.759 -21.864 -17.367  0.00  0.00    +0.030 C 
ATOM     13  C   UNL     1      36.080 -21.809 -18.584  0.00  0.00    +0.140 C 
ENDBRANCH   3   8
BRANCH   4  16
ATOM     14  F   UNL     1      39.333 -24.947 -13.021  0.00  0.00    -0.183 F 
ATOM     15  N   UNL     1      38.487 -26.481 -14.514  0.00  0.00    -0.216 NA
ATOM     16  C   UNL     1      36.027 -25.155 -14.433  0.00  0.00    +0.020 C 
ATOM     17  C   UNL     1      37.096 -24.692 -13.674  0.00  0.00    +0.051 C 
ATOM     18  C   UNL     1      36.187 -26.281 -15.233  0.00  0.00    +0.022 C 
ATOM     19  C   UNL     1      38.294 -25.384 -13.749  0.00  0.00    +0.222 C 
ATOM     20  C   UNL     1      37.425 -26.902 -15.238  0.00  0.00    +0.101 C 
ENDBRANCH   4  16
TORSDOF 2
ENDMDL
MODEL 3
REMARK VINA RESULT:      -9.6      1.785      4.962
REMARK  Name = 42647299
REMARK  2 active torsions:
REMARK  status: ('A' for Active; 'I' for Inactive)
REMARK    1  A    between atoms: C_3  and  C_8
REMARK    2  A    between atoms: C_4  and  C_16
REMARK                            x       y       z     vdW  Elec       q    Type
REMARK                         _______ _______ _______ _____ _____    ______ ____
ROOT
ATOM      1  N   UNL     1      34.161 -16.169 -24.953  0.00  0.00    -0.236 N 
ATOM      2  N   UNL     1      34.542 -17.116 -25.829  0.00  0.00    -0.180 NA
ATOM      3  C   UNL     1      34.777 -17.828 -23.671  0.00  0.00    +0.035 C 
ATOM      4  C   UNL     1      34.282 -16.547 -23.648  0.00  0.00    +0.067 C 
ATOM      5  C   UNL     1      34.917 -18.126 -25.040  0.00  0.00    +0.119 C 
ATOM      6  H   UNL     1      33.827 -15.286 -25.229  0.00  0.00    +0.174 HD
ENDROOT
BRANCH   3   8
ATOM      7  F   UNL     1      35.872 -20.916 -19.174  0.00  0.00    -0.204 F 
ATOM      8  C   UNL     1      35.060 -18.624 -22.510  0.00  0.00    +0.003 C 
ATOM      9  C   UNL     1      34.044 -19.373 -21.914  0.00  0.00    +0.002 C 
ATOM     10  C   UNL     1      36.349 -18.650 -21.979  0.00  0.00    +0.002 C 
ATOM     11  C   UNL     1      34.320 -20.147 -20.787  0.00  0.00    +0.030 C 
ATOM     12  C   UNL     1      36.624 -19.424 -20.851  0.00  0.00    +0.030 C 
ATOM     13  C   UNL     1      35.609 -20.173 -20.256  0.00  0.00    +0.140 C 
ENDBRANCH   3   8
BRANCH   4  16
ATOM     14  F   UNL     1      31.610 -13.022 -21.784  0.00  0.00    -0.183 F 
ATOM     15  N   UNL     1      33.232 -13.967 -20.453  0.00  0.00    -0.216 NA
ATOM     16  C   UNL     1      33.924 -15.669 -22.560  0.00  0.00    +0.020 C 
ATOM     17  C   UNL     1      32.900 -14.742 -22.718  0.00  0.00    +0.051 C 
ATOM     18  C   UNL     1      34.603 -15.746 -21.348  0.00  0.00    +0.022 C 
ATOM     19  C   UNL     1      32.595 -13.921 -21.644  0.00  0.00    +0.222 C 
ATOM     20  C   UNL     1      34.222 -14.881 -20.336  0.00  0.00    +0.101 C 
ENDBRANCH   4  16
TORSDOF 2
ENDMDL
MODEL 4
REMARK VINA RESULT:      -9.1      3.787      5.266
REMARK  Name = 42647299
REMARK  2 active torsions:
REMARK  status: ('A' for Active; 'I' for Inactive)
REMARK    1  A    between atoms: C_3  and  C_8
REMARK    2  A    between atoms: C_4  and  C_16
REMARK                            x       y       z     vdW  Elec       q    Type
REMARK                         _______ _______ _______ _____ _____    ______ ____
ROOT
ATOM      1  N   UNL     1      32.999 -14.862 -25.662  0.00  0.00    -0.236 N 
ATOM      2  N   UNL     1      32.891 -14.423 -26.928  0.00  0.00    -0.180 NA
ATOM      3  C   UNL     1      33.496 -12.740 -25.507  0.00  0.00    +0.035 C 
ATOM      4  C   UNL     1      33.360 -13.893 -24.772  0.00  0.00    +0.067 C 
ATOM      5  C   UNL     1      33.196 -13.127 -26.827  0.00  0.00    +0.119 C 
ATOM      6  H   UNL     1      32.833 -15.796 -25.402  0.00  0.00    +0.174 HD
ENDROOT
BRANCH   3   8
ATOM      7  F   UNL     1      34.943  -7.781 -23.439  0.00  0.00    -0.204 F 
ATOM      8  C   UNL     1      33.870 -11.461 -24.972  0.00  0.00    +0.003 C 
ATOM      9  C   UNL     1      35.012 -10.815 -25.445  0.00  0.00    +0.002 C 
ATOM     10  C   UNL     1      33.089 -10.864 -23.982  0.00  0.00    +0.002 C 
ATOM     11  C   UNL     1      35.375  -9.572 -24.926  0.00  0.00    +0.030 C 
ATOM     12  C   UNL     1      33.452  -9.620 -23.464  0.00  0.00    +0.030 C 
ATOM     13  C   UNL     1      34.595  -8.975 -23.936  0.00  0.00    +0.140 C 
ENDBRANCH   3   8
BRANCH   4  16
ATOM     14  F   UNL     1      32.013 -13.387 -20.193  0.00  0.00    -0.183 F 
ATOM     15  N   UNL     1      33.851 -14.700 -20.641  0.00  0.00    -0.216 NA
ATOM     16  C   UNL     1      33.526 -14.168 -23.366  0.00  0.00    +0.020 C 
ATOM     17  C   UNL     1      32.649 -13.618 -22.438  0.00  0.00    +0.051 C 
ATOM     18  C   UNL     1      34.566 -14.984 -22.932  0.00  0.00    +0.022 C 
ATOM     19  C   UNL     1      32.853 -13.912 -21.099  0.00  0.00    +0.222 C 
ATOM     20  C   UNL     1      34.683 -15.216 -21.572  0.00  0.00    +0.101 C 
ENDBRANCH   4  16
TORSDOF 2
ENDMDL
MODEL 5
REMARK VINA RESULT:      -9.0      2.406      3.336
REMARK  Name = 42647299
REMARK  2 active torsions:
REMARK  status: ('A' for Active; 'I' for Inactive)
REMARK    1  A    between atoms: C_3  and  C_8
REMARK    2  A    between atoms: C_4  and  C_16
REMARK                            x       y       z     vdW  Elec       q    Type
REMARK                         _______ _______ _______ _____ _____    ______ ____
ROOT
ATOM      1  N   UNL     1      33.928 -16.246 -25.205  0.00  0.00    -0.236 N 
ATOM      2  N   UNL     1      33.490 -15.777 -26.386  0.00  0.00    -0.180 NA
ATOM      3  C   UNL     1      33.314 -14.201 -24.742  0.00  0.00    +0.035 C 
ATOM      4  C   UNL     1      33.843 -15.340 -24.188  0.00  0.00    +0.067 C 
ATOM      5  C   UNL     1      33.117 -14.528 -26.097  0.00  0.00    +0.119 C 
ATOM      6  H   UNL     1      34.275 -17.159 -25.085  0.00  0.00    +0.174 HD
ENDROOT
BRANCH   3   8
ATOM      7  F   UNL     1      32.295  -9.476 -21.985  0.00  0.00    -0.204 F 
ATOM      8  C   UNL     1      33.052 -12.982 -24.030  0.00  0.00    +0.003 C 
ATOM      9  C   UNL     1      33.777 -11.829 -24.331  0.00  0.00    +0.002 C 
ATOM     10  C   UNL     1      32.071 -12.951 -23.039  0.00  0.00    +0.002 C 
ATOM     11  C   UNL     1      33.521 -10.645 -23.639  0.00  0.00    +0.030 C 
ATOM     12  C   UNL     1      31.815 -11.766 -22.348  0.00  0.00    +0.030 C 
ATOM     13  C   UNL     1      32.540 -10.613 -22.648  0.00  0.00    +0.140 C 
ENDBRANCH   3   8
BRANCH   4  16
ATOM     14  F   UNL     1      35.430 -18.446 -20.890  0.00  0.00    -0.183 F 
ATOM     15  N   UNL     1      35.076 -16.267 -20.240  0.00  0.00    -0.216 NA
ATOM     16  C   UNL     1      34.263 -15.656 -22.844  0.00  0.00    +0.020 C 
ATOM     17  C   UNL     1      34.656 -16.950 -22.520  0.00  0.00    +0.051 C 
ATOM     18  C   UNL     1      34.276 -14.666 -21.866  0.00  0.00    +0.022 C 
ATOM     19  C   UNL     1      35.050 -17.201 -21.215  0.00  0.00    +0.222 C 
ATOM     20  C   UNL     1      34.687 -15.020 -20.592  0.00  0.00    +0.101 C 
ENDBRANCH   4  16
TORSDOF 2
ENDMDL
MODEL 6
REMARK VINA RESULT:      -8.9      3.814      6.570
REMARK  Name = 42647299
REMARK  2 active torsions:
REMARK  status: ('A' for Active; 'I' for Inactive)
REMARK    1  A    between atoms: C_3  and  C_8
REMARK    2  A    between atoms: C_4  and  C_16
REMARK                            x       y       z     vdW  Elec       q    Type
REMARK                         _______ _______ _______ _____ _____    ______ ____
ROOT
ATOM      1  N   UNL     1      33.494 -12.685 -26.956  0.00  0.00    -0.236 N 
ATOM      2  N   UNL     1      33.218 -13.927 -27.391  0.00  0.00    -0.180 NA
ATOM      3  C   UNL     1      33.409 -13.860 -25.116  0.00  0.00    +0.035 C 
ATOM      4  C   UNL     1      33.618 -12.592 -25.600  0.00  0.00    +0.067 C 
ATOM      5  C   UNL     1      33.168 -14.639 -26.263  0.00  0.00    +0.119 C 
ATOM      6  H   UNL     1      33.598 -11.915 -27.559  0.00  0.00    +0.174 HD
ENDROOT
BRANCH   3   8
ATOM      7  F   UNL     1      33.540 -15.292 -19.740  0.00  0.00    -0.204 F 
ATOM      8  C   UNL     1      33.444 -14.229 -23.729  0.00  0.00    +0.003 C 
ATOM      9  C   UNL     1      32.380 -13.892 -22.891  0.00  0.00    +0.002 C 
ATOM     10  C   UNL     1      34.540 -14.926 -23.219  0.00  0.00    +0.002 C 
ATOM     11  C   UNL     1      32.414 -14.251 -21.543  0.00  0.00    +0.030 C 
ATOM     12  C   UNL     1      34.572 -15.285 -21.871  0.00  0.00    +0.030 C 
ATOM     13  C   UNL     1      33.509 -14.947 -21.034  0.00  0.00    +0.140 C 
ENDBRANCH   3   8
BRANCH   4  16
ATOM     14  F   UNL     1      32.578  -9.167 -22.403  0.00  0.00    -0.183 F 
ATOM     15  N   UNL     1      34.486  -8.921 -23.668  0.00  0.00    -0.216 NA
ATOM     16  C   UNL     1      33.913 -11.343 -24.942  0.00  0.00    +0.020 C 
ATOM     17  C   UNL     1      33.063 -10.854 -23.956  0.00  0.00    +0.051 C 
ATOM     18  C   UNL     1      35.050 -10.621 -25.291  0.00  0.00    +0.022 C 
ATOM     19  C   UNL     1      33.391  -9.649 -23.355  0.00  0.00    +0.222 C 
ATOM     20  C   UNL     1      35.289  -9.428 -24.630  0.00  0.00    +0.101 C 
ENDBRANCH   4  16
TORSDOF 2
ENDMDL
MODEL 7
REMARK VINA RESULT:      -8.8      7.978     10.341
REMARK  Name = 42647299
REMARK  2 active torsions:
REMARK  status: ('A' for Active; 'I' for Inactive)
REMARK    1  A    between atoms: C_3  and  C_8
REMARK    2  A    between atoms: C_4  and  C_16
REMARK                            x       y       z     vdW  Elec       q    Type
REMARK                         _______ _______ _______ _____ _____    ______ ____
ROOT
ATOM      1  N   UNL     1      32.090 -22.663 -17.920  0.00  0.00    -0.236 N 
ATOM      2  N   UNL     1      32.961 -22.319 -18.885  0.00  0.00    -0.180 NA
ATOM      3  C   UNL     1      34.036 -23.064 -17.012  0.00  0.00    +0.035 C 
ATOM      4  C   UNL     1      32.683 -23.116 -16.778  0.00  0.00    +0.067 C 
ATOM      5  C   UNL     1      34.147 -22.567 -18.324  0.00  0.00    +0.119 C 
ATOM      6  H   UNL     1      31.114 -22.593 -18.028  0.00  0.00    +0.174 HD
ENDROOT
BRANCH   3   8
ATOM      7  F   UNL     1      37.968 -24.576 -13.376  0.00  0.00    -0.204 F 
ATOM      8  C   UNL     1      35.050 -23.453 -16.073  0.00  0.00    +0.003 C 
ATOM      9  C   UNL     1      35.013 -24.722 -15.493  0.00  0.00    +0.002 C 
ATOM     10  C   UNL     1      36.073 -22.565 -15.743  0.00  0.00    +0.002 C 
ATOM     11  C   UNL     1      35.999 -25.100 -14.581  0.00  0.00    +0.030 C 
ATOM     12  C   UNL     1      37.059 -22.944 -14.832  0.00  0.00    +0.030 C 
ATOM     13  C   UNL     1      37.022 -24.211 -14.251  0.00  0.00    +0.140 C 
ENDBRANCH   3   8
BRANCH   4  16
ATOM     14  F   UNL     1      29.417 -25.950 -14.697  0.00  0.00    -0.183 F 
ATOM     15  N   UNL     1      30.430 -24.338 -13.403  0.00  0.00    -0.216 NA
ATOM     16  C   UNL     1      31.917 -23.533 -15.630  0.00  0.00    +0.020 C 
ATOM     17  C   UNL     1      31.009 -24.580 -15.738  0.00  0.00    +0.051 C 
ATOM     18  C   UNL     1      32.082 -22.887 -14.408  0.00  0.00    +0.022 C 
ATOM     19  C   UNL     1      30.296 -24.941 -14.605  0.00  0.00    +0.222 C 
ATOM     20  C   UNL     1      31.322 -23.324 -13.336  0.00  0.00    +0.101 C 
ENDBRANCH   4  16
TORSDOF 2
ENDMDL
MODEL 8
REMARK VINA RESULT:      -8.8      7.795     10.220
REMARK  Name = 42647299
REMARK  2 active torsions:
REMARK  status: ('A' for Active; 'I' for Inactive)
REMARK    1  A    between atoms: C_3  and  C_8
REMARK    2  A    between atoms: C_4  and  C_16
REMARK                            x       y       z     vdW  Elec       q    Type
REMARK                         _______ _______ _______ _____ _____    ______ ____
ROOT
ATOM      1  N   UNL     1      33.262 -24.624 -13.902  0.00  0.00    -0.236 N 
ATOM      2  N   UNL     1      32.080 -24.266 -14.433  0.00  0.00    -0.180 NA
ATOM      3  C   UNL     1      33.828 -23.529 -15.706  0.00  0.00    +0.035 C 
ATOM      4  C   UNL     1      34.340 -24.207 -14.627  0.00  0.00    +0.067 C 
ATOM      5  C   UNL     1      32.432 -23.598 -15.534  0.00  0.00    +0.119 C 
ATOM      6  H   UNL     1      33.342 -25.138 -13.067  0.00  0.00    +0.174 HD
ENDROOT
BRANCH   3   8
ATOM      7  F   UNL     1      36.866 -21.154 -19.718  0.00  0.00    -0.204 F 
ATOM      8  C   UNL     1      34.611 -22.915 -16.741  0.00  0.00    +0.003 C 
ATOM      9  C   UNL     1      35.923 -22.519 -16.480  0.00  0.00    +0.002 C 
ATOM     10  C   UNL     1      34.061 -22.717 -18.007  0.00  0.00    +0.002 C 
ATOM     11  C   UNL     1      36.684 -21.923 -17.486  0.00  0.00    +0.030 C 
ATOM     12  C   UNL     1      34.823 -22.122 -19.013  0.00  0.00    +0.030 C 
ATOM     13  C   UNL     1      36.134 -21.725 -18.752  0.00  0.00    +0.140 C 
ENDBRANCH   3   8
BRANCH   4  16
ATOM     14  F   UNL     1      38.355 -26.823 -14.891  0.00  0.00    -0.183 F 
ATOM     15  N   UNL     1      38.318 -25.047 -13.428  0.00  0.00    -0.216 NA
ATOM     16  C   UNL     1      35.694 -24.493 -14.219  0.00  0.00    +0.020 C 
ATOM     17  C   UNL     1      36.382 -25.562 -14.782  0.00  0.00    +0.051 C 
ATOM     18  C   UNL     1      36.317 -23.700 -13.260  0.00  0.00    +0.022 C 
ATOM     19  C   UNL     1      37.681 -25.794 -14.356  0.00  0.00    +0.222 C 
ATOM     20  C   UNL     1      37.617 -24.016 -12.903  0.00  0.00    +0.101 C 
ENDBRANCH   4  16
TORSDOF 2
ENDMDL
MODEL 9
REMARK VINA RESULT:      -8.8      7.320     11.246
REMARK  Name = 42647299
REMARK  2 active torsions:
REMARK  status: ('A' for Active; 'I' for Inactive)
REMARK    1  A    between atoms: C_3  and  C_8
REMARK    2  A    between atoms: C_4  and  C_16
REMARK                            x       y       z     vdW  Elec       q    Type
REMARK                         _______ _______ _______ _____ _____    ______ ____
ROOT
ATOM      1  N   UNL     1      33.023 -23.129 -14.574  0.00  0.00    -0.236 N 
ATOM      2  N   UNL     1      32.743 -23.670 -13.375  0.00  0.00    -0.180 NA
ATOM      3  C   UNL     1      34.843 -24.231 -14.077  0.00  0.00    +0.035 C 
ATOM      4  C   UNL     1      34.269 -23.435 -15.038  0.00  0.00    +0.067 C 
ATOM      5  C   UNL     1      33.858 -24.342 -13.078  0.00  0.00    +0.119 C 
ATOM      6  H   UNL     1      32.388 -22.566 -15.070  0.00  0.00    +0.174 HD
ENDROOT
BRANCH   3   8
ATOM      7  F   UNL     1      39.965 -26.390 -14.352  0.00  0.00    -0.204 F 
ATOM      8  C   UNL     1      36.164 -24.788 -14.150  0.00  0.00    +0.003 C 
ATOM      9  C   UNL     1      37.200 -24.223 -13.404  0.00  0.00    +0.002 C 
ATOM     10  C   UNL     1      36.412 -25.894 -14.963  0.00  0.00    +0.002 C 
ATOM     11  C   UNL     1      38.484 -24.765 -13.474  0.00  0.00    +0.030 C 
ATOM     12  C   UNL     1      37.697 -26.435 -15.031  0.00  0.00    +0.030 C 
ATOM     13  C   UNL     1      38.732 -25.870 -14.287  0.00  0.00    +0.140 C 
ENDBRANCH   3   8
BRANCH   4  16
ATOM     14  F   UNL     1      33.677 -22.561 -19.720  0.00  0.00    -0.183 F 
ATOM     15  N   UNL     1      35.697 -22.008 -18.765  0.00  0.00    -0.216 NA
ATOM     16  C   UNL     1      34.754 -22.949 -16.306  0.00  0.00    +0.020 C 
ATOM     17  C   UNL     1      33.940 -22.998 -17.432  0.00  0.00    +0.051 C 
ATOM     18  C   UNL     1      36.041 -22.430 -16.409  0.00  0.00    +0.022 C 
ATOM     19  C   UNL     1      34.453 -22.519 -18.627  0.00  0.00    +0.222 C 
ATOM     20  C   UNL     1      36.460 -21.977 -17.649  0.00  0.00    +0.101 C 
ENDBRANCH   4  16
TORSDOF 2
ENDMDL
