MODEL 1
REMARK VINA RESULT:      -8.0      0.000      0.000
REMARK  Name = 12192007
REMARK  4 active torsions:
REMARK  status: ('A' for Active; 'I' for Inactive)
REMARK    1  A    between atoms: C_1  and  CA_10
REMARK    2  A    between atoms: CA_10  and  N_11
REMARK    3  A    between atoms: CA_10  and  C_16
REMARK    4  A    between atoms: C_16  and  O_17
REMARK                            x       y       z     vdW  Elec       q    Type
REMARK                         _______ _______ _______ _____ _____    ______ ____
ROOT
ATOM      1  C   UNL     1      34.531 -18.899 -21.978  0.00  0.00    -0.001 C 
ATOM      2  C   UNL     1      35.805 -19.105 -21.131  0.00  0.00    +0.025 C 
ATOM      3  C   UNL     1      33.351 -19.404 -21.119  0.00  0.00    +0.025 C 
ATOM      4  C   UNL     1      35.411 -20.274 -20.284  0.00  0.00    -0.026 C 
ATOM      5  C   UNL     1      34.022 -20.443 -20.277  0.00  0.00    -0.026 C 
ATOM      6  C   UNL     1      36.235 -21.101 -19.539  0.00  0.00    -0.005 C 
ATOM      7  C   UNL     1      33.429 -21.443 -19.525  0.00  0.00    -0.005 C 
ATOM      8  C   UNL     1      35.646 -22.118 -18.786  0.00  0.00    -0.000 C 
ATOM      9  C   UNL     1      34.252 -22.289 -18.779  0.00  0.00    -0.000 C 
ENDROOT
BRANCH   1  10
ATOM     10  CA  UNL     1      34.353 -17.457 -22.426  0.00  0.00    +0.036 C 
BRANCH  10  11
ATOM     11  N   UNL     1      34.997 -16.570 -21.465  0.00  0.00    +0.389 N 
ATOM     12  H1  UNL     1      35.619 -17.112 -20.866  0.00  0.00    -0.088 HD
ATOM     13  H2  UNL     1      34.286 -16.115 -20.892  0.00  0.00    -0.088 HD
ATOM     14  H3  UNL     1      35.536 -15.862 -21.963  0.00  0.00    -0.088 HD
ENDBRANCH  10  11
BRANCH  10  16
ATOM     15  OXT UNL     1      34.855 -17.952 -24.764  0.00  0.00    -0.253 OA
ATOM     16  C   UNL     1      34.993 -17.243 -23.777  0.00  0.00    +0.293 C 
BRANCH  16  17
ATOM     17  O   UNL     1      35.751 -16.114 -23.772  0.00  0.00    -0.482 OA
ATOM     18  H   UNL     1      36.137 -15.806 -24.569  0.00  0.00    +0.295 HD
ENDBRANCH  16  17
ENDBRANCH  10  16
ENDBRANCH   1  10
TORSDOF 4
ENDMDL
MODEL 2
REMARK VINA RESULT:      -8.0      1.263      2.160
REMARK  Name = 12192007
REMARK  4 active torsions:
REMARK  status: ('A' for Active; 'I' for Inactive)
REMARK    1  A    between atoms: C_1  and  CA_10
REMARK    2  A    between atoms: CA_10  and  N_11
REMARK    3  A    between atoms: CA_10  and  C_16
REMARK    4  A    between atoms: C_16  and  O_17
REMARK                            x       y       z     vdW  Elec       q    Type
REMARK                         _______ _______ _______ _____ _____    ______ ____
ROOT
ATOM      1  C   UNL     1      35.315 -18.642 -21.288  0.00  0.00    -0.001 C 
ATOM      2  C   UNL     1      33.954 -19.364 -21.383  0.00  0.00    +0.025 C 
ATOM      3  C   UNL     1      36.335 -19.697 -20.808  0.00  0.00    +0.025 C 
ATOM      4  C   UNL     1      34.111 -20.427 -20.341  0.00  0.00    -0.026 C 
ATOM      5  C   UNL     1      35.458 -20.616 -20.016  0.00  0.00    -0.026 C 
ATOM      6  C   UNL     1      33.120 -21.200 -19.760  0.00  0.00    -0.005 C 
ATOM      7  C   UNL     1      35.843 -21.582 -19.102  0.00  0.00    -0.005 C 
ATOM      8  C   UNL     1      33.498 -22.169 -18.828  0.00  0.00    -0.000 C 
ATOM      9  C   UNL     1      34.850 -22.359 -18.500  0.00  0.00    -0.000 C 
ENDROOT
BRANCH   1  10
ATOM     10  CA  UNL     1      35.723 -17.989 -22.599  0.00  0.00    +0.036 C 
BRANCH  10  11
ATOM     11  N   UNL     1      35.111 -18.708 -23.709  0.00  0.00    +0.389 N 
ATOM     12  H1  UNL     1      34.448 -18.096 -24.187  0.00  0.00    -0.088 HD
ATOM     13  H2  UNL     1      34.619 -19.528 -23.353  0.00  0.00    -0.088 HD
ATOM     14  H3  UNL     1      35.834 -19.004 -24.365  0.00  0.00    -0.088 HD
ENDBRANCH  10  11
BRANCH  10  16
ATOM     15  OXT UNL     1      34.671 -15.957 -21.748  0.00  0.00    -0.253 OA
ATOM     16  C   UNL     1      35.252 -16.554 -22.642  0.00  0.00    +0.293 C 
BRANCH  16  17
ATOM     17  O   UNL     1      35.584 -15.979 -23.829  0.00  0.00    -0.482 OA
ATOM     18  H   UNL     1      36.348 -16.265 -24.290  0.00  0.00    +0.295 HD
ENDBRANCH  16  17
ENDBRANCH  10  16
ENDBRANCH   1  10
TORSDOF 4
ENDMDL
MODEL 3
REMARK VINA RESULT:      -7.4      2.920      5.509
REMARK  Name = 12192007
REMARK  4 active torsions:
REMARK  status: ('A' for Active; 'I' for Inactive)
REMARK    1  A    between atoms: C_1  and  CA_10
REMARK    2  A    between atoms: CA_10  and  N_11
REMARK    3  A    between atoms: CA_10  and  C_16
REMARK    4  A    between atoms: C_16  and  O_17
REMARK                            x       y       z     vdW  Elec       q    Type
REMARK                         _______ _______ _______ _____ _____    ______ ____
ROOT
ATOM      1  C   UNL     1      34.738 -19.436 -21.538  0.00  0.00    -0.001 C 
ATOM      2  C   UNL     1      35.096 -17.988 -21.139  0.00  0.00    +0.025 C 
ATOM      3  C   UNL     1      34.997 -19.547 -23.056  0.00  0.00    +0.025 C 
ATOM      4  C   UNL     1      34.819 -17.254 -22.414  0.00  0.00    -0.026 C 
ATOM      5  C   UNL     1      34.763 -18.137 -23.499  0.00  0.00    -0.026 C 
ATOM      6  C   UNL     1      34.671 -15.889 -22.595  0.00  0.00    -0.005 C 
ATOM      7  C   UNL     1      34.558 -17.672 -24.787  0.00  0.00    -0.005 C 
ATOM      8  C   UNL     1      34.452 -15.413 -23.889  0.00  0.00    -0.000 C 
ATOM      9  C   UNL     1      34.396 -16.298 -24.978  0.00  0.00    -0.000 C 
ENDROOT
BRANCH   1  10
ATOM     10  CA  UNL     1      35.511 -20.471 -20.735  0.00  0.00    +0.036 C 
BRANCH  10  11
ATOM     11  N   UNL     1      36.533 -19.802 -19.941  0.00  0.00    +0.389 N 
ATOM     12  H1  UNL     1      36.778 -18.914 -20.380  0.00  0.00    -0.088 HD
ATOM     13  H2  UNL     1      37.363 -20.392 -19.886  0.00  0.00    -0.088 HD
ATOM     14  H3  UNL     1      36.176 -19.629 -19.001  0.00  0.00    -0.088 HD
ENDBRANCH  10  11
BRANCH  10  16
ATOM     15  OXT UNL     1      33.420 -20.926 -19.559  0.00  0.00    -0.253 OA
ATOM     16  C   UNL     1      34.585 -21.210 -19.798  0.00  0.00    +0.293 C 
BRANCH  16  17
ATOM     17  O   UNL     1      35.219 -22.280 -19.249  0.00  0.00    -0.482 OA
ATOM     18  H   UNL     1      35.065 -23.140 -19.588  0.00  0.00    +0.295 HD
ENDBRANCH  16  17
ENDBRANCH  10  16
ENDBRANCH   1  10
TORSDOF 4
ENDMDL
MODEL 4
REMARK VINA RESULT:      -7.2      6.427      8.169
REMARK  Name = 12192007
REMARK  4 active torsions:
REMARK  status: ('A' for Active; 'I' for Inactive)
REMARK    1  A    between atoms: C_1  and  CA_10
REMARK    2  A    between atoms: CA_10  and  N_11
REMARK    3  A    between atoms: CA_10  and  C_16
REMARK    4  A    between atoms: C_16  and  O_17
REMARK                            x       y       z     vdW  Elec       q    Type
REMARK                         _______ _______ _______ _____ _____    ______ ____
ROOT
ATOM      1  C   UNL     1      34.305 -23.292 -15.546  0.00  0.00    -0.001 C 
ATOM      2  C   UNL     1      35.795 -23.075 -15.887  0.00  0.00    +0.025 C 
ATOM      3  C   UNL     1      33.565 -23.426 -16.894  0.00  0.00    +0.025 C 
ATOM      4  C   UNL     1      35.698 -22.405 -17.221  0.00  0.00    -0.026 C 
ATOM      5  C   UNL     1      34.436 -22.605 -17.792  0.00  0.00    -0.026 C 
ATOM      6  C   UNL     1      36.684 -21.705 -17.896  0.00  0.00    -0.005 C 
ATOM      7  C   UNL     1      34.134 -22.107 -19.048  0.00  0.00    -0.005 C 
ATOM      8  C   UNL     1      36.385 -21.191 -19.159  0.00  0.00    -0.000 C 
ATOM      9  C   UNL     1      35.118 -21.390 -19.731  0.00  0.00    -0.000 C 
ENDROOT
BRANCH   1  10
ATOM     10  CA  UNL     1      34.082 -24.488 -14.634  0.00  0.00    +0.036 C 
BRANCH  10  11
ATOM     11  N   UNL     1      35.232 -25.379 -14.716  0.00  0.00    +0.389 N 
ATOM     12  H1  UNL     1      35.979 -25.027 -14.116  0.00  0.00    -0.088 HD
ATOM     13  H2  UNL     1      35.563 -25.420 -15.680  0.00  0.00    -0.088 HD
ATOM     14  H3  UNL     1      34.962 -26.314 -14.410  0.00  0.00    -0.088 HD
ENDBRANCH  10  11
BRANCH  10  16
ATOM     15  OXT UNL     1      34.662 -24.332 -12.267  0.00  0.00    -0.253 OA
ATOM     16  C   UNL     1      33.929 -24.037 -13.201  0.00  0.00    +0.293 C 
BRANCH  16  17
ATOM     17  O   UNL     1      32.853 -23.217 -13.071  0.00  0.00    -0.482 OA
ATOM     18  H   UNL     1      32.386 -22.933 -13.834  0.00  0.00    +0.295 HD
ENDBRANCH  16  17
ENDBRANCH  10  16
ENDBRANCH   1  10
TORSDOF 4
ENDMDL
MODEL 5
REMARK VINA RESULT:      -7.1      3.716      5.328
REMARK  Name = 12192007
REMARK  4 active torsions:
REMARK  status: ('A' for Active; 'I' for Inactive)
REMARK    1  A    between atoms: C_1  and  CA_10
REMARK    2  A    between atoms: CA_10  and  N_11
REMARK    3  A    between atoms: CA_10  and  C_16
REMARK    4  A    between atoms: C_16  and  O_17
REMARK                            x       y       z     vdW  Elec       q    Type
REMARK                         _______ _______ _______ _____ _____    ______ ____
ROOT
ATOM      1  C   UNL     1      33.939 -14.080 -23.250  0.00  0.00    -0.001 C 
ATOM      2  C   UNL     1      33.873 -14.654 -21.818  0.00  0.00    +0.025 C 
ATOM      3  C   UNL     1      33.913 -15.291 -24.207  0.00  0.00    +0.025 C 
ATOM      4  C   UNL     1      34.520 -15.990 -22.006  0.00  0.00    -0.026 C 
ATOM      5  C   UNL     1      34.542 -16.351 -23.358  0.00  0.00    -0.026 C 
ATOM      6  C   UNL     1      35.013 -16.841 -21.031  0.00  0.00    -0.005 C 
ATOM      7  C   UNL     1      35.059 -17.570 -23.762  0.00  0.00    -0.005 C 
ATOM      8  C   UNL     1      35.546 -18.068 -21.431  0.00  0.00    -0.000 C 
ATOM      9  C   UNL     1      35.569 -18.430 -22.787  0.00  0.00    -0.000 C 
ENDROOT
BRANCH   1  10
ATOM     10  CA  UNL     1      32.824 -13.086 -23.534  0.00  0.00    +0.036 C 
BRANCH  10  11
ATOM     11  N   UNL     1      31.892 -13.072 -22.413  0.00  0.00    +0.389 N 
ATOM     12  H1  UNL     1      31.072 -13.633 -22.645  0.00  0.00    -0.088 HD
ATOM     13  H2  UNL     1      31.603 -12.113 -22.222  0.00  0.00    -0.088 HD
ATOM     14  H3  UNL     1      32.348 -13.460 -21.587  0.00  0.00    -0.088 HD
ENDBRANCH  10  11
BRANCH  10  16
ATOM     15  OXT UNL     1      32.939 -10.668 -23.216  0.00  0.00    -0.253 OA
ATOM     16  C   UNL     1      33.387 -11.695 -23.704  0.00  0.00    +0.293 C 
BRANCH  16  17
ATOM     17  O   UNL     1      34.507 -11.726 -24.474  0.00  0.00    -0.482 OA
ATOM     18  H   UNL     1      34.850 -12.547 -24.769  0.00  0.00    +0.295 HD
ENDBRANCH  16  17
ENDBRANCH  10  16
ENDBRANCH   1  10
TORSDOF 4
ENDMDL
MODEL 6
REMARK VINA RESULT:      -7.1     11.258     13.427
REMARK  Name = 12192007
REMARK  4 active torsions:
REMARK  status: ('A' for Active; 'I' for Inactive)
REMARK    1  A    between atoms: C_1  and  CA_10
REMARK    2  A    between atoms: CA_10  and  N_11
REMARK    3  A    between atoms: CA_10  and  C_16
REMARK    4  A    between atoms: C_16  and  O_17
REMARK                            x       y       z     vdW  Elec       q    Type
REMARK                         _______ _______ _______ _____ _____    ______ ____
ROOT
ATOM      1  C   UNL     1      32.544  -7.437 -22.242  0.00  0.00    -0.001 C 
ATOM      2  C   UNL     1      33.713  -7.890 -23.143  0.00  0.00    +0.025 C 
ATOM      3  C   UNL     1      31.532  -6.726 -23.166  0.00  0.00    +0.025 C 
ATOM      4  C   UNL     1      33.666  -6.860 -24.228  0.00  0.00    -0.026 C 
ATOM      5  C   UNL     1      32.431  -6.202 -24.241  0.00  0.00    -0.026 C 
ATOM      6  C   UNL     1      34.644  -6.565 -25.163  0.00  0.00    -0.005 C 
ATOM      7  C   UNL     1      32.149  -5.234 -25.190  0.00  0.00    -0.005 C 
ATOM      8  C   UNL     1      34.371  -5.582 -26.117  0.00  0.00    -0.000 C 
ATOM      9  C   UNL     1      33.133  -4.920 -26.131  0.00  0.00    -0.000 C 
ENDROOT
BRANCH   1  10
ATOM     10  CA  UNL     1      31.921  -8.588 -21.468  0.00  0.00    +0.036 C 
BRANCH  10  11
ATOM     11  N   UNL     1      32.272  -9.848 -22.112  0.00  0.00    +0.389 N 
ATOM     12  H1  UNL     1      32.577  -9.668 -23.069  0.00  0.00    -0.088 HD
ATOM     13  H2  UNL     1      31.457 -10.461 -22.127  0.00  0.00    -0.088 HD
ATOM     14  H3  UNL     1      33.027 -10.297 -21.593  0.00  0.00    -0.088 HD
ENDBRANCH  10  11
BRANCH  10  16
ATOM     15  OXT UNL     1      32.351  -9.545 -19.263  0.00  0.00    -0.253 OA
ATOM     16  C   UNL     1      32.443  -8.614 -20.052  0.00  0.00    +0.293 C 
BRANCH  16  17
ATOM     17  O   UNL     1      33.069  -7.445 -19.753  0.00  0.00    -0.482 OA
ATOM     18  H   UNL     1      33.513  -6.967 -20.426  0.00  0.00    +0.295 HD
ENDBRANCH  16  17
ENDBRANCH  10  16
ENDBRANCH   1  10
TORSDOF 4
ENDMDL
MODEL 7
REMARK VINA RESULT:      -7.1      7.288      8.549
REMARK  Name = 12192007
REMARK  4 active torsions:
REMARK  status: ('A' for Active; 'I' for Inactive)
REMARK    1  A    between atoms: C_1  and  CA_10
REMARK    2  A    between atoms: CA_10  and  N_11
REMARK    3  A    between atoms: CA_10  and  C_16
REMARK    4  A    between atoms: C_16  and  O_17
REMARK                            x       y       z     vdW  Elec       q    Type
REMARK                         _______ _______ _______ _____ _____    ______ ____
ROOT
ATOM      1  C   UNL     1      30.146 -23.929 -15.668  0.00  0.00    -0.001 C 
ATOM      2  C   UNL     1      31.080 -23.078 -16.555  0.00  0.00    +0.025 C 
ATOM      3  C   UNL     1      30.844 -24.057 -14.297  0.00  0.00    +0.025 C 
ATOM      4  C   UNL     1      32.418 -23.398 -15.967  0.00  0.00    -0.026 C 
ATOM      5  C   UNL     1      32.285 -23.952 -14.689  0.00  0.00    -0.026 C 
ATOM      6  C   UNL     1      33.667 -23.169 -16.520  0.00  0.00    -0.005 C 
ATOM      7  C   UNL     1      33.398 -24.289 -13.937  0.00  0.00    -0.005 C 
ATOM      8  C   UNL     1      34.795 -23.517 -15.773  0.00  0.00    -0.000 C 
ATOM      9  C   UNL     1      34.662 -24.073 -14.491  0.00  0.00    -0.000 C 
ENDROOT
BRANCH   1  10
ATOM     10  CA  UNL     1      28.747 -23.342 -15.560  0.00  0.00    +0.036 C 
BRANCH  10  11
ATOM     11  N   UNL     1      28.826 -22.011 -14.972  0.00  0.00    +0.389 N 
ATOM     12  H1  UNL     1      27.991 -21.479 -15.220  0.00  0.00    -0.088 HD
ATOM     13  H2  UNL     1      29.652 -21.530 -15.329  0.00  0.00    -0.088 HD
ATOM     14  H3  UNL     1      28.890 -22.090 -13.957  0.00  0.00    -0.088 HD
ENDBRANCH  10  11
BRANCH  10  16
ATOM     15  OXT UNL     1      27.730 -24.148 -17.628  0.00  0.00    -0.253 OA
ATOM     16  C   UNL     1      28.118 -23.224 -16.928  0.00  0.00    +0.293 C 
BRANCH  16  17
ATOM     17  O   UNL     1      28.011 -21.918 -17.292  0.00  0.00    -0.482 OA
ATOM     18  H   UNL     1      28.459 -21.257 -16.800  0.00  0.00    +0.295 HD
ENDBRANCH  16  17
ENDBRANCH  10  16
ENDBRANCH   1  10
TORSDOF 4
ENDMDL
MODEL 8
REMARK VINA RESULT:      -7.1      6.086      7.817
REMARK  Name = 12192007
REMARK  4 active torsions:
REMARK  status: ('A' for Active; 'I' for Inactive)
REMARK    1  A    between atoms: C_1  and  CA_10
REMARK    2  A    between atoms: CA_10  and  N_11
REMARK    3  A    between atoms: CA_10  and  C_16
REMARK    4  A    between atoms: C_16  and  O_17
REMARK                            x       y       z     vdW  Elec       q    Type
REMARK                         _______ _______ _______ _____ _____    ______ ____
ROOT
ATOM      1  C   UNL     1      35.732 -22.853 -15.350  0.00  0.00    -0.001 C 
ATOM      2  C   UNL     1      36.762 -22.476 -16.436  0.00  0.00    +0.025 C 
ATOM      3  C   UNL     1      34.502 -23.417 -16.093  0.00  0.00    +0.025 C 
ATOM      4  C   UNL     1      35.868 -22.160 -17.594  0.00  0.00    -0.026 C 
ATOM      5  C   UNL     1      34.589 -22.693 -17.400  0.00  0.00    -0.026 C 
ATOM      6  C   UNL     1      36.190 -21.481 -18.757  0.00  0.00    -0.005 C 
ATOM      7  C   UNL     1      33.605 -22.558 -18.365  0.00  0.00    -0.005 C 
ATOM      8  C   UNL     1      35.201 -21.330 -19.731  0.00  0.00    -0.000 C 
ATOM      9  C   UNL     1      33.917 -21.864 -19.536  0.00  0.00    -0.000 C 
ENDROOT
BRANCH   1  10
ATOM     10  CA  UNL     1      36.293 -23.826 -14.324  0.00  0.00    +0.036 C 
BRANCH  10  11
ATOM     11  N   UNL     1      35.289 -24.838 -14.018  0.00  0.00    +0.389 N 
ATOM     12  H1  UNL     1      34.674 -24.961 -14.824  0.00  0.00    -0.088 HD
ATOM     13  H2  UNL     1      34.738 -24.538 -13.215  0.00  0.00    -0.088 HD
ATOM     14  H3  UNL     1      35.750 -25.722 -13.804  0.00  0.00    -0.088 HD
ENDBRANCH  10  11
BRANCH  10  16
ATOM     15  OXT UNL     1      38.679 -24.168 -14.714  0.00  0.00    -0.253 OA
ATOM     16  C   UNL     1      37.518 -24.519 -14.871  0.00  0.00    +0.293 C 
BRANCH  16  17
ATOM     17  O   UNL     1      37.165 -25.634 -15.565  0.00  0.00    -0.482 OA
ATOM     18  H   UNL     1      37.750 -26.366 -15.603  0.00  0.00    +0.295 HD
ENDBRANCH  16  17
ENDBRANCH  10  16
ENDBRANCH   1  10
TORSDOF 4
ENDMDL
MODEL 9
REMARK VINA RESULT:      -7.0      6.370      8.246
REMARK  Name = 12192007
REMARK  4 active torsions:
REMARK  status: ('A' for Active; 'I' for Inactive)
REMARK    1  A    between atoms: C_1  and  CA_10
REMARK    2  A    between atoms: CA_10  and  N_11
REMARK    3  A    between atoms: CA_10  and  C_16
REMARK    4  A    between atoms: C_16  and  O_17
REMARK                            x       y       z     vdW  Elec       q    Type
REMARK                         _______ _______ _______ _____ _____    ______ ____
ROOT
ATOM      1  C   UNL     1      36.516 -23.295 -15.695  0.00  0.00    -0.001 C 
ATOM      2  C   UNL     1      35.000 -23.204 -15.974  0.00  0.00    +0.025 C 
ATOM      3  C   UNL     1      37.176 -22.160 -16.507  0.00  0.00    +0.025 C 
ATOM      4  C   UNL     1      34.987 -22.609 -17.347  0.00  0.00    -0.026 C 
ATOM      5  C   UNL     1      36.219 -22.018 -17.648  0.00  0.00    -0.026 C 
ATOM      6  C   UNL     1      33.933 -22.563 -18.243  0.00  0.00    -0.005 C 
ATOM      7  C   UNL     1      36.422 -21.368 -18.854  0.00  0.00    -0.005 C 
ATOM      8  C   UNL     1      34.133 -21.919 -19.466  0.00  0.00    -0.000 C 
ATOM      9  C   UNL     1      35.368 -21.326 -19.770  0.00  0.00    -0.000 C 
ENDROOT
BRANCH   1  10
ATOM     10  CA  UNL     1      36.844 -23.221 -14.212  0.00  0.00    +0.036 C 
BRANCH  10  11
ATOM     11  N   UNL     1      35.606 -23.227 -13.443  0.00  0.00    +0.389 N 
ATOM     12  H1  UNL     1      35.520 -24.113 -12.943  0.00  0.00    -0.088 HD
ATOM     13  H2  UNL     1      34.812 -23.117 -14.074  0.00  0.00    -0.088 HD
ATOM     14  H3  UNL     1      35.616 -22.458 -12.773  0.00  0.00    -0.088 HD
ENDBRANCH  10  11
BRANCH  10  16
ATOM     15  OXT UNL     1      38.831 -24.389 -13.407  0.00  0.00    -0.253 OA
ATOM     16  C   UNL     1      37.671 -24.413 -13.795  0.00  0.00    +0.293 C 
BRANCH  16  17
ATOM     17  O   UNL     1      36.940 -25.555 -13.885  0.00  0.00    -0.482 OA
ATOM     18  H   UNL     1      36.064 -25.578 -13.551  0.00  0.00    +0.295 HD
ENDBRANCH  16  17
ENDBRANCH  10  16
ENDBRANCH   1  10
TORSDOF 4
ENDMDL
