MODEL 1
REMARK VINA RESULT:     -11.9      0.000      0.000
REMARK  Name = 56842109
REMARK  7 active torsions:
REMARK  status: ('A' for Active; 'I' for Inactive)
REMARK    1  A    between atoms: C_1  and  C_24
REMARK    2  A    between atoms: C_3  and  C_9
REMARK    3  A    between atoms: C_5  and  O_22
REMARK    4  A    between atoms: N_8  and  C_11
REMARK    5  A    between atoms: C_11  and  C_12
REMARK    6  A    between atoms: C_15  and  C_21
REMARK    7  A    between atoms: C_24  and  C_29
REMARK                            x       y       z     vdW  Elec       q    Type
REMARK                         _______ _______ _______ _____ _____    ______ ____
ROOT
ATOM      1  C   UNL     1      32.222 -23.110 -15.410  0.00  0.00    -0.018 C 
ATOM      2  C   UNL     1      32.634 -22.949 -16.733  0.00  0.00    +0.003 C 
ATOM      3  C   UNL     1      33.981 -23.092 -17.066  0.00  0.00    +0.087 C 
ATOM      4  C   UNL     1      33.157 -23.412 -14.421  0.00  0.00    -0.001 C 
ATOM      5  C   UNL     1      34.917 -23.395 -16.077  0.00  0.00    +0.143 C 
ATOM      6  C   UNL     1      34.505 -23.555 -14.754  0.00  0.00    +0.037 C 
ENDROOT
BRANCH   3   9
ATOM      7  O   UNL     1      33.894 -23.631 -19.346  0.00  0.00    -0.270 OA
ATOM      8  N   UNL     1      35.332 -21.923 -18.721  0.00  0.00    -0.297 N 
ATOM      9  C   UNL     1      34.390 -22.922 -18.454  0.00  0.00    +0.249 C 
ATOM     10  H   UNL     1      35.683 -21.399 -17.964  0.00  0.00    +0.150 HD
BRANCH   8  11
ATOM     11  C   UNL     1      35.818 -21.619 -20.047  0.00  0.00    +0.117 C 
BRANCH  11  12
ATOM     12  C   UNL     1      35.374 -20.263 -20.511  0.00  0.00    -0.003 C 
ATOM     13  C   UNL     1      34.013 -19.964 -20.590  0.00  0.00    -0.003 C 
ATOM     14  C   UNL     1      36.320 -19.300 -20.864  0.00  0.00    -0.003 C 
ATOM     15  C   UNL     1      34.546 -17.742 -21.373  0.00  0.00    +0.071 C 
ATOM     16  C   UNL     1      33.599 -18.704 -21.021  0.00  0.00    +0.004 C 
ATOM     17  C   UNL     1      35.906 -18.041 -21.296  0.00  0.00    +0.004 C 
BRANCH  15  21
ATOM     18  F   UNL     1      34.098 -16.277 -23.192  0.00  0.00    -0.166 F 
ATOM     19  F   UNL     1      32.838 -16.067 -21.431  0.00  0.00    -0.166 F 
ATOM     20  F   UNL     1      34.893 -15.375 -21.380  0.00  0.00    -0.166 F 
ATOM     21  C   UNL     1      34.103 -16.394 -21.832  0.00  0.00    +0.419 C 
ENDBRANCH  15  21
ENDBRANCH  11  12
ENDBRANCH   8  11
ENDBRANCH   3   9
BRANCH   5  22
ATOM     22  O   UNL     1      36.237 -23.541 -16.384  0.00  0.00    -0.471 OA
ATOM     23  C   UNL     1      37.169 -22.800 -15.599  0.00  0.00    +0.252 C 
ENDBRANCH   5  22
BRANCH   1  24
ATOM     24  C   UNL     1      30.765 -22.956 -15.050  0.00  0.00    +0.080 C 
BRANCH  24  29
ATOM     25  O   UNL     1      29.336 -22.325 -16.891  0.00  0.00    -0.428 OA
ATOM     26  O   UNL     1      28.587 -25.096 -14.905  0.00  0.00    -0.271 OA
ATOM     27  O   UNL     1      27.265 -21.472 -17.351  0.00  0.00    -0.226 OA
ATOM     28  N   UNL     1      27.558 -23.370 -16.066  0.00  0.00    -0.218 N 
ATOM     29  C   UNL     1      29.853 -23.446 -16.155  0.00  0.00    +0.250 C 
ATOM     30  C   UNL     1      28.614 -24.104 -15.615  0.00  0.00    +0.271 C 
ATOM     31  C   UNL     1      27.971 -22.315 -16.816  0.00  0.00    +0.408 C 
ATOM     32  H   UNL     1      26.615 -23.577 -15.874  0.00  0.00    +0.161 HD
ENDBRANCH  24  29
ENDBRANCH   1  24
TORSDOF 7
ENDMDL
MODEL 2
REMARK VINA RESULT:     -11.6      2.625      5.133
REMARK  Name = 56842109
REMARK  7 active torsions:
REMARK  status: ('A' for Active; 'I' for Inactive)
REMARK    1  A    between atoms: C_1  and  C_24
REMARK    2  A    between atoms: C_3  and  C_9
REMARK    3  A    between atoms: C_5  and  O_22
REMARK    4  A    between atoms: N_8  and  C_11
REMARK    5  A    between atoms: C_11  and  C_12
REMARK    6  A    between atoms: C_15  and  C_21
REMARK    7  A    between atoms: C_24  and  C_29
REMARK                            x       y       z     vdW  Elec       q    Type
REMARK                         _______ _______ _______ _____ _____    ______ ____
ROOT
ATOM      1  C   UNL     1      34.065 -24.074 -14.381  0.00  0.00    -0.018 C 
ATOM      2  C   UNL     1      34.433 -23.997 -15.725  0.00  0.00    +0.003 C 
ATOM      3  C   UNL     1      33.536 -23.490 -16.665  0.00  0.00    +0.087 C 
ATOM      4  C   UNL     1      32.802 -23.642 -13.979  0.00  0.00    -0.001 C 
ATOM      5  C   UNL     1      32.273 -23.058 -16.263  0.00  0.00    +0.143 C 
ATOM      6  C   UNL     1      31.906 -23.134 -14.919  0.00  0.00    +0.037 C 
ENDROOT
BRANCH   3   9
ATOM      7  O   UNL     1      33.565 -24.282 -18.872  0.00  0.00    -0.270 OA
ATOM      8  N   UNL     1      34.738 -22.330 -18.436  0.00  0.00    -0.297 N 
ATOM      9  C   UNL     1      33.940 -23.417 -18.063  0.00  0.00    +0.249 C 
ATOM     10  H   UNL     1      34.999 -21.683 -17.741  0.00  0.00    +0.150 HD
BRANCH   8  11
ATOM     11  C   UNL     1      35.200 -22.107 -19.787  0.00  0.00    +0.117 C 
BRANCH  11  12
ATOM     12  C   UNL     1      34.935 -20.703 -20.247  0.00  0.00    -0.003 C 
ATOM     13  C   UNL     1      33.622 -20.256 -20.401  0.00  0.00    -0.003 C 
ATOM     14  C   UNL     1      36.000 -19.845 -20.523  0.00  0.00    -0.003 C 
ATOM     15  C   UNL     1      34.439 -18.095 -21.102  0.00  0.00    +0.071 C 
ATOM     16  C   UNL     1      33.374 -18.952 -20.828  0.00  0.00    +0.004 C 
ATOM     17  C   UNL     1      35.752 -18.541 -20.950  0.00  0.00    +0.004 C 
BRANCH  15  21
ATOM     18  F   UNL     1      32.924 -16.266 -21.222  0.00  0.00    -0.166 F 
ATOM     19  F   UNL     1      35.034 -15.778 -21.027  0.00  0.00    -0.166 F 
ATOM     20  F   UNL     1      34.269 -16.536 -22.910  0.00  0.00    -0.166 F 
ATOM     21  C   UNL     1      34.174 -16.699 -21.557  0.00  0.00    +0.419 C 
ENDBRANCH  15  21
ENDBRANCH  11  12
ENDBRANCH   8  11
ENDBRANCH   3   9
BRANCH   5  22
ATOM     22  O   UNL     1      31.384 -22.555 -17.166  0.00  0.00    -0.471 OA
ATOM     23  C   UNL     1      30.001 -22.631 -16.824  0.00  0.00    +0.252 C 
ENDBRANCH   5  22
BRANCH   1  24
ATOM     24  C   UNL     1      35.036 -24.623 -13.365  0.00  0.00    +0.080 C 
BRANCH  24  29
ATOM     25  O   UNL     1      36.419 -22.779 -12.644  0.00  0.00    -0.428 OA
ATOM     26  O   UNL     1      35.223 -25.129 -10.355  0.00  0.00    -0.271 OA
ATOM     27  O   UNL     1      38.500 -22.304 -11.823  0.00  0.00    -0.226 OA
ATOM     28  N   UNL     1      37.080 -23.804 -10.788  0.00  0.00    -0.218 N 
ATOM     29  C   UNL     1      35.325 -23.628 -12.260  0.00  0.00    +0.250 C 
ATOM     30  C   UNL     1      35.830 -24.299 -11.014  0.00  0.00    +0.271 C 
ATOM     31  C   UNL     1      37.441 -22.911 -11.745  0.00  0.00    +0.408 C 
ATOM     32  H   UNL     1      37.649 -24.060 -10.026  0.00  0.00    +0.161 HD
ENDBRANCH  24  29
ENDBRANCH   1  24
TORSDOF 7
ENDMDL
MODEL 3
REMARK VINA RESULT:     -11.2      2.347      5.522
REMARK  Name = 56842109
REMARK  7 active torsions:
REMARK  status: ('A' for Active; 'I' for Inactive)
REMARK    1  A    between atoms: C_1  and  C_24
REMARK    2  A    between atoms: C_3  and  C_9
REMARK    3  A    between atoms: C_5  and  O_22
REMARK    4  A    between atoms: N_8  and  C_11
REMARK    5  A    between atoms: C_11  and  C_12
REMARK    6  A    between atoms: C_15  and  C_21
REMARK    7  A    between atoms: C_24  and  C_29
REMARK                            x       y       z     vdW  Elec       q    Type
REMARK                         _______ _______ _______ _____ _____    ______ ____
ROOT
ATOM      1  C   UNL     1      34.018 -23.662 -14.082  0.00  0.00    -0.018 C 
ATOM      2  C   UNL     1      34.392 -23.700 -15.425  0.00  0.00    +0.003 C 
ATOM      3  C   UNL     1      33.466 -23.374 -16.416  0.00  0.00    +0.087 C 
ATOM      4  C   UNL     1      32.719 -23.298 -13.730  0.00  0.00    -0.001 C 
ATOM      5  C   UNL     1      32.167 -23.010 -16.065  0.00  0.00    +0.143 C 
ATOM      6  C   UNL     1      31.792 -22.973 -14.721  0.00  0.00    +0.037 C 
ENDROOT
BRANCH   3   9
ATOM      7  O   UNL     1      33.531 -24.362 -18.541  0.00  0.00    -0.270 OA
ATOM      8  N   UNL     1      34.649 -22.347 -18.281  0.00  0.00    -0.297 N 
ATOM      9  C   UNL     1      33.878 -23.417 -17.813  0.00  0.00    +0.249 C 
ATOM     10  H   UNL     1      34.887 -21.633 -17.646  0.00  0.00    +0.150 HD
BRANCH   8  11
ATOM     11  C   UNL     1      35.114 -22.236 -19.644  0.00  0.00    +0.117 C 
BRANCH  11  12
ATOM     12  C   UNL     1      35.017 -20.829 -20.157  0.00  0.00    -0.003 C 
ATOM     13  C   UNL     1      36.177 -20.082 -20.367  0.00  0.00    -0.003 C 
ATOM     14  C   UNL     1      33.769 -20.266 -20.425  0.00  0.00    -0.003 C 
ATOM     15  C   UNL     1      34.841 -18.214 -21.112  0.00  0.00    +0.071 C 
ATOM     16  C   UNL     1      36.090 -18.774 -20.844  0.00  0.00    +0.004 C 
ATOM     17  C   UNL     1      33.681 -18.959 -20.901  0.00  0.00    +0.004 C 
BRANCH  15  21
ATOM     18  F   UNL     1      35.105 -15.888 -20.690  0.00  0.00    -0.166 F 
ATOM     19  F   UNL     1      35.548 -16.574 -22.705  0.00  0.00    -0.166 F 
ATOM     20  F   UNL     1      33.490 -16.465 -22.028  0.00  0.00    -0.166 F 
ATOM     21  C   UNL     1      34.747 -16.816 -21.625  0.00  0.00    +0.419 C 
ENDBRANCH  15  21
ENDBRANCH  11  12
ENDBRANCH   8  11
ENDBRANCH   3   9
BRANCH   5  22
ATOM     22  O   UNL     1      31.248 -22.685 -17.018  0.00  0.00    -0.471 OA
ATOM     23  C   UNL     1      29.877 -22.696 -16.627  0.00  0.00    +0.252 C 
ENDBRANCH   5  22
BRANCH   1  24
ATOM     24  C   UNL     1      35.020 -24.014 -13.010  0.00  0.00    +0.080 C 
BRANCH  24  29
ATOM     25  O   UNL     1      37.052 -24.892 -13.975  0.00  0.00    -0.428 OA
ATOM     26  O   UNL     1      37.156 -22.427 -11.504  0.00  0.00    -0.271 OA
ATOM     27  O   UNL     1      38.876 -26.176 -13.469  0.00  0.00    -0.226 OA
ATOM     28  N   UNL     1      38.308 -24.304 -12.240  0.00  0.00    -0.218 N 
ATOM     29  C   UNL     1      36.440 -23.708 -13.438  0.00  0.00    +0.250 C 
ATOM     30  C   UNL     1      37.320 -23.365 -12.269  0.00  0.00    +0.271 C 
ATOM     31  C   UNL     1      38.158 -25.213 -13.238  0.00  0.00    +0.408 C 
ATOM     32  H   UNL     1      39.039 -24.320 -11.580  0.00  0.00    +0.161 HD
ENDBRANCH  24  29
ENDBRANCH   1  24
TORSDOF 7
ENDMDL
MODEL 4
REMARK VINA RESULT:     -11.2      5.749      9.744
REMARK  Name = 56842109
REMARK  7 active torsions:
REMARK  status: ('A' for Active; 'I' for Inactive)
REMARK    1  A    between atoms: C_1  and  C_24
REMARK    2  A    between atoms: C_3  and  C_9
REMARK    3  A    between atoms: C_5  and  O_22
REMARK    4  A    between atoms: N_8  and  C_11
REMARK    5  A    between atoms: C_11  and  C_12
REMARK    6  A    between atoms: C_15  and  C_21
REMARK    7  A    between atoms: C_24  and  C_29
REMARK                            x       y       z     vdW  Elec       q    Type
REMARK                         _______ _______ _______ _____ _____    ______ ____
ROOT
ATOM      1  C   UNL     1      34.811 -17.986 -23.190  0.00  0.00    -0.018 C 
ATOM      2  C   UNL     1      34.352 -16.916 -22.422  0.00  0.00    +0.003 C 
ATOM      3  C   UNL     1      33.931 -15.741 -23.045  0.00  0.00    +0.087 C 
ATOM      4  C   UNL     1      34.848 -17.881 -24.580  0.00  0.00    -0.001 C 
ATOM      5  C   UNL     1      33.968 -15.636 -24.435  0.00  0.00    +0.143 C 
ATOM      6  C   UNL     1      34.427 -16.706 -25.203  0.00  0.00    +0.037 C 
ENDROOT
BRANCH   3   9
ATOM      7  O   UNL     1      33.957 -14.419 -21.109  0.00  0.00    -0.270 OA
ATOM      8  N   UNL     1      32.437 -13.840 -22.761  0.00  0.00    -0.297 N 
ATOM      9  C   UNL     1      33.454 -14.636 -22.224  0.00  0.00    +0.249 C 
ATOM     10  H   UNL     1      32.085 -14.072 -23.651  0.00  0.00    +0.150 HD
BRANCH   8  11
ATOM     11  C   UNL     1      31.875 -12.696 -22.080  0.00  0.00    +0.117 C 
BRANCH  11  12
ATOM     12  C   UNL     1      32.488 -11.408 -22.546  0.00  0.00    -0.003 C 
ATOM     13  C   UNL     1      32.098 -10.200 -21.966  0.00  0.00    -0.003 C 
ATOM     14  C   UNL     1      33.448 -11.416 -23.558  0.00  0.00    -0.003 C 
ATOM     15  C   UNL     1      33.626  -9.012 -23.410  0.00  0.00    +0.071 C 
ATOM     16  C   UNL     1      32.666  -9.002 -22.398  0.00  0.00    +0.004 C 
ATOM     17  C   UNL     1      34.016 -10.219 -23.990  0.00  0.00    +0.004 C 
BRANCH  15  21
ATOM     18  F   UNL     1      35.342  -7.387 -23.146  0.00  0.00    -0.166 F 
ATOM     19  F   UNL     1      34.646  -7.757 -25.173  0.00  0.00    -0.166 F 
ATOM     20  F   UNL     1      33.393  -6.660 -23.784  0.00  0.00    -0.166 F 
ATOM     21  C   UNL     1      34.237  -7.731 -23.870  0.00  0.00    +0.419 C 
ENDBRANCH  15  21
ENDBRANCH  11  12
ENDBRANCH   8  11
ENDBRANCH   3   9
BRANCH   5  22
ATOM     22  O   UNL     1      33.557 -14.497 -25.061  0.00  0.00    -0.471 OA
ATOM     23  C   UNL     1      32.832 -14.655 -26.279  0.00  0.00    +0.252 C 
ENDBRANCH   5  22
BRANCH   1  24
ATOM     24  C   UNL     1      35.266 -19.257 -22.517  0.00  0.00    +0.080 C 
BRANCH  24  29
ATOM     25  O   UNL     1      36.153 -19.796 -20.336  0.00  0.00    -0.428 OA
ATOM     26  O   UNL     1      32.729 -20.010 -20.985  0.00  0.00    -0.271 OA
ATOM     27  O   UNL     1      36.498 -21.556 -18.918  0.00  0.00    -0.226 OA
ATOM     28  N   UNL     1      34.411 -21.053 -19.771  0.00  0.00    -0.218 N 
ATOM     29  C   UNL     1      35.025 -19.226 -21.022  0.00  0.00    +0.250 C 
ATOM     30  C   UNL     1      33.887 -20.117 -20.614  0.00  0.00    +0.271 C 
ATOM     31  C   UNL     1      35.747 -20.877 -19.604  0.00  0.00    +0.408 C 
ATOM     32  H   UNL     1      33.887 -21.765 -19.339  0.00  0.00    +0.161 HD
ENDBRANCH  24  29
ENDBRANCH   1  24
TORSDOF 7
ENDMDL
MODEL 5
REMARK VINA RESULT:     -11.1      2.614      5.442
REMARK  Name = 56842109
REMARK  7 active torsions:
REMARK  status: ('A' for Active; 'I' for Inactive)
REMARK    1  A    between atoms: C_1  and  C_24
REMARK    2  A    between atoms: C_3  and  C_9
REMARK    3  A    between atoms: C_5  and  O_22
REMARK    4  A    between atoms: N_8  and  C_11
REMARK    5  A    between atoms: C_11  and  C_12
REMARK    6  A    between atoms: C_15  and  C_21
REMARK    7  A    between atoms: C_24  and  C_29
REMARK                            x       y       z     vdW  Elec       q    Type
REMARK                         _______ _______ _______ _____ _____    ______ ____
ROOT
ATOM      1  C   UNL     1      35.557 -23.610 -14.352  0.00  0.00    -0.018 C 
ATOM      2  C   UNL     1      35.184 -23.437 -15.685  0.00  0.00    +0.003 C 
ATOM      3  C   UNL     1      33.842 -23.537 -16.053  0.00  0.00    +0.087 C 
ATOM      4  C   UNL     1      34.587 -23.881 -13.387  0.00  0.00    -0.001 C 
ATOM      5  C   UNL     1      32.873 -23.808 -15.088  0.00  0.00    +0.143 C 
ATOM      6  C   UNL     1      33.245 -23.981 -13.755  0.00  0.00    +0.037 C 
ENDROOT
BRANCH   3   9
ATOM      7  O   UNL     1      33.717 -24.237 -18.287  0.00  0.00    -0.270 OA
ATOM      8  N   UNL     1      32.829 -22.155 -17.783  0.00  0.00    -0.297 N 
ATOM      9  C   UNL     1      33.475 -23.351 -17.450  0.00  0.00    +0.249 C 
ATOM     10  H   UNL     1      32.671 -21.496 -17.068  0.00  0.00    +0.150 HD
BRANCH   8  11
ATOM     11  C   UNL     1      32.384 -21.834 -19.119  0.00  0.00    +0.117 C 
BRANCH  11  12
ATOM     12  C   UNL     1      33.363 -20.957 -19.843  0.00  0.00    -0.003 C 
ATOM     13  C   UNL     1      34.729 -21.227 -19.768  0.00  0.00    -0.003 C 
ATOM     14  C   UNL     1      32.907 -19.871 -20.591  0.00  0.00    -0.003 C 
ATOM     15  C   UNL     1      35.184 -19.327 -21.188  0.00  0.00    +0.071 C 
ATOM     16  C   UNL     1      35.640 -20.412 -20.440  0.00  0.00    +0.004 C 
ATOM     17  C   UNL     1      33.817 -19.056 -21.263  0.00  0.00    +0.004 C 
BRANCH  15  21
ATOM     18  F   UNL     1      37.447 -18.677 -21.519  0.00  0.00    -0.166 F 
ATOM     19  F   UNL     1      36.150 -18.634 -23.264  0.00  0.00    -0.166 F 
ATOM     20  F   UNL     1      35.940 -17.122 -21.723  0.00  0.00    -0.166 F 
ATOM     21  C   UNL     1      36.157 -18.457 -21.909  0.00  0.00    +0.419 C 
ENDBRANCH  15  21
ENDBRANCH  11  12
ENDBRANCH   8  11
ENDBRANCH   3   9
BRANCH   5  22
ATOM     22  O   UNL     1      31.556 -23.905 -15.428  0.00  0.00    -0.471 OA
ATOM     23  C   UNL     1      30.669 -22.943 -14.861  0.00  0.00    +0.252 C 
ENDBRANCH   5  22
BRANCH   1  24
ATOM     24  C   UNL     1      37.008 -23.502 -13.954  0.00  0.00    +0.080 C 
BRANCH  24  29
ATOM     25  O   UNL     1      37.443 -25.388 -15.399  0.00  0.00    -0.428 OA
ATOM     26  O   UNL     1      37.281 -25.780 -11.933  0.00  0.00    -0.271 OA
ATOM     27  O   UNL     1      36.501 -27.326 -16.160  0.00  0.00    -0.226 OA
ATOM     28  N   UNL     1      36.753 -26.882 -13.907  0.00  0.00    -0.218 N 
ATOM     29  C   UNL     1      37.741 -24.818 -14.113  0.00  0.00    +0.250 C 
ATOM     30  C   UNL     1      37.246 -25.860 -13.151  0.00  0.00    +0.271 C 
ATOM     31  C   UNL     1      36.859 -26.613 -15.234  0.00  0.00    +0.408 C 
ATOM     32  H   UNL     1      36.370 -27.710 -13.539  0.00  0.00    +0.161 HD
ENDBRANCH  24  29
ENDBRANCH   1  24
TORSDOF 7
ENDMDL
MODEL 6
REMARK VINA RESULT:     -11.0      5.532      9.161
REMARK  Name = 56842109
REMARK  7 active torsions:
REMARK  status: ('A' for Active; 'I' for Inactive)
REMARK    1  A    between atoms: C_1  and  C_24
REMARK    2  A    between atoms: C_3  and  C_9
REMARK    3  A    between atoms: C_5  and  O_22
REMARK    4  A    between atoms: N_8  and  C_11
REMARK    5  A    between atoms: C_11  and  C_12
REMARK    6  A    between atoms: C_15  and  C_21
REMARK    7  A    between atoms: C_24  and  C_29
REMARK                            x       y       z     vdW  Elec       q    Type
REMARK                         _______ _______ _______ _____ _____    ______ ____
ROOT
ATOM      1  C   UNL     1      34.933 -19.720 -21.068  0.00  0.00    -0.018 C 
ATOM      2  C   UNL     1      34.253 -20.760 -20.433  0.00  0.00    +0.003 C 
ATOM      3  C   UNL     1      34.912 -21.549 -19.489  0.00  0.00    +0.087 C 
ATOM      4  C   UNL     1      36.269 -19.469 -20.759  0.00  0.00    -0.001 C 
ATOM      5  C   UNL     1      36.248 -21.298 -19.181  0.00  0.00    +0.143 C 
ATOM      6  C   UNL     1      36.927 -20.258 -19.816  0.00  0.00    +0.037 C 
ENDROOT
BRANCH   3   9
ATOM      7  O   UNL     1      33.823 -23.625 -19.484  0.00  0.00    -0.270 OA
ATOM      8  N   UNL     1      33.940 -22.490 -17.465  0.00  0.00    -0.297 N 
ATOM      9  C   UNL     1      34.183 -22.628 -18.836  0.00  0.00    +0.249 C 
ATOM     10  H   UNL     1      34.254 -21.672 -17.016  0.00  0.00    +0.150 HD
BRANCH   8  11
ATOM     11  C   UNL     1      33.252 -23.484 -16.674  0.00  0.00    +0.117 C 
BRANCH  11  12
ATOM     12  C   UNL     1      34.005 -23.827 -15.422  0.00  0.00    -0.003 C 
ATOM     13  C   UNL     1      33.335 -23.890 -14.200  0.00  0.00    -0.003 C 
ATOM     14  C   UNL     1      35.376 -24.082 -15.479  0.00  0.00    -0.003 C 
ATOM     15  C   UNL     1      35.404 -24.464 -13.094  0.00  0.00    +0.071 C 
ATOM     16  C   UNL     1      34.034 -24.208 -13.036  0.00  0.00    +0.004 C 
ATOM     17  C   UNL     1      36.075 -24.400 -14.316  0.00  0.00    +0.004 C 
BRANCH  15  21
ATOM     18  F   UNL     1      37.115 -23.889 -11.546  0.00  0.00    -0.166 F 
ATOM     19  F   UNL     1      35.359 -24.887 -10.740  0.00  0.00    -0.166 F 
ATOM     20  F   UNL     1      36.797 -26.009 -11.913  0.00  0.00    -0.166 F 
ATOM     21  C   UNL     1      36.152 -24.807 -11.850  0.00  0.00    +0.419 C 
ENDBRANCH  15  21
ENDBRANCH  11  12
ENDBRANCH   8  11
ENDBRANCH   3   9
BRANCH   5  22
ATOM     22  O   UNL     1      36.908 -22.056 -18.259  0.00  0.00    -0.471 OA
ATOM     23  C   UNL     1      37.227 -21.432 -17.017  0.00  0.00    +0.252 C 
ENDBRANCH   5  22
BRANCH   1  24
ATOM     24  C   UNL     1      34.220 -18.866 -22.088  0.00  0.00    +0.080 C 
BRANCH  24  29
ATOM     25  O   UNL     1      35.238 -16.695 -22.368  0.00  0.00    -0.428 OA
ATOM     26  O   UNL     1      34.490 -18.698 -25.128  0.00  0.00    -0.271 OA
ATOM     27  O   UNL     1      34.803 -14.591 -23.152  0.00  0.00    -0.226 OA
ATOM     28  N   UNL     1      34.543 -16.473 -24.466  0.00  0.00    -0.218 N 
ATOM     29  C   UNL     1      35.184 -18.028 -22.901  0.00  0.00    +0.250 C 
ATOM     30  C   UNL     1      34.701 -17.818 -24.308  0.00  0.00    +0.271 C 
ATOM     31  C   UNL     1      34.852 -15.800 -23.328  0.00  0.00    +0.408 C 
ATOM     32  H   UNL     1      34.244 -16.044 -25.300  0.00  0.00    +0.161 HD
ENDBRANCH  24  29
ENDBRANCH   1  24
TORSDOF 7
ENDMDL
MODEL 7
REMARK VINA RESULT:     -11.0      2.865      6.189
REMARK  Name = 56842109
REMARK  7 active torsions:
REMARK  status: ('A' for Active; 'I' for Inactive)
REMARK    1  A    between atoms: C_1  and  C_24
REMARK    2  A    between atoms: C_3  and  C_9
REMARK    3  A    between atoms: C_5  and  O_22
REMARK    4  A    between atoms: N_8  and  C_11
REMARK    5  A    between atoms: C_11  and  C_12
REMARK    6  A    between atoms: C_15  and  C_21
REMARK    7  A    between atoms: C_24  and  C_29
REMARK                            x       y       z     vdW  Elec       q    Type
REMARK                         _______ _______ _______ _____ _____    ______ ____
ROOT
ATOM      1  C   UNL     1      35.827 -23.777 -14.198  0.00  0.00    -0.018 C 
ATOM      2  C   UNL     1      35.076 -23.515 -15.344  0.00  0.00    +0.003 C 
ATOM      3  C   UNL     1      33.683 -23.532 -15.285  0.00  0.00    +0.087 C 
ATOM      4  C   UNL     1      35.183 -24.055 -12.993  0.00  0.00    -0.001 C 
ATOM      5  C   UNL     1      33.039 -23.811 -14.080  0.00  0.00    +0.143 C 
ATOM      6  C   UNL     1      33.790 -24.072 -12.933  0.00  0.00    +0.037 C 
ENDROOT
BRANCH   3   9
ATOM      7  O   UNL     1      31.686 -23.410 -16.507  0.00  0.00    -0.270 OA
ATOM      8  N   UNL     1      33.633 -22.791 -17.603  0.00  0.00    -0.297 N 
ATOM      9  C   UNL     1      32.918 -23.254 -16.493  0.00  0.00    +0.249 C 
ATOM     10  H   UNL     1      34.609 -22.692 -17.521  0.00  0.00    +0.150 HD
BRANCH   8  11
ATOM     11  C   UNL     1      33.015 -22.450 -18.864  0.00  0.00    +0.117 C 
BRANCH  11  12
ATOM     12  C   UNL     1      33.810 -21.428 -19.622  0.00  0.00    -0.003 C 
ATOM     13  C   UNL     1      33.155 -20.436 -20.353  0.00  0.00    -0.003 C 
ATOM     14  C   UNL     1      35.204 -21.467 -19.596  0.00  0.00    -0.003 C 
ATOM     15  C   UNL     1      35.286 -19.525 -21.030  0.00  0.00    +0.071 C 
ATOM     16  C   UNL     1      33.892 -19.485 -21.057  0.00  0.00    +0.004 C 
ATOM     17  C   UNL     1      35.942 -20.516 -20.300  0.00  0.00    +0.004 C 
BRANCH  15  21
ATOM     18  F   UNL     1      35.860 -18.564 -23.128  0.00  0.00    -0.166 F 
ATOM     19  F   UNL     1      35.792 -17.219 -21.420  0.00  0.00    -0.166 F 
ATOM     20  F   UNL     1      37.425 -18.632 -21.620  0.00  0.00    -0.166 F 
ATOM     21  C   UNL     1      36.075 -18.506 -21.781  0.00  0.00    +0.419 C 
ENDBRANCH  15  21
ENDBRANCH  11  12
ENDBRANCH   8  11
ENDBRANCH   3   9
BRANCH   5  22
ATOM     22  O   UNL     1      31.679 -23.829 -14.001  0.00  0.00    -0.471 OA
ATOM     23  C   UNL     1      31.071 -25.052 -13.587  0.00  0.00    +0.252 C 
ENDBRANCH   5  22
BRANCH   1  24
ATOM     24  C   UNL     1      37.334 -23.757 -14.263  0.00  0.00    +0.080 C 
BRANCH  24  29
ATOM     25  O   UNL     1      39.376 -24.790 -13.491  0.00  0.00    -0.428 OA
ATOM     26  O   UNL     1      36.717 -26.724 -14.666  0.00  0.00    -0.271 OA
ATOM     27  O   UNL     1      41.199 -25.951 -14.237  0.00  0.00    -0.226 OA
ATOM     28  N   UNL     1      39.037 -26.664 -14.635  0.00  0.00    -0.218 N 
ATOM     29  C   UNL     1      37.949 -24.949 -13.561  0.00  0.00    +0.250 C 
ATOM     30  C   UNL     1      37.781 -26.217 -14.349  0.00  0.00    +0.271 C 
ATOM     31  C   UNL     1      39.986 -25.828 -14.139  0.00  0.00    +0.408 C 
ATOM     32  H   UNL     1      39.233 -27.488 -15.137  0.00  0.00    +0.161 HD
ENDBRANCH  24  29
ENDBRANCH   1  24
TORSDOF 7
ENDMDL
MODEL 8
REMARK VINA RESULT:     -10.9      5.028      8.756
REMARK  Name = 56842109
REMARK  7 active torsions:
REMARK  status: ('A' for Active; 'I' for Inactive)
REMARK    1  A    between atoms: C_1  and  C_24
REMARK    2  A    between atoms: C_3  and  C_9
REMARK    3  A    between atoms: C_5  and  O_22
REMARK    4  A    between atoms: N_8  and  C_11
REMARK    5  A    between atoms: C_11  and  C_12
REMARK    6  A    between atoms: C_15  and  C_21
REMARK    7  A    between atoms: C_24  and  C_29
REMARK                            x       y       z     vdW  Elec       q    Type
REMARK                         _______ _______ _______ _____ _____    ______ ____
ROOT
ATOM      1  C   UNL     1      34.795 -18.743 -22.248  0.00  0.00    -0.018 C 
ATOM      2  C   UNL     1      34.477 -17.700 -21.378  0.00  0.00    +0.003 C 
ATOM      3  C   UNL     1      34.347 -16.400 -21.867  0.00  0.00    +0.087 C 
ATOM      4  C   UNL     1      34.982 -18.486 -23.606  0.00  0.00    -0.001 C 
ATOM      5  C   UNL     1      34.534 -16.143 -23.225  0.00  0.00    +0.143 C 
ATOM      6  C   UNL     1      34.852 -17.186 -24.094  0.00  0.00    +0.037 C 
ENDROOT
BRANCH   3   9
ATOM      7  O   UNL     1      34.893 -14.808 -20.235  0.00  0.00    -0.270 OA
ATOM      8  N   UNL     1      32.678 -14.905 -20.914  0.00  0.00    -0.297 N 
ATOM      9  C   UNL     1      34.012 -15.325 -20.942  0.00  0.00    +0.249 C 
ATOM     10  H   UNL     1      32.033 -15.361 -21.502  0.00  0.00    +0.150 HD
BRANCH   8  11
ATOM     11  C   UNL     1      32.196 -13.837 -20.068  0.00  0.00    +0.117 C 
BRANCH  11  12
ATOM     12  C   UNL     1      32.078 -12.539 -20.813  0.00  0.00    -0.003 C 
ATOM     13  C   UNL     1      32.358 -12.492 -22.179  0.00  0.00    -0.003 C 
ATOM     14  C   UNL     1      31.688 -11.381 -20.141  0.00  0.00    -0.003 C 
ATOM     15  C   UNL     1      31.858 -10.129 -22.201  0.00  0.00    +0.071 C 
ATOM     16  C   UNL     1      32.248 -11.287 -22.873  0.00  0.00    +0.004 C 
ATOM     17  C   UNL     1      31.578 -10.176 -20.835  0.00  0.00    +0.004 C 
BRANCH  15  21
ATOM     18  F   UNL     1      30.502  -8.668 -23.497  0.00  0.00    -0.166 F 
ATOM     19  F   UNL     1      31.945  -7.738 -22.162  0.00  0.00    -0.166 F 
ATOM     20  F   UNL     1      32.623  -8.719 -23.974  0.00  0.00    -0.166 F 
ATOM     21  C   UNL     1      31.737  -8.841 -22.942  0.00  0.00    +0.419 C 
ENDBRANCH  15  21
ENDBRANCH  11  12
ENDBRANCH   8  11
ENDBRANCH   3   9
BRANCH   5  22
ATOM     22  O   UNL     1      34.408 -14.880 -23.722  0.00  0.00    -0.471 OA
ATOM     23  C   UNL     1      33.420 -14.677 -24.730  0.00  0.00    +0.252 C 
ENDBRANCH   5  22
BRANCH   1  24
ATOM     24  C   UNL     1      34.935 -20.149 -21.719  0.00  0.00    +0.080 C 
BRANCH  24  29
ATOM     25  O   UNL     1      35.978 -20.492 -19.568  0.00  0.00    -0.428 OA
ATOM     26  O   UNL     1      32.711 -21.566 -20.172  0.00  0.00    -0.271 OA
ATOM     27  O   UNL     1      36.795 -22.137 -18.207  0.00  0.00    -0.226 OA
ATOM     28  N   UNL     1      34.631 -22.169 -19.014  0.00  0.00    -0.218 N 
ATOM     29  C   UNL     1      34.727 -20.216 -20.221  0.00  0.00    +0.250 C 
ATOM     30  C   UNL     1      33.866 -21.380 -19.821  0.00  0.00    +0.271 C 
ATOM     31  C   UNL     1      35.880 -21.659 -18.862  0.00  0.00    +0.408 C 
ATOM     32  H   UNL     1      34.318 -23.002 -18.594  0.00  0.00    +0.161 HD
ENDBRANCH  24  29
ENDBRANCH   1  24
TORSDOF 7
ENDMDL
MODEL 9
REMARK VINA RESULT:     -10.9      7.799     11.772
REMARK  Name = 56842109
REMARK  7 active torsions:
REMARK  status: ('A' for Active; 'I' for Inactive)
REMARK    1  A    between atoms: C_1  and  C_24
REMARK    2  A    between atoms: C_3  and  C_9
REMARK    3  A    between atoms: C_5  and  O_22
REMARK    4  A    between atoms: N_8  and  C_11
REMARK    5  A    between atoms: C_11  and  C_12
REMARK    6  A    between atoms: C_15  and  C_21
REMARK    7  A    between atoms: C_24  and  C_29
REMARK                            x       y       z     vdW  Elec       q    Type
REMARK                         _______ _______ _______ _____ _____    ______ ____
ROOT
ATOM      1  C   UNL     1      32.969 -11.425 -23.384  0.00  0.00    -0.018 C 
ATOM      2  C   UNL     1      33.494 -12.591 -23.942  0.00  0.00    +0.003 C 
ATOM      3  C   UNL     1      33.243 -13.826 -23.342  0.00  0.00    +0.087 C 
ATOM      4  C   UNL     1      32.193 -11.494 -22.228  0.00  0.00    -0.001 C 
ATOM      5  C   UNL     1      32.467 -13.895 -22.186  0.00  0.00    +0.143 C 
ATOM      6  C   UNL     1      31.941 -12.729 -21.628  0.00  0.00    +0.037 C 
ENDROOT
BRANCH   3   9
ATOM      7  O   UNL     1      33.521 -15.335 -25.115  0.00  0.00    -0.270 OA
ATOM      8  N   UNL     1      34.661 -15.795 -23.149  0.00  0.00    -0.297 N 
ATOM      9  C   UNL     1      33.799 -15.031 -23.943  0.00  0.00    +0.249 C 
ATOM     10  H   UNL     1      34.836 -15.494 -22.228  0.00  0.00    +0.150 HD
BRANCH   8  11
ATOM     11  C   UNL     1      35.309 -17.002 -23.609  0.00  0.00    +0.117 C 
BRANCH  11  12
ATOM     12  C   UNL     1      35.276 -18.087 -22.573  0.00  0.00    -0.003 C 
ATOM     13  C   UNL     1      34.088 -18.773 -22.319  0.00  0.00    -0.003 C 
ATOM     14  C   UNL     1      36.432 -18.410 -21.863  0.00  0.00    -0.003 C 
ATOM     15  C   UNL     1      35.213 -20.105 -20.648  0.00  0.00    +0.071 C 
ATOM     16  C   UNL     1      34.056 -19.782 -21.357  0.00  0.00    +0.004 C 
ATOM     17  C   UNL     1      36.401 -19.419 -20.900  0.00  0.00    +0.004 C 
BRANCH  15  21
ATOM     18  F   UNL     1      36.071 -20.975 -18.608  0.00  0.00    -0.166 F 
ATOM     19  F   UNL     1      33.964 -21.328 -19.014  0.00  0.00    -0.166 F 
ATOM     20  F   UNL     1      35.476 -22.423 -20.118  0.00  0.00    -0.166 F 
ATOM     21  C   UNL     1      35.180 -21.186 -19.621  0.00  0.00    +0.419 C 
ENDBRANCH  15  21
ENDBRANCH  11  12
ENDBRANCH   8  11
ENDBRANCH   3   9
BRANCH   5  22
ATOM     22  O   UNL     1      32.207 -15.092 -21.588  0.00  0.00    -0.471 OA
ATOM     23  C   UNL     1      32.697 -15.271 -20.260  0.00  0.00    +0.252 C 
ENDBRANCH   5  22
BRANCH   1  24
ATOM     24  C   UNL     1      33.240 -10.091 -24.033  0.00  0.00    +0.080 C 
BRANCH  24  29
ATOM     25  O   UNL     1      31.549  -8.412 -23.642  0.00  0.00    -0.428 OA
ATOM     26  O   UNL     1      34.914  -7.760 -22.979  0.00  0.00    -0.271 OA
ATOM     27  O   UNL     1      30.800  -6.397 -24.422  0.00  0.00    -0.226 OA
ATOM     28  N   UNL     1      32.987  -6.722 -23.752  0.00  0.00    -0.218 N 
ATOM     29  C   UNL     1      32.798  -8.934 -23.161  0.00  0.00    +0.250 C 
ATOM     30  C   UNL     1      33.728  -7.758 -23.268  0.00  0.00    +0.271 C 
ATOM     31  C   UNL     1      31.701  -7.096 -23.983  0.00  0.00    +0.408 C 
ATOM     32  H   UNL     1      33.338  -5.817 -23.915  0.00  0.00    +0.161 HD
ENDBRANCH  24  29
ENDBRANCH   1  24
TORSDOF 7
ENDMDL
