MODEL 1
REMARK VINA RESULT:     -11.4      0.000      0.000
REMARK  Name = 6918852
REMARK  5 active torsions:
REMARK  status: ('A' for Active; 'I' for Inactive)
REMARK    1  A    between atoms: N_1  and  C_13
REMARK    2  A    between atoms: C_7  and  C_23
REMARK    3  A    between atoms: N_12  and  S_18
REMARK    4  A    between atoms: C_23  and  C_26
REMARK    5  A    between atoms: C_27  and  O_32
REMARK                            x       y       z     vdW  Elec       q    Type
REMARK                         _______ _______ _______ _____ _____    ______ ____
ROOT
ATOM      1  N   UNL     1      35.742 -17.864 -21.530  0.00  0.00    -0.270 N 
ATOM      2  N   UNL     1      34.140 -19.386 -20.740  0.00  0.00    -0.323 NA
ATOM      3  N   UNL     1      36.495 -19.795 -20.432  0.00  0.00    -0.170 NA
ATOM      4  N   UNL     1      32.540 -20.938 -19.932  0.00  0.00    -0.332 N 
ATOM      5  C   UNL     1      35.451 -19.050 -20.881  0.00  0.00    +0.146 C 
ATOM      6  C   UNL     1      33.892 -20.549 -20.102  0.00  0.00    +0.194 C 
ATOM      7  C   UNL     1      34.879 -21.377 -19.607  0.00  0.00    +0.103 C 
ATOM      8  C   UNL     1      36.175 -20.945 -19.803  0.00  0.00    +0.119 C 
ATOM      9  H   UNL     1      36.687 -17.611 -21.637  0.00  0.00    +0.159 HD
ATOM     10  H   UNL     1      31.817 -20.365 -20.275  0.00  0.00    +0.145 HD
ATOM     11  H   UNL     1      32.325 -21.780 -19.471  0.00  0.00    +0.145 HD
ENDROOT
BRANCH   1  13
ATOM     12  N   UNL     1      34.082 -14.395 -23.242  0.00  0.00    -0.159 NA
ATOM     13  C   UNL     1      34.731 -16.974 -22.062  0.00  0.00    +0.082 C 
ATOM     14  C   UNL     1      34.682 -15.690 -21.230  0.00  0.00    +0.039 C 
ATOM     15  C   UNL     1      35.045 -16.649 -23.525  0.00  0.00    +0.039 C 
ATOM     16  C   UNL     1      33.705 -14.682 -21.826  0.00  0.00    +0.097 C 
ATOM     17  C   UNL     1      34.063 -15.625 -24.086  0.00  0.00    +0.097 C 
BRANCH  12  18
ATOM     18  S   UNL     1      33.331 -13.020 -23.934  0.00  0.00    +0.046 S 
ATOM     19  O   UNL     1      34.345 -12.025 -24.203  0.00  0.00    -0.157 OA
ATOM     20  O   UNL     1      32.141 -12.710 -23.174  0.00  0.00    -0.157 OA
ATOM     21  C   UNL     1      32.828 -13.722 -25.483  0.00  0.00    +0.196 C 
ENDBRANCH  12  18
ENDBRANCH   1  13
BRANCH   7  23
ATOM     22  O   UNL     1      34.313 -23.646 -19.565  0.00  0.00    -0.286 OA
ATOM     23  C   UNL     1      34.614 -22.631 -18.919  0.00  0.00    +0.206 C 
BRANCH  23  26
ATOM     24  F   UNL     1      37.043 -22.452 -17.557  0.00  0.00    -0.202 F 
ATOM     25  F   UNL     1      37.209 -22.684 -14.848  0.00  0.00    -0.202 F 
ATOM     26  C   UNL     1      34.691 -22.761 -17.434  0.00  0.00    +0.103 C 
ATOM     27  C   UNL     1      33.537 -22.974 -16.714  0.00  0.00    +0.144 C 
ATOM     28  C   UNL     1      35.929 -22.660 -16.840  0.00  0.00    +0.173 C 
ATOM     29  C   UNL     1      33.626 -23.093 -15.327  0.00  0.00    +0.039 C 
ATOM     30  C   UNL     1      36.018 -22.778 -15.453  0.00  0.00    +0.168 C 
ATOM     31  C   UNL     1      34.867 -22.995 -14.697  0.00  0.00    +0.035 C 
BRANCH  27  32
ATOM     32  O   UNL     1      32.316 -23.072 -17.310  0.00  0.00    -0.471 OA
ATOM     33  C   UNL     1      31.173 -23.024 -16.459  0.00  0.00    +0.252 C 
ENDBRANCH  27  32
ENDBRANCH  23  26
ENDBRANCH   7  23
TORSDOF 5
ENDMDL
MODEL 2
REMARK VINA RESULT:     -11.2      1.642      2.233
REMARK  Name = 6918852
REMARK  5 active torsions:
REMARK  status: ('A' for Active; 'I' for Inactive)
REMARK    1  A    between atoms: N_1  and  C_13
REMARK    2  A    between atoms: C_7  and  C_23
REMARK    3  A    between atoms: N_12  and  S_18
REMARK    4  A    between atoms: C_23  and  C_26
REMARK    5  A    between atoms: C_27  and  O_32
REMARK                            x       y       z     vdW  Elec       q    Type
REMARK                         _______ _______ _______ _____ _____    ______ ____
ROOT
ATOM      1  N   UNL     1      35.613 -18.069 -21.327  0.00  0.00    -0.270 N 
ATOM      2  N   UNL     1      33.969 -19.634 -20.732  0.00  0.00    -0.323 NA
ATOM      3  N   UNL     1      36.277 -19.964 -20.116  0.00  0.00    -0.170 NA
ATOM      4  N   UNL     1      32.328 -21.231 -20.118  0.00  0.00    -0.332 N 
ATOM      5  C   UNL     1      35.277 -19.258 -20.706  0.00  0.00    +0.146 C 
ATOM      6  C   UNL     1      33.678 -20.800 -20.116  0.00  0.00    +0.194 C 
ATOM      7  C   UNL     1      34.617 -21.591 -19.487  0.00  0.00    +0.103 C 
ATOM      8  C   UNL     1      35.913 -21.118 -19.519  0.00  0.00    +0.119 C 
ATOM      9  H   UNL     1      36.556 -17.786 -21.314  0.00  0.00    +0.159 HD
ATOM     10  H   UNL     1      31.637 -20.685 -20.559  0.00  0.00    +0.145 HD
ATOM     11  H   UNL     1      32.080 -22.075 -19.678  0.00  0.00    +0.145 HD
ENDROOT
BRANCH   1  13
ATOM     12  N   UNL     1      34.028 -14.611 -23.129  0.00  0.00    -0.159 NA
ATOM     13  C   UNL     1      34.653 -17.217 -21.997  0.00  0.00    +0.082 C 
ATOM     14  C   UNL     1      34.334 -16.005 -21.118  0.00  0.00    +0.039 C 
ATOM     15  C   UNL     1      35.215 -16.762 -23.346  0.00  0.00    +0.039 C 
ATOM     16  C   UNL     1      33.409 -15.028 -21.836  0.00  0.00    +0.097 C 
ATOM     17  C   UNL     1      34.277 -15.773 -24.031  0.00  0.00    +0.097 C 
BRANCH  12  18
ATOM     18  S   UNL     1      33.312 -13.246 -23.876  0.00  0.00    +0.046 S 
ATOM     19  O   UNL     1      34.322 -12.225 -24.041  0.00  0.00    -0.157 OA
ATOM     20  O   UNL     1      32.050 -12.971 -23.226  0.00  0.00    -0.157 OA
ATOM     21  C   UNL     1      32.969 -13.942 -25.470  0.00  0.00    +0.196 C 
ENDBRANCH  12  18
ENDBRANCH   1  13
BRANCH   7  23
ATOM     22  O   UNL     1      34.147 -23.882 -19.487  0.00  0.00    -0.286 OA
ATOM     23  C   UNL     1      34.304 -22.847 -18.823  0.00  0.00    +0.206 C 
BRANCH  23  26
ATOM     24  F   UNL     1      31.803 -23.091 -17.608  0.00  0.00    -0.202 F 
ATOM     25  F   UNL     1      31.515 -23.289 -14.907  0.00  0.00    -0.202 F 
ATOM     26  C   UNL     1      34.160 -22.955 -17.341  0.00  0.00    +0.103 C 
ATOM     27  C   UNL     1      35.286 -22.933 -16.550  0.00  0.00    +0.144 C 
ATOM     28  C   UNL     1      32.890 -23.072 -16.823  0.00  0.00    +0.173 C 
ATOM     29  C   UNL     1      35.134 -23.035 -15.166  0.00  0.00    +0.039 C 
ATOM     30  C   UNL     1      32.738 -23.174 -15.440  0.00  0.00    +0.168 C 
ATOM     31  C   UNL     1      33.860 -23.156 -14.612  0.00  0.00    +0.035 C 
BRANCH  27  32
ATOM     32  O   UNL     1      36.540 -22.817 -17.072  0.00  0.00    -0.471 OA
ATOM     33  C   UNL     1      37.586 -22.461 -16.171  0.00  0.00    +0.252 C 
ENDBRANCH  27  32
ENDBRANCH  23  26
ENDBRANCH   7  23
TORSDOF 5
ENDMDL
MODEL 3
REMARK VINA RESULT:     -10.6      4.319      9.496
REMARK  Name = 6918852
REMARK  5 active torsions:
REMARK  status: ('A' for Active; 'I' for Inactive)
REMARK    1  A    between atoms: N_1  and  C_13
REMARK    2  A    between atoms: C_7  and  C_23
REMARK    3  A    between atoms: N_12  and  S_18
REMARK    4  A    between atoms: C_23  and  C_26
REMARK    5  A    between atoms: C_27  and  O_32
REMARK                            x       y       z     vdW  Elec       q    Type
REMARK                         _______ _______ _______ _____ _____    ______ ____
ROOT
ATOM      1  N   UNL     1      32.843 -22.115 -18.978  0.00  0.00    -0.270 N 
ATOM      2  N   UNL     1      34.891 -21.088 -19.486  0.00  0.00    -0.323 NA
ATOM      3  N   UNL     1      32.861 -20.425 -20.604  0.00  0.00    -0.170 NA
ATOM      4  N   UNL     1      36.947 -20.034 -20.016  0.00  0.00    -0.332 N 
ATOM      5  C   UNL     1      33.553 -21.181 -19.711  0.00  0.00    +0.146 C 
ATOM      6  C   UNL     1      35.551 -20.166 -20.218  0.00  0.00    +0.194 C 
ATOM      7  C   UNL     1      34.944 -19.348 -21.149  0.00  0.00    +0.103 C 
ATOM      8  C   UNL     1      33.584 -19.523 -21.301  0.00  0.00    +0.119 C 
ATOM      9  H   UNL     1      31.874 -22.190 -19.133  0.00  0.00    +0.159 HD
ATOM     10  H   UNL     1      37.405 -20.605 -19.357  0.00  0.00    +0.145 HD
ATOM     11  H   UNL     1      37.459 -19.371 -20.533  0.00  0.00    +0.145 HD
ENDROOT
BRANCH   1  13
ATOM     12  N   UNL     1      34.438 -23.347 -15.283  0.00  0.00    -0.159 NA
ATOM     13  C   UNL     1      33.449 -22.989 -17.996  0.00  0.00    +0.082 C 
ATOM     14  C   UNL     1      34.785 -22.401 -17.534  0.00  0.00    +0.039 C 
ATOM     15  C   UNL     1      32.504 -23.163 -16.804  0.00  0.00    +0.039 C 
ATOM     16  C   UNL     1      35.402 -23.237 -16.418  0.00  0.00    +0.097 C 
ATOM     17  C   UNL     1      33.156 -23.988 -15.698  0.00  0.00    +0.097 C 
BRANCH  12  18
ATOM     18  S   UNL     1      35.102 -23.923 -13.813  0.00  0.00    +0.046 S 
ATOM     19  O   UNL     1      34.020 -24.327 -12.943  0.00  0.00    -0.157 OA
ATOM     20  O   UNL     1      36.129 -23.004 -13.376  0.00  0.00    -0.157 OA
ATOM     21  C   UNL     1      35.896 -25.390 -14.417  0.00  0.00    +0.196 C 
ENDBRANCH  12  18
ENDBRANCH   1  13
BRANCH   7  23
ATOM     22  O   UNL     1      36.827 -18.555 -22.287  0.00  0.00    -0.286 OA
ATOM     23  C   UNL     1      35.654 -18.355 -21.940  0.00  0.00    +0.206 C 
BRANCH  23  26
ATOM     24  F   UNL     1      34.987 -16.367 -20.097  0.00  0.00    -0.202 F 
ATOM     25  F   UNL     1      33.834 -14.018 -20.850  0.00  0.00    -0.202 F 
ATOM     26  C   UNL     1      35.022 -17.071 -22.366  0.00  0.00    +0.103 C 
ATOM     27  C   UNL     1      34.760 -16.858 -23.701  0.00  0.00    +0.144 C 
ATOM     28  C   UNL     1      34.725 -16.144 -21.393  0.00  0.00    +0.173 C 
ATOM     29  C   UNL     1      34.170 -15.652 -24.082  0.00  0.00    +0.039 C 
ATOM     30  C   UNL     1      34.135 -14.938 -21.775  0.00  0.00    +0.168 C 
ATOM     31  C   UNL     1      33.857 -14.693 -23.119  0.00  0.00    +0.035 C 
BRANCH  27  32
ATOM     32  O   UNL     1      35.059 -17.781 -24.657  0.00  0.00    -0.471 OA
ATOM     33  C   UNL     1      33.990 -18.601 -25.122  0.00  0.00    +0.252 C 
ENDBRANCH  27  32
ENDBRANCH  23  26
ENDBRANCH   7  23
TORSDOF 5
ENDMDL
MODEL 4
REMARK VINA RESULT:     -10.5      4.498      9.622
REMARK  Name = 6918852
REMARK  5 active torsions:
REMARK  status: ('A' for Active; 'I' for Inactive)
REMARK    1  A    between atoms: N_1  and  C_13
REMARK    2  A    between atoms: C_7  and  C_23
REMARK    3  A    between atoms: N_12  and  S_18
REMARK    4  A    between atoms: C_23  and  C_26
REMARK    5  A    between atoms: C_27  and  O_32
REMARK                            x       y       z     vdW  Elec       q    Type
REMARK                         _______ _______ _______ _____ _____    ______ ____
ROOT
ATOM      1  N   UNL     1      32.723 -22.181 -18.756  0.00  0.00    -0.270 N 
ATOM      2  N   UNL     1      34.830 -21.303 -19.300  0.00  0.00    -0.323 NA
ATOM      3  N   UNL     1      32.839 -20.528 -20.417  0.00  0.00    -0.170 NA
ATOM      4  N   UNL     1      36.948 -20.399 -19.866  0.00  0.00    -0.332 N 
ATOM      5  C   UNL     1      33.487 -21.311 -19.513  0.00  0.00    +0.146 C 
ATOM      6  C   UNL     1      35.544 -20.442 -20.055  0.00  0.00    +0.194 C 
ATOM      7  C   UNL     1      34.985 -19.604 -20.998  0.00  0.00    +0.103 C 
ATOM      8  C   UNL     1      33.614 -19.691 -21.137  0.00  0.00    +0.119 C 
ATOM      9  H   UNL     1      31.750 -22.194 -18.903  0.00  0.00    +0.159 HD
ATOM     10  H   UNL     1      37.372 -20.987 -19.199  0.00  0.00    +0.145 HD
ATOM     11  H   UNL     1      37.498 -19.783 -20.400  0.00  0.00    +0.145 HD
ENDROOT
BRANCH   1  13
ATOM     12  N   UNL     1      34.358 -23.422 -15.082  0.00  0.00    -0.159 NA
ATOM     13  C   UNL     1      33.278 -23.074 -17.761  0.00  0.00    +0.082 C 
ATOM     14  C   UNL     1      34.692 -22.620 -17.390  0.00  0.00    +0.039 C 
ATOM     15  C   UNL     1      32.382 -23.088 -16.520  0.00  0.00    +0.039 C 
ATOM     16  C   UNL     1      35.269 -23.471 -16.263  0.00  0.00    +0.097 C 
ATOM     17  C   UNL     1      32.993 -23.932 -15.406  0.00  0.00    +0.097 C 
BRANCH  12  18
ATOM     18  S   UNL     1      35.028 -24.005 -13.617  0.00  0.00    +0.046 S 
ATOM     19  O   UNL     1      33.952 -24.454 -12.762  0.00  0.00    -0.157 OA
ATOM     20  O   UNL     1      36.025 -23.065 -13.157  0.00  0.00    -0.157 OA
ATOM     21  C   UNL     1      35.867 -25.437 -14.240  0.00  0.00    +0.196 C 
ENDBRANCH  12  18
ENDBRANCH   1  13
BRANCH   7  23
ATOM     22  O   UNL     1      36.992 -18.711 -21.802  0.00  0.00    -0.286 OA
ATOM     23  C   UNL     1      35.753 -18.676 -21.814  0.00  0.00    +0.206 C 
BRANCH  23  26
ATOM     24  F   UNL     1      35.130 -19.218 -24.480  0.00  0.00    -0.202 F 
ATOM     25  F   UNL     1      33.948 -17.373 -26.098  0.00  0.00    -0.202 F 
ATOM     26  C   UNL     1      35.104 -17.655 -22.690  0.00  0.00    +0.103 C 
ATOM     27  C   UNL     1      34.805 -16.415 -22.174  0.00  0.00    +0.144 C 
ATOM     28  C   UNL     1      34.831 -18.004 -23.994  0.00  0.00    +0.173 C 
ATOM     29  C   UNL     1      34.199 -15.473 -23.007  0.00  0.00    +0.039 C 
ATOM     30  C   UNL     1      34.225 -17.062 -24.825  0.00  0.00    +0.168 C 
ATOM     31  C   UNL     1      33.909 -15.797 -24.332  0.00  0.00    +0.035 C 
BRANCH  27  32
ATOM     32  O   UNL     1      35.078 -16.078 -20.883  0.00  0.00    -0.471 OA
ATOM     33  C   UNL     1      34.460 -14.898 -20.375  0.00  0.00    +0.252 C 
ENDBRANCH  27  32
ENDBRANCH  23  26
ENDBRANCH   7  23
TORSDOF 5
ENDMDL
MODEL 5
REMARK VINA RESULT:      -9.8      4.936      9.870
REMARK  Name = 6918852
REMARK  5 active torsions:
REMARK  status: ('A' for Active; 'I' for Inactive)
REMARK    1  A    between atoms: N_1  and  C_13
REMARK    2  A    between atoms: C_7  and  C_23
REMARK    3  A    between atoms: N_12  and  S_18
REMARK    4  A    between atoms: C_23  and  C_26
REMARK    5  A    between atoms: C_27  and  O_32
REMARK                            x       y       z     vdW  Elec       q    Type
REMARK                         _______ _______ _______ _____ _____    ______ ____
ROOT
ATOM      1  N   UNL     1      37.177 -22.002 -17.349  0.00  0.00    -0.270 N 
ATOM      2  N   UNL     1      35.051 -21.878 -18.335  0.00  0.00    -0.323 NA
ATOM      3  N   UNL     1      36.879 -20.539 -19.159  0.00  0.00    -0.170 NA
ATOM      4  N   UNL     1      32.913 -21.735 -19.348  0.00  0.00    -0.332 N 
ATOM      5  C   UNL     1      36.344 -21.456 -18.310  0.00  0.00    +0.146 C 
ATOM      6  C   UNL     1      34.267 -21.325 -19.285  0.00  0.00    +0.194 C 
ATOM      7  C   UNL     1      34.711 -20.387 -20.195  0.00  0.00    +0.103 C 
ATOM      8  C   UNL     1      36.039 -20.028 -20.083  0.00  0.00    +0.119 C 
ATOM      9  H   UNL     1      38.115 -21.705 -17.323  0.00  0.00    +0.159 HD
ATOM     10  H   UNL     1      32.570 -22.403 -18.711  0.00  0.00    +0.145 HD
ATOM     11  H   UNL     1      32.314 -21.352 -20.029  0.00  0.00    +0.145 HD
ENDROOT
BRANCH   1  13
ATOM     12  N   UNL     1      36.662 -23.851 -13.604  0.00  0.00    -0.159 NA
ATOM     13  C   UNL     1      36.743 -22.986 -16.380  0.00  0.00    +0.082 C 
ATOM     14  C   UNL     1      37.961 -23.601 -15.686  0.00  0.00    +0.039 C 
ATOM     15  C   UNL     1      35.820 -22.327 -15.352  0.00  0.00    +0.039 C 
ATOM     16  C   UNL     1      37.539 -24.563 -14.580  0.00  0.00    +0.097 C 
ATOM     17  C   UNL     1      35.431 -23.309 -14.250  0.00  0.00    +0.097 C 
BRANCH  12  18
ATOM     18  S   UNL     1      36.410 -24.666 -12.118  0.00  0.00    +0.046 S 
ATOM     19  O   UNL     1      34.989 -24.857 -11.930  0.00  0.00    -0.157 OA
ATOM     20  O   UNL     1      37.237 -24.048 -11.105  0.00  0.00    -0.157 OA
ATOM     21  C   UNL     1      37.125 -26.235 -12.531  0.00  0.00    +0.196 C 
ENDBRANCH  12  18
ENDBRANCH   1  13
BRANCH   7  23
ATOM     22  O   UNL     1      32.734 -20.242 -21.436  0.00  0.00    -0.286 OA
ATOM     23  C   UNL     1      33.868 -19.790 -21.219  0.00  0.00    +0.206 C 
BRANCH  23  26
ATOM     24  F   UNL     1      33.663 -17.169 -20.283  0.00  0.00    -0.202 F 
ATOM     25  F   UNL     1      34.466 -15.031 -21.767  0.00  0.00    -0.202 F 
ATOM     26  C   UNL     1      34.311 -18.627 -22.043  0.00  0.00    +0.103 C 
ATOM     27  C   UNL     1      34.835 -18.848 -23.297  0.00  0.00    +0.144 C 
ATOM     28  C   UNL     1      34.175 -17.366 -21.506  0.00  0.00    +0.173 C 
ATOM     29  C   UNL     1      35.245 -17.750 -24.054  0.00  0.00    +0.039 C 
ATOM     30  C   UNL     1      34.586 -16.269 -22.263  0.00  0.00    +0.168 C 
ATOM     31  C   UNL     1      35.120 -16.461 -23.537  0.00  0.00    +0.035 C 
BRANCH  27  32
ATOM     32  O   UNL     1      34.966 -20.100 -23.820  0.00  0.00    -0.471 OA
ATOM     33  C   UNL     1      34.901 -20.219 -25.239  0.00  0.00    +0.252 C 
ENDBRANCH  27  32
ENDBRANCH  23  26
ENDBRANCH   7  23
TORSDOF 5
ENDMDL
MODEL 6
REMARK VINA RESULT:      -9.7      7.410     10.396
REMARK  Name = 6918852
REMARK  5 active torsions:
REMARK  status: ('A' for Active; 'I' for Inactive)
REMARK    1  A    between atoms: N_1  and  C_13
REMARK    2  A    between atoms: C_7  and  C_23
REMARK    3  A    between atoms: N_12  and  S_18
REMARK    4  A    between atoms: C_23  and  C_26
REMARK    5  A    between atoms: C_27  and  O_32
REMARK                            x       y       z     vdW  Elec       q    Type
REMARK                         _______ _______ _______ _____ _____    ______ ____
ROOT
ATOM      1  N   UNL     1      33.384  -8.377 -24.050  0.00  0.00    -0.270 N 
ATOM      2  N   UNL     1      32.072 -10.049 -23.055  0.00  0.00    -0.323 NA
ATOM      3  N   UNL     1      34.204 -10.575 -24.049  0.00  0.00    -0.170 NA
ATOM      4  N   UNL     1      30.765 -11.756 -22.056  0.00  0.00    -0.332 N 
ATOM      5  C   UNL     1      33.215  -9.707 -23.708  0.00  0.00    +0.146 C 
ATOM      6  C   UNL     1      31.940 -11.355 -22.737  0.00  0.00    +0.194 C 
ATOM      7  C   UNL     1      32.884 -12.316 -23.037  0.00  0.00    +0.103 C 
ATOM      8  C   UNL     1      34.007 -11.863 -23.700  0.00  0.00    +0.119 C 
ATOM      9  H   UNL     1      34.208  -8.119 -24.521  0.00  0.00    +0.159 HD
ATOM     10  H   UNL     1      30.075 -11.091 -21.829  0.00  0.00    +0.145 HD
ATOM     11  H   UNL     1      30.637 -12.700 -21.809  0.00  0.00    +0.145 HD
ENDROOT
BRANCH   1  13
ATOM     12  N   UNL     1      31.837  -4.512 -23.434  0.00  0.00    -0.159 NA
ATOM     13  C   UNL     1      32.413  -7.346 -23.751  0.00  0.00    +0.082 C 
ATOM     14  C   UNL     1      32.855  -6.560 -22.514  0.00  0.00    +0.039 C 
ATOM     15  C   UNL     1      32.268  -6.408 -24.952  0.00  0.00    +0.039 C 
ATOM     16  C   UNL     1      31.913  -5.394 -22.232  0.00  0.00    +0.097 C 
ATOM     17  C   UNL     1      31.335  -5.243 -24.635  0.00  0.00    +0.097 C 
BRANCH  12  18
ATOM     18  S   UNL     1      31.132  -2.973 -23.168  0.00  0.00    +0.046 S 
ATOM     19  O   UNL     1      32.184  -2.028 -22.863  0.00  0.00    -0.157 OA
ATOM     20  O   UNL     1      29.980  -3.133 -22.309  0.00  0.00    -0.157 OA
ATOM     21  C   UNL     1      30.553  -2.638 -24.810  0.00  0.00    +0.196 C 
ENDBRANCH  12  18
ENDBRANCH   1  13
BRANCH   7  23
ATOM     22  O   UNL     1      31.959 -14.073 -21.803  0.00  0.00    -0.286 OA
ATOM     23  C   UNL     1      32.744 -13.723 -22.695  0.00  0.00    +0.206 C 
BRANCH  23  26
ATOM     24  F   UNL     1      34.567 -15.328 -21.321  0.00  0.00    -0.202 F 
ATOM     25  F   UNL     1      35.994 -17.291 -22.558  0.00  0.00    -0.202 F 
ATOM     26  C   UNL     1      33.520 -14.795 -23.386  0.00  0.00    +0.103 C 
ATOM     27  C   UNL     1      33.336 -15.000 -24.735  0.00  0.00    +0.144 C 
ATOM     28  C   UNL     1      34.399 -15.542 -22.634  0.00  0.00    +0.173 C 
ATOM     29  C   UNL     1      34.069 -16.007 -25.364  0.00  0.00    +0.039 C 
ATOM     30  C   UNL     1      35.131 -16.548 -23.264  0.00  0.00    +0.168 C 
ATOM     31  C   UNL     1      34.966 -16.780 -24.629  0.00  0.00    +0.035 C 
BRANCH  27  32
ATOM     32  O   UNL     1      32.463 -14.257 -25.471  0.00  0.00    -0.471 OA
ATOM     33  C   UNL     1      32.919 -13.788 -26.737  0.00  0.00    +0.252 C 
ENDBRANCH  27  32
ENDBRANCH  23  26
ENDBRANCH   7  23
TORSDOF 5
ENDMDL
MODEL 7
REMARK VINA RESULT:      -9.6      4.484     10.401
REMARK  Name = 6918852
REMARK  5 active torsions:
REMARK  status: ('A' for Active; 'I' for Inactive)
REMARK    1  A    between atoms: N_1  and  C_13
REMARK    2  A    between atoms: C_7  and  C_23
REMARK    3  A    between atoms: N_12  and  S_18
REMARK    4  A    between atoms: C_23  and  C_26
REMARK    5  A    between atoms: C_27  and  O_32
REMARK                            x       y       z     vdW  Elec       q    Type
REMARK                         _______ _______ _______ _____ _____    ______ ____
ROOT
ATOM      1  N   UNL     1      35.395 -18.464 -21.829  0.00  0.00    -0.270 N 
ATOM      2  N   UNL     1      33.851 -16.750 -21.398  0.00  0.00    -0.323 NA
ATOM      3  N   UNL     1      35.320 -16.643 -23.306  0.00  0.00    -0.170 NA
ATOM      4  N   UNL     1      32.300 -15.006 -20.984  0.00  0.00    -0.332 N 
ATOM      5  C   UNL     1      34.839 -17.250 -22.188  0.00  0.00    +0.146 C 
ATOM      6  C   UNL     1      33.332 -15.564 -21.778  0.00  0.00    +0.194 C 
ATOM      7  C   UNL     1      33.748 -14.867 -22.894  0.00  0.00    +0.103 C 
ATOM      8  C   UNL     1      34.755 -15.461 -23.627  0.00  0.00    +0.119 C 
ATOM      9  H   UNL     1      36.109 -18.835 -22.395  0.00  0.00    +0.159 HD
ATOM     10  H   UNL     1      31.984 -15.482 -20.182  0.00  0.00    +0.145 HD
ATOM     11  H   UNL     1      31.899 -14.142 -21.233  0.00  0.00    +0.145 HD
ENDROOT
BRANCH   1  13
ATOM     12  N   UNL     1      34.113 -21.761 -19.548  0.00  0.00    -0.159 NA
ATOM     13  C   UNL     1      34.982 -19.219 -20.665  0.00  0.00    +0.082 C 
ATOM     14  C   UNL     1      33.562 -19.753 -20.870  0.00  0.00    +0.039 C 
ATOM     15  C   UNL     1      35.956 -20.375 -20.425  0.00  0.00    +0.039 C 
ATOM     16  C   UNL     1      33.133 -20.646 -19.710  0.00  0.00    +0.097 C 
ATOM     17  C   UNL     1      35.491 -21.260 -19.272  0.00  0.00    +0.097 C 
BRANCH  12  18
ATOM     18  S   UNL     1      33.591 -23.053 -18.552  0.00  0.00    +0.046 S 
ATOM     19  O   UNL     1      33.823 -24.299 -19.249  0.00  0.00    -0.157 OA
ATOM     20  O   UNL     1      32.297 -22.719 -17.999  0.00  0.00    -0.157 OA
ATOM     21  C   UNL     1      34.795 -22.917 -17.257  0.00  0.00    +0.196 C 
ENDBRANCH  12  18
ENDBRANCH   1  13
BRANCH   7  23
ATOM     22  O   UNL     1      32.407 -12.980 -22.561  0.00  0.00    -0.286 OA
ATOM     23  C   UNL     1      33.190 -13.588 -23.306  0.00  0.00    +0.206 C 
BRANCH  23  26
ATOM     24  F   UNL     1      34.627 -11.200 -23.451  0.00  0.00    -0.202 F 
ATOM     25  F   UNL     1      35.248 -10.022 -25.827  0.00  0.00    -0.202 F 
ATOM     26  C   UNL     1      33.524 -12.953 -24.615  0.00  0.00    +0.103 C 
ATOM     27  C   UNL     1      33.114 -13.557 -25.782  0.00  0.00    +0.144 C 
ATOM     28  C   UNL     1      34.236 -11.775 -24.598  0.00  0.00    +0.173 C 
ATOM     29  C   UNL     1      33.435 -12.951 -26.998  0.00  0.00    +0.039 C 
ATOM     30  C   UNL     1      34.556 -11.169 -25.813  0.00  0.00    +0.168 C 
ATOM     31  C   UNL     1      34.156 -11.757 -27.012  0.00  0.00    +0.035 C 
BRANCH  27  32
ATOM     32  O   UNL     1      32.410 -14.724 -25.790  0.00  0.00    -0.471 OA
ATOM     33  C   UNL     1      32.935 -15.792 -26.574  0.00  0.00    +0.252 C 
ENDBRANCH  27  32
ENDBRANCH  23  26
ENDBRANCH   7  23
TORSDOF 5
ENDMDL
MODEL 8
REMARK VINA RESULT:      -9.6      7.401     13.052
REMARK  Name = 6918852
REMARK  5 active torsions:
REMARK  status: ('A' for Active; 'I' for Inactive)
REMARK    1  A    between atoms: N_1  and  C_13
REMARK    2  A    between atoms: C_7  and  C_23
REMARK    3  A    between atoms: N_12  and  S_18
REMARK    4  A    between atoms: C_23  and  C_26
REMARK    5  A    between atoms: C_27  and  O_32
REMARK                            x       y       z     vdW  Elec       q    Type
REMARK                         _______ _______ _______ _____ _____    ______ ____
ROOT
ATOM      1  N   UNL     1      32.701 -13.123 -23.006  0.00  0.00    -0.270 N 
ATOM      2  N   UNL     1      34.144 -11.413 -23.713  0.00  0.00    -0.323 NA
ATOM      3  N   UNL     1      31.901 -10.918 -22.982  0.00  0.00    -0.170 NA
ATOM      4  N   UNL     1      35.584  -9.667 -24.422  0.00  0.00    -0.332 N 
ATOM      5  C   UNL     1      32.922 -11.778 -23.240  0.00  0.00    +0.146 C 
ATOM      6  C   UNL     1      34.325 -10.093 -23.930  0.00  0.00    +0.194 C 
ATOM      7  C   UNL     1      33.355  -9.138 -23.699  0.00  0.00    +0.103 C 
ATOM      8  C   UNL     1      32.151  -9.613 -23.220  0.00  0.00    +0.119 C 
ATOM      9  H   UNL     1      31.820 -13.397 -22.663  0.00  0.00    +0.159 HD
ATOM     10  H   UNL     1      36.293 -10.328 -24.595  0.00  0.00    +0.145 HD
ATOM     11  H   UNL     1      35.749  -8.712 -24.591  0.00  0.00    +0.145 HD
ENDROOT
BRANCH   1  13
ATOM     12  N   UNL     1      34.368 -16.979 -23.258  0.00  0.00    -0.159 NA
ATOM     13  C   UNL     1      33.695 -14.149 -23.239  0.00  0.00    +0.082 C 
ATOM     14  C   UNL     1      33.942 -14.933 -21.948  0.00  0.00    +0.039 C 
ATOM     15  C   UNL     1      33.220 -15.088 -24.350  0.00  0.00    +0.039 C 
ATOM     16  C   UNL     1      34.904 -16.095 -22.181  0.00  0.00    +0.097 C 
ATOM     17  C   UNL     1      34.192 -16.248 -24.547  0.00  0.00    +0.097 C 
BRANCH  12  18
ATOM     18  S   UNL     1      35.120 -18.513 -23.385  0.00  0.00    +0.046 S 
ATOM     19  O   UNL     1      36.505 -18.385 -22.990  0.00  0.00    -0.157 OA
ATOM     20  O   UNL     1      34.739 -19.114 -24.644  0.00  0.00    -0.157 OA
ATOM     21  C   UNL     1      34.255 -19.360 -22.088  0.00  0.00    +0.196 C 
ENDBRANCH  12  18
ENDBRANCH   1  13
BRANCH   7  23
ATOM     22  O   UNL     1      34.531  -7.315 -24.574  0.00  0.00    -0.286 OA
ATOM     23  C   UNL     1      33.548  -7.715 -23.932  0.00  0.00    +0.206 C 
BRANCH  23  26
ATOM     24  F   UNL     1      32.153  -6.031 -25.666  0.00  0.00    -0.202 F 
ATOM     25  F   UNL     1      30.409  -4.143 -24.765  0.00  0.00    -0.202 F 
ATOM     26  C   UNL     1      32.595  -6.685 -23.424  0.00  0.00    +0.103 C 
ATOM     27  C   UNL     1      32.396  -6.558 -22.068  0.00  0.00    +0.144 C 
ATOM     28  C   UNL     1      31.947  -5.894 -24.348  0.00  0.00    +0.173 C 
ATOM     29  C   UNL     1      31.501  -5.590 -21.611  0.00  0.00    +0.039 C 
ATOM     30  C   UNL     1      31.053  -4.927 -23.890  0.00  0.00    +0.168 C 
ATOM     31  C   UNL     1      30.830  -4.775 -22.522  0.00  0.00    +0.035 C 
BRANCH  27  32
ATOM     32  O   UNL     1      33.040  -7.346 -21.162  0.00  0.00    -0.471 OA
ATOM     33  C   UNL     1      32.281  -7.805 -20.047  0.00  0.00    +0.252 C 
ENDBRANCH  27  32
ENDBRANCH  23  26
ENDBRANCH   7  23
TORSDOF 5
ENDMDL
MODEL 9
REMARK VINA RESULT:      -9.6      4.354     10.464
REMARK  Name = 6918852
REMARK  5 active torsions:
REMARK  status: ('A' for Active; 'I' for Inactive)
REMARK    1  A    between atoms: N_1  and  C_13
REMARK    2  A    between atoms: C_7  and  C_23
REMARK    3  A    between atoms: N_12  and  S_18
REMARK    4  A    between atoms: C_23  and  C_26
REMARK    5  A    between atoms: C_27  and  O_32
REMARK                            x       y       z     vdW  Elec       q    Type
REMARK                         _______ _______ _______ _____ _____    ______ ____
ROOT
ATOM      1  N   UNL     1      35.381 -18.701 -21.816  0.00  0.00    -0.270 N 
ATOM      2  N   UNL     1      33.826 -17.008 -21.347  0.00  0.00    -0.323 NA
ATOM      3  N   UNL     1      35.189 -16.923 -23.333  0.00  0.00    -0.170 NA
ATOM      4  N   UNL     1      32.261 -15.285 -20.896  0.00  0.00    -0.332 N 
ATOM      5  C   UNL     1      34.781 -17.508 -22.176  0.00  0.00    +0.146 C 
ATOM      6  C   UNL     1      33.261 -15.843 -21.730  0.00  0.00    +0.194 C 
ATOM      7  C   UNL     1      33.602 -15.169 -22.884  0.00  0.00    +0.103 C 
ATOM      8  C   UNL     1      34.582 -15.762 -23.655  0.00  0.00    +0.119 C 
ATOM      9  H   UNL     1      36.072 -19.073 -22.409  0.00  0.00    +0.159 HD
ATOM     10  H   UNL     1      31.998 -15.746 -20.066  0.00  0.00    +0.145 HD
ATOM     11  H   UNL     1      31.829 -14.436 -21.146  0.00  0.00    +0.145 HD
ENDROOT
BRANCH   1  13
ATOM     12  N   UNL     1      34.400 -21.981 -19.367  0.00  0.00    -0.159 NA
ATOM     13  C   UNL     1      35.047 -19.432 -20.611  0.00  0.00    +0.082 C 
ATOM     14  C   UNL     1      33.672 -20.085 -20.766  0.00  0.00    +0.039 C 
ATOM     15  C   UNL     1      36.114 -20.496 -20.339  0.00  0.00    +0.039 C 
ATOM     16  C   UNL     1      33.332 -20.955 -19.560  0.00  0.00    +0.097 C 
ATOM     17  C   UNL     1      35.738 -21.361 -19.139  0.00  0.00    +0.097 C 
BRANCH  12  18
ATOM     18  S   UNL     1      33.998 -23.263 -18.305  0.00  0.00    +0.046 S 
ATOM     19  O   UNL     1      34.974 -23.306 -17.239  0.00  0.00    -0.157 OA
ATOM     20  O   UNL     1      33.677 -24.434 -19.092  0.00  0.00    -0.157 OA
ATOM     21  C   UNL     1      32.486 -22.617 -17.640  0.00  0.00    +0.196 C 
ENDBRANCH  12  18
ENDBRANCH   1  13
BRANCH   7  23
ATOM     22  O   UNL     1      32.145 -13.364 -22.583  0.00  0.00    -0.286 OA
ATOM     23  C   UNL     1      32.995 -13.913 -23.299  0.00  0.00    +0.206 C 
BRANCH  23  26
ATOM     24  F   UNL     1      32.698 -15.183 -25.767  0.00  0.00    -0.202 F 
ATOM     25  F   UNL     1      33.349 -13.964 -28.114  0.00  0.00    -0.202 F 
ATOM     26  C   UNL     1      33.356 -13.233 -24.578  0.00  0.00    +0.103 C 
ATOM     27  C   UNL     1      33.849 -11.948 -24.545  0.00  0.00    +0.144 C 
ATOM     28  C   UNL     1      33.179 -13.931 -25.752  0.00  0.00    +0.173 C 
ATOM     29  C   UNL     1      34.181 -11.328 -25.749  0.00  0.00    +0.039 C 
ATOM     30  C   UNL     1      33.511 -13.310 -26.956  0.00  0.00    +0.168 C 
ATOM     31  C   UNL     1      34.012 -12.009 -26.955  0.00  0.00    +0.035 C 
BRANCH  27  32
ATOM     32  O   UNL     1      34.021 -11.266 -23.378  0.00  0.00    -0.471 OA
ATOM     33  C   UNL     1      33.322 -10.030 -23.241  0.00  0.00    +0.252 C 
ENDBRANCH  27  32
ENDBRANCH  23  26
ENDBRANCH   7  23
TORSDOF 5
ENDMDL
