MODEL 1
REMARK VINA RESULT:      -7.2      0.000      0.000
REMARK  Name = 4149241
REMARK  4 active torsions:
REMARK  status: ('A' for Active; 'I' for Inactive)
REMARK    1  A    between atoms: N_2  and  C_7
REMARK    2  A    between atoms: N_3  and  C_13
REMARK    3  A    between atoms: C_13  and  C_15
REMARK    4  A    between atoms: C_15  and  O_16
REMARK                            x       y       z     vdW  Elec       q    Type
REMARK                         _______ _______ _______ _____ _____    ______ ____
ROOT
ATOM      1  O   UNL     1      34.590 -24.095 -12.675  0.00  0.00    -0.253 OA
ATOM      2  N   UNL     1      33.088 -24.461 -14.407  0.00  0.00    -0.291 N 
ATOM      3  N   UNL     1      35.248 -25.224 -14.593  0.00  0.00    -0.279 N 
ATOM      4  C   UNL     1      34.331 -24.550 -13.789  0.00  0.00    +0.301 C 
ATOM      5  H   UNL     1      32.980 -24.858 -15.301  0.00  0.00    +0.151 HD
ATOM      6  H   UNL     1      34.949 -25.555 -15.471  0.00  0.00    +0.151 HD
ENDROOT
BRANCH   2   7
ATOM      7  C   UNL     1      31.944 -23.809 -13.798  0.00  0.00    +0.073 C 
ATOM      8  C   UNL     1      31.448 -22.670 -14.695  0.00  0.00    +0.020 C 
ATOM      9  C   UNL     1      30.837 -24.835 -13.527  0.00  0.00    +0.020 C 
ATOM     10  C   UNL     1      30.771 -23.173 -15.970  0.00  0.00    +0.002 C 
ATOM     11  C   UNL     1      30.163 -25.329 -14.807  0.00  0.00    +0.002 C 
ATOM     12  C   UNL     1      29.660 -24.171 -15.663  0.00  0.00    +0.000 C 
ENDBRANCH   2   7
BRANCH   3  13
ATOM     13  C   UNL     1      36.615 -25.458 -14.194  0.00  0.00    +0.202 C 
BRANCH  13  15
ATOM     14  O   UNL     1      38.280 -27.157 -14.566  0.00  0.00    -0.248 OA
ATOM     15  C   UNL     1      37.259 -26.596 -14.945  0.00  0.00    +0.334 C 
BRANCH  15  16
ATOM     16  O   UNL     1      36.602 -26.937 -16.078  0.00  0.00    -0.479 OA
ATOM     17  H   UNL     1      35.821 -27.451 -16.029  0.00  0.00    +0.295 HD
ENDBRANCH  15  16
ENDBRANCH  13  15
ENDBRANCH   3  13
TORSDOF 4
ENDMDL
MODEL 2
REMARK VINA RESULT:      -6.9      9.215     10.368
REMARK  Name = 4149241
REMARK  4 active torsions:
REMARK  status: ('A' for Active; 'I' for Inactive)
REMARK    1  A    between atoms: N_2  and  C_7
REMARK    2  A    between atoms: N_3  and  C_13
REMARK    3  A    between atoms: C_13  and  C_15
REMARK    4  A    between atoms: C_15  and  O_16
REMARK                            x       y       z     vdW  Elec       q    Type
REMARK                         _______ _______ _______ _____ _____    ______ ____
ROOT
ATOM      1  O   UNL     1      36.014 -18.256 -20.576  0.00  0.00    -0.253 OA
ATOM      2  N   UNL     1      34.230 -17.197 -21.619  0.00  0.00    -0.291 N 
ATOM      3  N   UNL     1      34.085 -19.432 -21.106  0.00  0.00    -0.279 N 
ATOM      4  C   UNL     1      34.882 -18.290 -21.057  0.00  0.00    +0.301 C 
ATOM      5  H   UNL     1      33.322 -17.325 -21.977  0.00  0.00    +0.151 HD
ATOM      6  H   UNL     1      33.189 -19.364 -21.508  0.00  0.00    +0.151 HD
ENDROOT
BRANCH   2   7
ATOM      7  C   UNL     1      34.825 -15.876 -21.703  0.00  0.00    +0.073 C 
ATOM      8  C   UNL     1      34.476 -15.227 -23.046  0.00  0.00    +0.020 C 
ATOM      9  C   UNL     1      34.361 -15.014 -20.524  0.00  0.00    +0.020 C 
ATOM     10  C   UNL     1      33.006 -14.821 -23.143  0.00  0.00    +0.002 C 
ATOM     11  C   UNL     1      32.891 -14.608 -20.630  0.00  0.00    +0.002 C 
ATOM     12  C   UNL     1      32.585 -13.944 -21.969  0.00  0.00    +0.000 C 
ENDBRANCH   2   7
BRANCH   3  13
ATOM     13  C   UNL     1      34.516 -20.710 -20.591  0.00  0.00    +0.202 C 
BRANCH  13  15
ATOM     14  O   UNL     1      33.509 -22.598 -19.487  0.00  0.00    -0.248 OA
ATOM     15  C   UNL     1      33.447 -21.413 -19.795  0.00  0.00    +0.334 C 
BRANCH  15  16
ATOM     16  O   UNL     1      32.412 -20.612 -19.452  0.00  0.00    -0.479 OA
ATOM     17  H   UNL     1      32.528 -19.683 -19.427  0.00  0.00    +0.295 HD
ENDBRANCH  15  16
ENDBRANCH  13  15
ENDBRANCH   3  13
TORSDOF 4
ENDMDL
MODEL 3
REMARK VINA RESULT:      -6.8      1.249      1.273
REMARK  Name = 4149241
REMARK  4 active torsions:
REMARK  status: ('A' for Active; 'I' for Inactive)
REMARK    1  A    between atoms: N_2  and  C_7
REMARK    2  A    between atoms: N_3  and  C_13
REMARK    3  A    between atoms: C_13  and  C_15
REMARK    4  A    between atoms: C_15  and  O_16
REMARK                            x       y       z     vdW  Elec       q    Type
REMARK                         _______ _______ _______ _____ _____    ______ ____
ROOT
ATOM      1  O   UNL     1      34.310 -23.910 -12.459  0.00  0.00    -0.253 OA
ATOM      2  N   UNL     1      32.976 -24.338 -14.311  0.00  0.00    -0.291 N 
ATOM      3  N   UNL     1      35.163 -25.043 -14.295  0.00  0.00    -0.279 N 
ATOM      4  C   UNL     1      34.162 -24.385 -13.584  0.00  0.00    +0.301 C 
ATOM      5  H   UNL     1      32.957 -24.749 -15.205  0.00  0.00    +0.151 HD
ATOM      6  H   UNL     1      34.952 -25.393 -15.191  0.00  0.00    +0.151 HD
ENDROOT
BRANCH   2   7
ATOM      7  C   UNL     1      31.766 -23.710 -13.814  0.00  0.00    +0.073 C 
ATOM      8  C   UNL     1      31.256 -22.678 -14.825  0.00  0.00    +0.020 C 
ATOM      9  C   UNL     1      30.706 -24.776 -13.515  0.00  0.00    +0.020 C 
ATOM     10  C   UNL     1      30.678 -23.320 -16.086  0.00  0.00    +0.002 C 
ATOM     11  C   UNL     1      30.130 -25.411 -14.781  0.00  0.00    +0.002 C 
ATOM     12  C   UNL     1      29.609 -24.356 -15.753  0.00  0.00    +0.000 C 
ENDBRANCH   2   7
BRANCH   3  13
ATOM     13  C   UNL     1      36.496 -25.235 -13.774  0.00  0.00    +0.202 C 
BRANCH  13  15
ATOM     14  O   UNL     1      38.692 -24.329 -14.160  0.00  0.00    -0.248 OA
ATOM     15  C   UNL     1      37.546 -24.494 -14.560  0.00  0.00    +0.334 C 
BRANCH  15  16
ATOM     16  O   UNL     1      37.102 -24.027 -15.751  0.00  0.00    -0.479 OA
ATOM     17  H   UNL     1      36.716 -23.175 -15.805  0.00  0.00    +0.295 HD
ENDBRANCH  15  16
ENDBRANCH  13  15
ENDBRANCH   3  13
TORSDOF 4
ENDMDL
MODEL 4
REMARK VINA RESULT:      -6.7      8.524      9.728
REMARK  Name = 4149241
REMARK  4 active torsions:
REMARK  status: ('A' for Active; 'I' for Inactive)
REMARK    1  A    between atoms: N_2  and  C_7
REMARK    2  A    between atoms: N_3  and  C_13
REMARK    3  A    between atoms: C_13  and  C_15
REMARK    4  A    between atoms: C_15  and  O_16
REMARK                            x       y       z     vdW  Elec       q    Type
REMARK                         _______ _______ _______ _____ _____    ______ ____
ROOT
ATOM      1  O   UNL     1      35.630 -19.909 -20.235  0.00  0.00    -0.253 OA
ATOM      2  N   UNL     1      34.463 -19.355 -22.164  0.00  0.00    -0.291 N 
ATOM      3  N   UNL     1      33.435 -20.603 -20.531  0.00  0.00    -0.279 N 
ATOM      4  C   UNL     1      34.606 -19.951 -20.915  0.00  0.00    +0.301 C 
ATOM      5  H   UNL     1      33.601 -19.445 -22.631  0.00  0.00    +0.151 HD
ATOM      6  H   UNL     1      32.663 -20.581 -21.140  0.00  0.00    +0.151 HD
ENDROOT
BRANCH   2   7
ATOM      7  C   UNL     1      35.525 -18.609 -22.813  0.00  0.00    +0.073 C 
ATOM      8  C   UNL     1      35.424 -18.765 -24.333  0.00  0.00    +0.020 C 
ATOM      9  C   UNL     1      35.464 -17.136 -22.393  0.00  0.00    +0.020 C 
ATOM     10  C   UNL     1      34.227 -18.020 -24.927  0.00  0.00    +0.002 C 
ATOM     11  C   UNL     1      34.268 -16.398 -22.993  0.00  0.00    +0.002 C 
ATOM     12  C   UNL     1      34.213 -16.554 -24.510  0.00  0.00    +0.000 C 
ENDBRANCH   2   7
BRANCH   3  13
ATOM     13  C   UNL     1      33.307 -21.305 -19.276  0.00  0.00    +0.202 C 
BRANCH  13  15
ATOM     14  O   UNL     1      33.867 -23.608 -19.700  0.00  0.00    -0.248 OA
ATOM     15  C   UNL     1      34.177 -22.533 -19.199  0.00  0.00    +0.334 C 
BRANCH  15  16
ATOM     16  O   UNL     1      35.334 -22.336 -18.524  0.00  0.00    -0.479 OA
ATOM     17  H   UNL     1      35.746 -21.496 -18.538  0.00  0.00    +0.295 HD
ENDBRANCH  15  16
ENDBRANCH  13  15
ENDBRANCH   3  13
TORSDOF 4
ENDMDL
MODEL 5
REMARK VINA RESULT:      -6.6     12.249     13.669
REMARK  Name = 4149241
REMARK  4 active torsions:
REMARK  status: ('A' for Active; 'I' for Inactive)
REMARK    1  A    between atoms: N_2  and  C_7
REMARK    2  A    between atoms: N_3  and  C_13
REMARK    3  A    between atoms: C_13  and  C_15
REMARK    4  A    between atoms: C_15  and  O_16
REMARK                            x       y       z     vdW  Elec       q    Type
REMARK                         _______ _______ _______ _____ _____    ______ ____
ROOT
ATOM      1  O   UNL     1      34.545 -16.569 -25.742  0.00  0.00    -0.253 OA
ATOM      2  N   UNL     1      34.705 -16.942 -23.456  0.00  0.00    -0.291 N 
ATOM      3  N   UNL     1      33.612 -15.075 -24.232  0.00  0.00    -0.279 N 
ATOM      4  C   UNL     1      34.310 -16.228 -24.584  0.00  0.00    +0.301 C 
ATOM      5  H   UNL     1      34.467 -16.586 -22.569  0.00  0.00    +0.151 HD
ATOM      6  H   UNL     1      33.469 -14.884 -23.277  0.00  0.00    +0.151 HD
ENDROOT
BRANCH   2   7
ATOM      7  C   UNL     1      35.450 -18.185 -23.524  0.00  0.00    +0.073 C 
ATOM      8  C   UNL     1      36.526 -18.213 -22.435  0.00  0.00    +0.020 C 
ATOM      9  C   UNL     1      34.495 -19.378 -23.403  0.00  0.00    +0.020 C 
ATOM     10  C   UNL     1      35.944 -18.374 -21.031  0.00  0.00    +0.002 C 
ATOM     11  C   UNL     1      33.920 -19.534 -21.995  0.00  0.00    +0.002 C 
ATOM     12  C   UNL     1      35.020 -19.584 -20.939  0.00  0.00    +0.000 C 
ENDBRANCH   2   7
BRANCH   3  13
ATOM     13  C   UNL     1      33.086 -14.150 -25.208  0.00  0.00    +0.202 C 
BRANCH  13  15
ATOM     14  O   UNL     1      33.709 -11.969 -26.014  0.00  0.00    -0.248 OA
ATOM     15  C   UNL     1      33.678 -12.770 -25.087  0.00  0.00    +0.334 C 
BRANCH  15  16
ATOM     16  O   UNL     1      34.172 -12.499 -23.856  0.00  0.00    -0.479 OA
ATOM     17  H   UNL     1      35.083 -12.623 -23.680  0.00  0.00    +0.295 HD
ENDBRANCH  15  16
ENDBRANCH  13  15
ENDBRANCH   3  13
TORSDOF 4
ENDMDL
MODEL 6
REMARK VINA RESULT:      -6.6      7.511      8.411
REMARK  Name = 4149241
REMARK  4 active torsions:
REMARK  status: ('A' for Active; 'I' for Inactive)
REMARK    1  A    between atoms: N_2  and  C_7
REMARK    2  A    between atoms: N_3  and  C_13
REMARK    3  A    between atoms: C_13  and  C_15
REMARK    4  A    between atoms: C_15  and  O_16
REMARK                            x       y       z     vdW  Elec       q    Type
REMARK                         _______ _______ _______ _____ _____    ______ ____
ROOT
ATOM      1  O   UNL     1      33.844 -21.361 -19.578  0.00  0.00    -0.253 OA
ATOM      2  N   UNL     1      35.198 -19.834 -20.685  0.00  0.00    -0.291 N 
ATOM      3  N   UNL     1      36.081 -21.132 -19.007  0.00  0.00    -0.279 N 
ATOM      4  C   UNL     1      34.938 -20.824 -19.742  0.00  0.00    +0.301 C 
ATOM      5  H   UNL     1      36.109 -19.466 -20.739  0.00  0.00    +0.151 HD
ATOM      6  H   UNL     1      36.915 -20.651 -19.210  0.00  0.00    +0.151 HD
ENDROOT
BRANCH   2   7
ATOM      7  C   UNL     1      34.189 -19.316 -21.590  0.00  0.00    +0.073 C 
ATOM      8  C   UNL     1      33.729 -17.930 -21.126  0.00  0.00    +0.020 C 
ATOM      9  C   UNL     1      34.737 -19.278 -23.021  0.00  0.00    +0.020 C 
ATOM     10  C   UNL     1      34.793 -16.853 -21.333  0.00  0.00    +0.002 C 
ATOM     11  C   UNL     1      35.798 -18.196 -23.220  0.00  0.00    +0.002 C 
ATOM     12  C   UNL     1      35.297 -16.826 -22.772  0.00  0.00    +0.000 C 
ENDBRANCH   2   7
BRANCH   3  13
ATOM     13  C   UNL     1      36.094 -22.128 -17.961  0.00  0.00    +0.202 C 
BRANCH  13  15
ATOM     14  O   UNL     1      37.543 -22.697 -16.126  0.00  0.00    -0.248 OA
ATOM     15  C   UNL     1      37.114 -21.841 -16.890  0.00  0.00    +0.334 C 
BRANCH  15  16
ATOM     16  O   UNL     1      37.509 -20.547 -16.851  0.00  0.00    -0.479 OA
ATOM     17  H   UNL     1      37.336 -20.028 -16.091  0.00  0.00    +0.295 HD
ENDBRANCH  15  16
ENDBRANCH  13  15
ENDBRANCH   3  13
TORSDOF 4
ENDMDL
MODEL 7
REMARK VINA RESULT:      -6.5     11.407     12.928
REMARK  Name = 4149241
REMARK  4 active torsions:
REMARK  status: ('A' for Active; 'I' for Inactive)
REMARK    1  A    between atoms: N_2  and  C_7
REMARK    2  A    between atoms: N_3  and  C_13
REMARK    3  A    between atoms: C_13  and  C_15
REMARK    4  A    between atoms: C_15  and  O_16
REMARK                            x       y       z     vdW  Elec       q    Type
REMARK                         _______ _______ _______ _____ _____    ______ ____
ROOT
ATOM      1  O   UNL     1      34.465 -16.065 -24.594  0.00  0.00    -0.253 OA
ATOM      2  N   UNL     1      35.306 -16.840 -22.574  0.00  0.00    -0.291 N 
ATOM      3  N   UNL     1      34.484 -14.699 -22.718  0.00  0.00    -0.279 N 
ATOM      4  C   UNL     1      34.728 -15.886 -23.406  0.00  0.00    +0.301 C 
ATOM      5  H   UNL     1      35.478 -16.601 -21.635  0.00  0.00    +0.151 HD
ATOM      6  H   UNL     1      34.727 -14.649 -21.766  0.00  0.00    +0.151 HD
ENDROOT
BRANCH   2   7
ATOM      7  C   UNL     1      35.668 -18.171 -23.025  0.00  0.00    +0.073 C 
ATOM      8  C   UNL     1      36.816 -18.721 -22.172  0.00  0.00    +0.020 C 
ATOM      9  C   UNL     1      34.444 -19.092 -22.984  0.00  0.00    +0.020 C 
ATOM     10  C   UNL     1      36.379 -19.074 -20.750  0.00  0.00    +0.002 C 
ATOM     11  C   UNL     1      34.016 -19.444 -21.559  0.00  0.00    +0.002 C 
ATOM     12  C   UNL     1      35.176 -20.011 -20.746  0.00  0.00    +0.000 C 
ENDBRANCH   2   7
BRANCH   3  13
ATOM     13  C   UNL     1      33.888 -13.541 -23.342  0.00  0.00    +0.202 C 
BRANCH  13  15
ATOM     14  O   UNL     1      32.209 -11.950 -22.675  0.00  0.00    -0.248 OA
ATOM     15  C   UNL     1      32.608 -13.109 -22.676  0.00  0.00    +0.334 C 
BRANCH  15  16
ATOM     16  O   UNL     1      31.939 -14.123 -22.077  0.00  0.00    -0.479 OA
ATOM     17  H   UNL     1      32.089 -15.006 -22.349  0.00  0.00    +0.295 HD
ENDBRANCH  15  16
ENDBRANCH  13  15
ENDBRANCH   3  13
TORSDOF 4
ENDMDL
MODEL 8
REMARK VINA RESULT:      -6.4     12.183     13.853
REMARK  Name = 4149241
REMARK  4 active torsions:
REMARK  status: ('A' for Active; 'I' for Inactive)
REMARK    1  A    between atoms: N_2  and  C_7
REMARK    2  A    between atoms: N_3  and  C_13
REMARK    3  A    between atoms: C_13  and  C_15
REMARK    4  A    between atoms: C_15  and  O_16
REMARK                            x       y       z     vdW  Elec       q    Type
REMARK                         _______ _______ _______ _____ _____    ______ ____
ROOT
ATOM      1  O   UNL     1      34.816 -14.128 -22.108  0.00  0.00    -0.253 OA
ATOM      2  N   UNL     1      33.896 -15.974 -23.174  0.00  0.00    -0.291 N 
ATOM      3  N   UNL     1      32.528 -14.514 -22.044  0.00  0.00    -0.279 N 
ATOM      4  C   UNL     1      33.839 -14.810 -22.413  0.00  0.00    +0.301 C 
ATOM      5  H   UNL     1      33.057 -16.450 -23.366  0.00  0.00    +0.151 HD
ATOM      6  H   UNL     1      31.808 -15.118 -22.337  0.00  0.00    +0.151 HD
ENDROOT
BRANCH   2   7
ATOM      7  C   UNL     1      35.135 -16.521 -23.695  0.00  0.00    +0.073 C 
ATOM      8  C   UNL     1      35.675 -17.597 -22.747  0.00  0.00    +0.020 C 
ATOM      9  C   UNL     1      34.913 -17.074 -25.107  0.00  0.00    +0.020 C 
ATOM     10  C   UNL     1      34.837 -18.875 -22.765  0.00  0.00    +0.002 C 
ATOM     11  C   UNL     1      34.078 -18.355 -25.116  0.00  0.00    +0.002 C 
ATOM     12  C   UNL     1      34.658 -19.412 -24.181  0.00  0.00    +0.000 C 
ENDBRANCH   2   7
BRANCH   3  13
ATOM     13  C   UNL     1      32.181 -13.358 -21.251  0.00  0.00    +0.202 C 
BRANCH  13  15
ATOM     14  O   UNL     1      32.595 -11.675 -22.921  0.00  0.00    -0.248 OA
ATOM     15  C   UNL     1      31.835 -12.154 -22.088  0.00  0.00    +0.334 C 
BRANCH  15  16
ATOM     16  O   UNL     1      30.604 -11.652 -21.832  0.00  0.00    -0.479 OA
ATOM     17  H   UNL     1      30.444 -10.734 -21.928  0.00  0.00    +0.295 HD
ENDBRANCH  15  16
ENDBRANCH  13  15
ENDBRANCH   3  13
TORSDOF 4
ENDMDL
MODEL 9
REMARK VINA RESULT:      -6.4     14.050     15.329
REMARK  Name = 4149241
REMARK  4 active torsions:
REMARK  status: ('A' for Active; 'I' for Inactive)
REMARK    1  A    between atoms: N_2  and  C_7
REMARK    2  A    between atoms: N_3  and  C_13
REMARK    3  A    between atoms: C_13  and  C_15
REMARK    4  A    between atoms: C_15  and  O_16
REMARK                            x       y       z     vdW  Elec       q    Type
REMARK                         _______ _______ _______ _____ _____    ______ ____
ROOT
ATOM      1  O   UNL     1      33.185 -14.422 -24.480  0.00  0.00    -0.253 OA
ATOM      2  N   UNL     1      34.092 -12.434 -23.696  0.00  0.00    -0.291 N 
ATOM      3  N   UNL     1      34.586 -14.409 -22.630  0.00  0.00    -0.279 N 
ATOM      4  C   UNL     1      33.888 -13.810 -23.677  0.00  0.00    +0.301 C 
ATOM      5  H   UNL     1      34.674 -12.036 -23.009  0.00  0.00    +0.151 HD
ATOM      6  H   UNL     1      35.126 -13.838 -22.037  0.00  0.00    +0.151 HD
ENDROOT
BRANCH   2   7
ATOM      7  C   UNL     1      33.486 -11.556 -24.679  0.00  0.00    +0.073 C 
ATOM      8  C   UNL     1      32.838 -10.354 -23.983  0.00  0.00    +0.020 C 
ATOM      9  C   UNL     1      34.534 -11.114 -25.707  0.00  0.00    +0.020 C 
ATOM     10  C   UNL     1      33.866  -9.378 -23.410  0.00  0.00    +0.002 C 
ATOM     11  C   UNL     1      35.555 -10.135 -25.126  0.00  0.00    +0.002 C 
ATOM     12  C   UNL     1      34.877  -8.940 -24.464  0.00  0.00    +0.000 C 
ENDBRANCH   2   7
BRANCH   3  13
ATOM     13  C   UNL     1      34.552 -15.830 -22.378  0.00  0.00    +0.202 C 
BRANCH  13  15
ATOM     14  O   UNL     1      34.861 -15.370 -20.036  0.00  0.00    -0.248 OA
ATOM     15  C   UNL     1      34.890 -16.182 -20.952  0.00  0.00    +0.334 C 
BRANCH  15  16
ATOM     16  O   UNL     1      35.228 -17.482 -20.781  0.00  0.00    -0.479 OA
ATOM     17  H   UNL     1      34.559 -18.128 -20.668  0.00  0.00    +0.295 HD
ENDBRANCH  15  16
ENDBRANCH  13  15
ENDBRANCH   3  13
TORSDOF 4
ENDMDL
