MODEL 1
REMARK VINA RESULT:     -10.2      0.000      0.000
REMARK  Name = 448658
REMARK  7 active torsions:
REMARK  status: ('A' for Active; 'I' for Inactive)
REMARK    1  A    between atoms: N_2  and  C_18
REMARK    2  A    between atoms: C_3  and  C_6
REMARK    3  A    between atoms: C_7  and  O_12
REMARK    4  A    between atoms: O_12  and  C_13
REMARK    5  A    between atoms: C_13  and  C_15
REMARK    6  A    between atoms: C_15  and  O_16
REMARK    7  A    between atoms: C_18  and  C_24
REMARK                            x       y       z     vdW  Elec       q    Type
REMARK                         _______ _______ _______ _____ _____    ______ ____
ROOT
ATOM      1  O   UNL     1      34.891 -16.421 -25.733  0.00  0.00    -0.270 OA
ATOM      2  N   UNL     1      33.599 -15.211 -24.235  0.00  0.00    -0.294 N 
ATOM      3  C   UNL     1      34.411 -16.269 -24.613  0.00  0.00    +0.249 C 
ATOM      4  H   UNL     1      33.263 -15.177 -23.310  0.00  0.00    +0.150 HD
ENDROOT
BRANCH   3   6
ATOM      5  F   UNL     1      35.408 -20.140 -20.712  0.00  0.00    -0.204 F 
ATOM      6  C   UNL     1      34.678 -17.286 -23.563  0.00  0.00    +0.087 C 
ATOM      7  C   UNL     1      34.878 -16.889 -22.257  0.00  0.00    +0.146 C 
ATOM      8  C   UNL     1      34.717 -18.613 -23.942  0.00  0.00    +0.010 C 
ATOM      9  C   UNL     1      35.127 -17.860 -21.287  0.00  0.00    +0.067 C 
ATOM     10  C   UNL     1      34.965 -19.585 -22.971  0.00  0.00    +0.030 C 
ATOM     11  C   UNL     1      35.170 -19.208 -21.644  0.00  0.00    +0.143 C 
BRANCH   7  12
ATOM     12  O   UNL     1      34.838 -15.578 -21.888  0.00  0.00    -0.464 OA
BRANCH  12  13
ATOM     13  C   UNL     1      34.314 -15.284 -20.595  0.00  0.00    +0.314 C 
BRANCH  13  15
ATOM     14  O   UNL     1      32.646 -13.590 -20.092  0.00  0.00    -0.246 OA
ATOM     15  C   UNL     1      32.997 -14.572 -20.729  0.00  0.00    +0.359 C 
BRANCH  15  16
ATOM     16  O   UNL     1      32.232 -15.177 -21.673  0.00  0.00    -0.478 OA
ATOM     17  H   UNL     1      31.299 -15.110 -21.633  0.00  0.00    +0.295 HD
ENDBRANCH  15  16
ENDBRANCH  13  15
ENDBRANCH  12  13
ENDBRANCH   7  12
ENDBRANCH   3   6
BRANCH   2  18
ATOM     18  C   UNL     1      33.228 -14.155 -25.150  0.00  0.00    +0.156 C 
BRANCH  18  24
ATOM     19  S   UNL     1      34.082 -11.538 -25.134  0.00  0.00    -0.072 S 
ATOM     20  F   UNL     1      31.123 -11.233 -21.203  0.00  0.00    -0.199 F 
ATOM     21  F   UNL     1      34.576  -8.454 -24.454  0.00  0.00    -0.207 F 
ATOM     22  F   UNL     1      31.640  -8.595 -20.742  0.00  0.00    -0.202 F 
ATOM     23  N   UNL     1      32.426 -12.560 -23.440  0.00  0.00    -0.399 NA
ATOM     24  C   UNL     1      33.159 -12.830 -24.497  0.00  0.00    +0.155 C 
ATOM     25  C   UNL     1      32.592 -11.230 -23.087  0.00  0.00    +0.155 C 
ATOM     26  C   UNL     1      33.466 -10.502 -23.901  0.00  0.00    +0.158 C 
ATOM     27  C   UNL     1      31.969 -10.571 -22.006  0.00  0.00    +0.194 C 
ATOM     28  C   UNL     1      33.737  -9.144 -23.671  0.00  0.00    +0.137 C 
ATOM     29  C   UNL     1      32.233  -9.219 -21.770  0.00  0.00    +0.172 C 
ATOM     30  C   UNL     1      33.106  -8.516 -22.593  0.00  0.00    +0.058 C 
ENDBRANCH  18  24
ENDBRANCH   2  18
TORSDOF 7
ENDMDL
MODEL 2
REMARK VINA RESULT:     -10.0      0.960      2.216
REMARK  Name = 448658
REMARK  7 active torsions:
REMARK  status: ('A' for Active; 'I' for Inactive)
REMARK    1  A    between atoms: N_2  and  C_18
REMARK    2  A    between atoms: C_3  and  C_6
REMARK    3  A    between atoms: C_7  and  O_12
REMARK    4  A    between atoms: O_12  and  C_13
REMARK    5  A    between atoms: C_13  and  C_15
REMARK    6  A    between atoms: C_15  and  O_16
REMARK    7  A    between atoms: C_18  and  C_24
REMARK                            x       y       z     vdW  Elec       q    Type
REMARK                         _______ _______ _______ _____ _____    ______ ____
ROOT
ATOM      1  O   UNL     1      34.651 -16.450 -25.773  0.00  0.00    -0.270 OA
ATOM      2  N   UNL     1      33.593 -15.111 -24.203  0.00  0.00    -0.294 N 
ATOM      3  C   UNL     1      34.320 -16.217 -24.614  0.00  0.00    +0.249 C 
ATOM      4  H   UNL     1      33.377 -15.012 -23.248  0.00  0.00    +0.150 HD
ENDROOT
BRANCH   3   6
ATOM      5  F   UNL     1      35.694 -19.894 -20.641  0.00  0.00    -0.204 F 
ATOM      6  C   UNL     1      34.688 -17.182 -23.546  0.00  0.00    +0.087 C 
ATOM      7  C   UNL     1      34.966 -16.726 -22.274  0.00  0.00    +0.146 C 
ATOM      8  C   UNL     1      34.738 -18.523 -23.872  0.00  0.00    +0.010 C 
ATOM      9  C   UNL     1      35.309 -17.649 -21.286  0.00  0.00    +0.067 C 
ATOM     10  C   UNL     1      35.080 -19.446 -22.884  0.00  0.00    +0.030 C 
ATOM     11  C   UNL     1      35.366 -19.008 -21.590  0.00  0.00    +0.143 C 
BRANCH   7  12
ATOM     12  O   UNL     1      34.914 -15.401 -21.956  0.00  0.00    -0.464 OA
BRANCH  12  13
ATOM     13  C   UNL     1      34.386 -15.062 -20.676  0.00  0.00    +0.314 C 
BRANCH  13  15
ATOM     14  O   UNL     1      32.096 -15.462 -21.384  0.00  0.00    -0.246 OA
ATOM     15  C   UNL     1      32.916 -14.775 -20.792  0.00  0.00    +0.359 C 
BRANCH  15  16
ATOM     16  O   UNL     1      32.610 -13.625 -20.138  0.00  0.00    -0.478 OA
ATOM     17  H   UNL     1      32.952 -13.469 -19.281  0.00  0.00    +0.295 HD
ENDBRANCH  15  16
ENDBRANCH  13  15
ENDBRANCH  12  13
ENDBRANCH   7  12
ENDBRANCH   3   6
BRANCH   2  18
ATOM     18  C   UNL     1      33.140 -14.095 -25.128  0.00  0.00    +0.156 C 
BRANCH  18  24
ATOM     19  S   UNL     1      32.194 -12.238 -23.331  0.00  0.00    -0.072 S 
ATOM     20  F   UNL     1      35.720  -9.420 -25.312  0.00  0.00    -0.199 F 
ATOM     21  F   UNL     1      31.689  -9.611 -21.581  0.00  0.00    -0.207 F 
ATOM     22  F   UNL     1      35.176  -7.254 -23.748  0.00  0.00    -0.202 F 
ATOM     23  N   UNL     1      34.136 -11.838 -24.981  0.00  0.00    -0.399 NA
ATOM     24  C   UNL     1      33.257 -12.728 -24.577  0.00  0.00    +0.155 C 
ATOM     25  C   UNL     1      33.974 -10.665 -24.259  0.00  0.00    +0.155 C 
ATOM     26  C   UNL     1      32.954 -10.691 -23.302  0.00  0.00    +0.158 C 
ATOM     27  C   UNL     1      34.733  -9.485 -24.408  0.00  0.00    +0.194 C 
ATOM     28  C   UNL     1      32.668  -9.580 -22.493  0.00  0.00    +0.137 C 
ATOM     29  C   UNL     1      34.454  -8.374 -23.605  0.00  0.00    +0.172 C 
ATOM     30  C   UNL     1      33.435  -8.423 -22.661  0.00  0.00    +0.058 C 
ENDBRANCH  18  24
ENDBRANCH   2  18
TORSDOF 7
ENDMDL
MODEL 3
REMARK VINA RESULT:      -9.9      8.629     13.286
REMARK  Name = 448658
REMARK  7 active torsions:
REMARK  status: ('A' for Active; 'I' for Inactive)
REMARK    1  A    between atoms: N_2  and  C_18
REMARK    2  A    between atoms: C_3  and  C_6
REMARK    3  A    between atoms: C_7  and  O_12
REMARK    4  A    between atoms: O_12  and  C_13
REMARK    5  A    between atoms: C_13  and  C_15
REMARK    6  A    between atoms: C_15  and  O_16
REMARK    7  A    between atoms: C_18  and  C_24
REMARK                            x       y       z     vdW  Elec       q    Type
REMARK                         _______ _______ _______ _____ _____    ______ ____
ROOT
ATOM      1  O   UNL     1      33.699 -24.185 -19.059  0.00  0.00    -0.270 OA
ATOM      2  N   UNL     1      33.422 -22.861 -17.176  0.00  0.00    -0.294 N 
ATOM      3  C   UNL     1      33.717 -23.086 -18.511  0.00  0.00    +0.249 C 
ATOM      4  H   UNL     1      33.464 -21.940 -16.829  0.00  0.00    +0.150 HD
ENDROOT
BRANCH   3   6
ATOM      5  F   UNL     1      35.108 -18.574 -21.494  0.00  0.00    -0.204 F 
ATOM      6  C   UNL     1      34.103 -21.888 -19.300  0.00  0.00    +0.087 C 
ATOM      7  C   UNL     1      35.417 -21.466 -19.309  0.00  0.00    +0.146 C 
ATOM      8  C   UNL     1      33.116 -21.229 -20.004  0.00  0.00    +0.010 C 
ATOM      9  C   UNL     1      35.759 -20.338 -20.055  0.00  0.00    +0.067 C 
ATOM     10  C   UNL     1      33.457 -20.102 -20.752  0.00  0.00    +0.030 C 
ATOM     11  C   UNL     1      34.780 -19.656 -20.777  0.00  0.00    +0.143 C 
BRANCH   7  12
ATOM     12  O   UNL     1      36.389 -22.120 -18.612  0.00  0.00    -0.464 OA
BRANCH  12  13
ATOM     13  C   UNL     1      37.176 -21.344 -17.712  0.00  0.00    +0.314 C 
BRANCH  13  15
ATOM     14  O   UNL     1      38.210 -22.641 -15.937  0.00  0.00    -0.246 OA
ATOM     15  C   UNL     1      37.248 -22.030 -16.377  0.00  0.00    +0.359 C 
BRANCH  15  16
ATOM     16  O   UNL     1      36.076 -21.877 -15.709  0.00  0.00    -0.478 OA
ATOM     17  H   UNL     1      35.787 -21.023 -15.459  0.00  0.00    +0.295 HD
ENDBRANCH  15  16
ENDBRANCH  13  15
ENDBRANCH  12  13
ENDBRANCH   7  12
ENDBRANCH   3   6
BRANCH   2  18
ATOM     18  C   UNL     1      33.053 -23.929 -16.273  0.00  0.00    +0.156 C 
BRANCH  18  24
ATOM     19  S   UNL     1      33.853 -23.884 -13.640  0.00  0.00    -0.072 S 
ATOM     20  F   UNL     1      37.948 -25.920 -15.480  0.00  0.00    -0.199 F 
ATOM     21  F   UNL     1      35.468 -24.173 -10.897  0.00  0.00    -0.207 F 
ATOM     22  F   UNL     1      39.205 -26.104 -13.068  0.00  0.00    -0.202 F 
ATOM     23  N   UNL     1      35.271 -24.783 -15.597  0.00  0.00    -0.399 NA
ATOM     24  C   UNL     1      34.115 -24.240 -15.292  0.00  0.00    +0.155 C 
ATOM     25  C   UNL     1      36.029 -24.940 -14.447  0.00  0.00    +0.155 C 
ATOM     26  C   UNL     1      35.418 -24.503 -13.267  0.00  0.00    +0.158 C 
ATOM     27  C   UNL     1      37.328 -25.488 -14.373  0.00  0.00    +0.194 C 
ATOM     28  C   UNL     1      36.059 -24.595 -12.022  0.00  0.00    +0.137 C 
ATOM     29  C   UNL     1      37.973 -25.583 -13.136  0.00  0.00    +0.172 C 
ATOM     30  C   UNL     1      37.344 -25.142 -11.977  0.00  0.00    +0.058 C 
ENDBRANCH  18  24
ENDBRANCH   2  18
TORSDOF 7
ENDMDL
MODEL 4
REMARK VINA RESULT:      -9.9      3.194      8.381
REMARK  Name = 448658
REMARK  7 active torsions:
REMARK  status: ('A' for Active; 'I' for Inactive)
REMARK    1  A    between atoms: N_2  and  C_18
REMARK    2  A    between atoms: C_3  and  C_6
REMARK    3  A    between atoms: C_7  and  O_12
REMARK    4  A    between atoms: O_12  and  C_13
REMARK    5  A    between atoms: C_13  and  C_15
REMARK    6  A    between atoms: C_15  and  O_16
REMARK    7  A    between atoms: C_18  and  C_24
REMARK                            x       y       z     vdW  Elec       q    Type
REMARK                         _______ _______ _______ _____ _____    ______ ____
ROOT
ATOM      1  O   UNL     1      31.871  -9.327 -20.513  0.00  0.00    -0.270 OA
ATOM      2  N   UNL     1      31.743 -10.725 -22.358  0.00  0.00    -0.294 N 
ATOM      3  C   UNL     1      31.931  -9.506 -21.726  0.00  0.00    +0.249 C 
ATOM      4  H   UNL     1      31.812 -10.767 -23.340  0.00  0.00    +0.150 HD
ENDROOT
BRANCH   3   6
ATOM      5  F   UNL     1      32.884  -5.131 -25.065  0.00  0.00    -0.204 F 
ATOM      6  C   UNL     1      32.200  -8.350 -22.619  0.00  0.00    +0.087 C 
ATOM      7  C   UNL     1      33.355  -8.317 -23.373  0.00  0.00    +0.146 C 
ATOM      8  C   UNL     1      31.267  -7.332 -22.661  0.00  0.00    +0.010 C 
ATOM      9  C   UNL     1      33.588  -7.222 -24.205  0.00  0.00    +0.067 C 
ATOM     10  C   UNL     1      31.499  -6.237 -23.494  0.00  0.00    +0.030 C 
ATOM     11  C   UNL     1      32.660  -6.183 -24.265  0.00  0.00    +0.143 C 
BRANCH   7  12
ATOM     12  O   UNL     1      34.272  -9.325 -23.329  0.00  0.00    -0.464 OA
BRANCH  12  13
ATOM     13  C   UNL     1      35.206  -9.398 -24.405  0.00  0.00    +0.314 C 
BRANCH  13  15
ATOM     14  O   UNL     1      35.281 -10.811 -26.380  0.00  0.00    -0.246 OA
ATOM     15  C   UNL     1      34.950 -10.637 -25.216  0.00  0.00    +0.359 C 
BRANCH  15  16
ATOM     16  O   UNL     1      34.290 -11.558 -24.470  0.00  0.00    -0.478 OA
ATOM     17  H   UNL     1      34.569 -12.452 -24.474  0.00  0.00    +0.295 HD
ENDBRANCH  15  16
ENDBRANCH  13  15
ENDBRANCH  12  13
ENDBRANCH   7  12
ENDBRANCH   3   6
BRANCH   2  18
ATOM     18  C   UNL     1      31.449 -11.939 -21.629  0.00  0.00    +0.156 C 
BRANCH  18  24
ATOM     19  S   UNL     1      33.020 -14.078 -20.902  0.00  0.00    -0.072 S 
ATOM     20  F   UNL     1      33.334 -14.726 -25.779  0.00  0.00    -0.199 F 
ATOM     21  F   UNL     1      34.895 -16.667 -20.879  0.00  0.00    -0.207 F 
ATOM     22  F   UNL     1      34.933 -16.927 -25.606  0.00  0.00    -0.202 F 
ATOM     23  N   UNL     1      32.463 -13.414 -23.332  0.00  0.00    -0.399 NA
ATOM     24  C   UNL     1      32.266 -13.087 -22.075  0.00  0.00    +0.155 C 
ATOM     25  C   UNL     1      33.273 -14.537 -23.398  0.00  0.00    +0.155 C 
ATOM     26  C   UNL     1      33.683 -15.050 -22.163  0.00  0.00    +0.158 C 
ATOM     27  C   UNL     1      33.705 -15.185 -24.576  0.00  0.00    +0.194 C 
ATOM     28  C   UNL     1      34.506 -16.183 -22.066  0.00  0.00    +0.137 C 
ATOM     29  C   UNL     1      34.525 -16.314 -24.487  0.00  0.00    +0.172 C 
ATOM     30  C   UNL     1      34.919 -16.805 -23.247  0.00  0.00    +0.058 C 
ENDBRANCH  18  24
ENDBRANCH   2  18
TORSDOF 7
ENDMDL
MODEL 5
REMARK VINA RESULT:      -9.8      2.317      7.703
REMARK  Name = 448658
REMARK  7 active torsions:
REMARK  status: ('A' for Active; 'I' for Inactive)
REMARK    1  A    between atoms: N_2  and  C_18
REMARK    2  A    between atoms: C_3  and  C_6
REMARK    3  A    between atoms: C_7  and  O_12
REMARK    4  A    between atoms: O_12  and  C_13
REMARK    5  A    between atoms: C_13  and  C_15
REMARK    6  A    between atoms: C_15  and  O_16
REMARK    7  A    between atoms: C_18  and  C_24
REMARK                            x       y       z     vdW  Elec       q    Type
REMARK                         _______ _______ _______ _____ _____    ______ ____
ROOT
ATOM      1  O   UNL     1      34.939 -10.967 -25.583  0.00  0.00    -0.270 OA
ATOM      2  N   UNL     1      33.371 -12.180 -24.381  0.00  0.00    -0.294 N 
ATOM      3  C   UNL     1      34.096 -11.041 -24.694  0.00  0.00    +0.249 C 
ATOM      4  H   UNL     1      32.714 -12.139 -23.648  0.00  0.00    +0.150 HD
ENDROOT
BRANCH   3   6
ATOM      5  F   UNL     1      33.109  -6.524 -21.561  0.00  0.00    -0.204 F 
ATOM      6  C   UNL     1      33.820  -9.848 -23.853  0.00  0.00    +0.087 C 
ATOM      7  C   UNL     1      32.810  -9.888 -22.914  0.00  0.00    +0.146 C 
ATOM      8  C   UNL     1      34.599  -8.724 -24.046  0.00  0.00    +0.010 C 
ATOM      9  C   UNL     1      32.568  -8.757 -22.134  0.00  0.00    +0.067 C 
ATOM     10  C   UNL     1      34.357  -7.593 -23.266  0.00  0.00    +0.030 C 
ATOM     11  C   UNL     1      33.341  -7.610 -22.310  0.00  0.00    +0.143 C 
BRANCH   7  12
ATOM     12  O   UNL     1      32.045 -11.000 -22.725  0.00  0.00    -0.464 OA
BRANCH  12  13
ATOM     13  C   UNL     1      30.939 -10.883 -21.833  0.00  0.00    +0.314 C 
BRANCH  13  15
ATOM     14  O   UNL     1      31.973 -12.423 -20.263  0.00  0.00    -0.246 OA
ATOM     15  C   UNL     1      31.320 -11.412 -20.479  0.00  0.00    +0.359 C 
BRANCH  15  16
ATOM     16  O   UNL     1      30.833 -10.602 -19.505  0.00  0.00    -0.478 OA
ATOM     17  H   UNL     1      30.512  -9.749 -19.722  0.00  0.00    +0.295 HD
ENDBRANCH  15  16
ENDBRANCH  13  15
ENDBRANCH  12  13
ENDBRANCH   7  12
ENDBRANCH   3   6
BRANCH   2  18
ATOM     18  C   UNL     1      33.544 -13.428 -25.091  0.00  0.00    +0.156 C 
BRANCH  18  24
ATOM     19  S   UNL     1      34.130 -14.247 -22.530  0.00  0.00    -0.072 S 
ATOM     20  F   UNL     1      34.665 -18.637 -24.706  0.00  0.00    -0.199 F 
ATOM     21  F   UNL     1      34.900 -15.934 -19.926  0.00  0.00    -0.207 F 
ATOM     22  F   UNL     1      35.310 -19.947 -22.403  0.00  0.00    -0.202 F 
ATOM     23  N   UNL     1      34.104 -15.784 -24.601  0.00  0.00    -0.399 NA
ATOM     24  C   UNL     1      33.918 -14.547 -24.200  0.00  0.00    +0.155 C 
ATOM     25  C   UNL     1      34.442 -16.578 -23.515  0.00  0.00    +0.155 C 
ATOM     26  C   UNL     1      34.507 -15.911 -22.288  0.00  0.00    +0.158 C 
ATOM     27  C   UNL     1      34.718 -17.962 -23.550  0.00  0.00    +0.194 C 
ATOM     28  C   UNL     1      34.838 -16.579 -21.098  0.00  0.00    +0.137 C 
ATOM     29  C   UNL     1      35.048 -18.634 -22.369  0.00  0.00    +0.172 C 
ATOM     30  C   UNL     1      35.107 -17.949 -21.160  0.00  0.00    +0.058 C 
ENDBRANCH  18  24
ENDBRANCH   2  18
TORSDOF 7
ENDMDL
MODEL 6
REMARK VINA RESULT:      -9.7      3.158      8.547
REMARK  Name = 448658
REMARK  7 active torsions:
REMARK  status: ('A' for Active; 'I' for Inactive)
REMARK    1  A    between atoms: N_2  and  C_18
REMARK    2  A    between atoms: C_3  and  C_6
REMARK    3  A    between atoms: C_7  and  O_12
REMARK    4  A    between atoms: O_12  and  C_13
REMARK    5  A    between atoms: C_13  and  C_15
REMARK    6  A    between atoms: C_15  and  O_16
REMARK    7  A    between atoms: C_18  and  C_24
REMARK                            x       y       z     vdW  Elec       q    Type
REMARK                         _______ _______ _______ _____ _____    ______ ____
ROOT
ATOM      1  O   UNL     1      35.284 -16.170 -20.532  0.00  0.00    -0.270 OA
ATOM      2  N   UNL     1      34.856 -16.623 -22.765  0.00  0.00    -0.294 N 
ATOM      3  C   UNL     1      34.696 -15.922 -21.581  0.00  0.00    +0.249 C 
ATOM      4  H   UNL     1      34.338 -16.346 -23.555  0.00  0.00    +0.150 HD
ENDROOT
BRANCH   3   6
ATOM      5  F   UNL     1      30.989 -11.744 -21.654  0.00  0.00    -0.204 F 
ATOM      6  C   UNL     1      33.714 -14.808 -21.617  0.00  0.00    +0.087 C 
ATOM      7  C   UNL     1      33.497 -14.121 -22.794  0.00  0.00    +0.146 C 
ATOM      8  C   UNL     1      33.044 -14.496 -20.451  0.00  0.00    +0.010 C 
ATOM      9  C   UNL     1      32.570 -13.079 -22.806  0.00  0.00    +0.067 C 
ATOM     10  C   UNL     1      32.116 -13.454 -20.463  0.00  0.00    +0.030 C 
ATOM     11  C   UNL     1      31.880 -12.745 -21.641  0.00  0.00    +0.143 C 
BRANCH   7  12
ATOM     12  O   UNL     1      34.160 -14.433 -23.943  0.00  0.00    -0.464 OA
BRANCH  12  13
ATOM     13  C   UNL     1      33.436 -14.303 -25.165  0.00  0.00    +0.314 C 
BRANCH  13  15
ATOM     14  O   UNL     1      34.390 -16.418 -25.886  0.00  0.00    -0.246 OA
ATOM     15  C   UNL     1      33.485 -15.598 -25.925  0.00  0.00    +0.359 C 
BRANCH  15  16
ATOM     16  O   UNL     1      32.365 -15.740 -26.679  0.00  0.00    -0.478 OA
ATOM     17  H   UNL     1      32.314 -16.424 -27.318  0.00  0.00    +0.295 HD
ENDBRANCH  15  16
ENDBRANCH  13  15
ENDBRANCH  12  13
ENDBRANCH   7  12
ENDBRANCH   3   6
BRANCH   2  18
ATOM     18  C   UNL     1      35.756 -17.749 -22.883  0.00  0.00    +0.156 C 
BRANCH  18  24
ATOM     19  S   UNL     1      36.822 -19.433 -20.985  0.00  0.00    -0.072 S 
ATOM     20  F   UNL     1      32.117 -20.789 -20.420  0.00  0.00    -0.199 F 
ATOM     21  F   UNL     1      37.268 -21.614 -18.691  0.00  0.00    -0.207 F 
ATOM     22  F   UNL     1      32.647 -22.618 -18.469  0.00  0.00    -0.202 F 
ATOM     23  N   UNL     1      34.317 -19.277 -21.579  0.00  0.00    -0.399 NA
ATOM     24  C   UNL     1      35.504 -18.793 -21.866  0.00  0.00    +0.155 C 
ATOM     25  C   UNL     1      34.435 -20.235 -20.583  0.00  0.00    +0.155 C 
ATOM     26  C   UNL     1      35.738 -20.461 -20.126  0.00  0.00    +0.158 C 
ATOM     27  C   UNL     1      33.379 -20.977 -20.012  0.00  0.00    +0.194 C 
ATOM     28  C   UNL     1      36.018 -21.402 -19.122  0.00  0.00    +0.137 C 
ATOM     29  C   UNL     1      33.651 -21.915 -19.011  0.00  0.00    +0.172 C 
ATOM     30  C   UNL     1      34.954 -22.122 -18.573  0.00  0.00    +0.058 C 
ENDBRANCH  18  24
ENDBRANCH   2  18
TORSDOF 7
ENDMDL
MODEL 7
REMARK VINA RESULT:      -9.6      8.675     11.833
REMARK  Name = 448658
REMARK  7 active torsions:
REMARK  status: ('A' for Active; 'I' for Inactive)
REMARK    1  A    between atoms: N_2  and  C_18
REMARK    2  A    between atoms: C_3  and  C_6
REMARK    3  A    between atoms: C_7  and  O_12
REMARK    4  A    between atoms: O_12  and  C_13
REMARK    5  A    between atoms: C_13  and  C_15
REMARK    6  A    between atoms: C_15  and  O_16
REMARK    7  A    between atoms: C_18  and  C_24
REMARK                            x       y       z     vdW  Elec       q    Type
REMARK                         _______ _______ _______ _____ _____    ______ ____
ROOT
ATOM      1  O   UNL     1      35.216 -25.587 -15.917  0.00  0.00    -0.270 OA
ATOM      2  N   UNL     1      34.289 -23.465 -16.015  0.00  0.00    -0.294 N 
ATOM      3  C   UNL     1      35.024 -24.480 -15.424  0.00  0.00    +0.249 C 
ATOM      4  H   UNL     1      34.193 -22.608 -15.539  0.00  0.00    +0.150 HD
ENDROOT
BRANCH   3   6
ATOM      5  F   UNL     1      37.075 -23.325 -10.359  0.00  0.00    -0.204 F 
ATOM      6  C   UNL     1      35.586 -24.174 -14.083  0.00  0.00    +0.087 C 
ATOM      7  C   UNL     1      36.953 -24.149 -13.900  0.00  0.00    +0.146 C 
ATOM      8  C   UNL     1      34.702 -23.925 -13.051  0.00  0.00    +0.010 C 
ATOM      9  C   UNL     1      37.459 -23.860 -12.633  0.00  0.00    +0.067 C 
ATOM     10  C   UNL     1      35.209 -23.635 -11.784  0.00  0.00    +0.030 C 
ATOM     11  C   UNL     1      36.588 -23.603 -11.575  0.00  0.00    +0.143 C 
BRANCH   7  12
ATOM     12  O   UNL     1      37.821 -24.395 -14.922  0.00  0.00    -0.464 OA
BRANCH  12  13
ATOM     13  C   UNL     1      38.541 -25.625 -14.879  0.00  0.00    +0.314 C 
BRANCH  13  15
ATOM     14  O   UNL     1      40.686 -24.685 -14.233  0.00  0.00    -0.246 OA
ATOM     15  C   UNL     1      40.014 -25.357 -15.001  0.00  0.00    +0.359 C 
BRANCH  15  16
ATOM     16  O   UNL     1      40.513 -25.974 -16.103  0.00  0.00    -0.478 OA
ATOM     17  H   UNL     1      40.416 -25.578 -16.946  0.00  0.00    +0.295 HD
ENDBRANCH  15  16
ENDBRANCH  13  15
ENDBRANCH  12  13
ENDBRANCH   7  12
ENDBRANCH   3   6
BRANCH   2  18
ATOM     18  C   UNL     1      33.658 -23.617 -17.308  0.00  0.00    +0.156 C 
BRANCH  18  24
ATOM     19  S   UNL     1      35.721 -22.129 -18.360  0.00  0.00    -0.072 S 
ATOM     20  F   UNL     1      32.119 -20.206 -21.122  0.00  0.00    -0.199 F 
ATOM     21  F   UNL     1      37.507 -20.081 -20.043  0.00  0.00    -0.207 F 
ATOM     22  F   UNL     1      33.764 -18.509 -22.479  0.00  0.00    -0.202 F 
ATOM     23  N   UNL     1      33.253 -21.953 -19.089  0.00  0.00    -0.399 NA
ATOM     24  C   UNL     1      34.072 -22.576 -18.273  0.00  0.00    +0.155 C 
ATOM     25  C   UNL     1      33.965 -21.043 -19.856  0.00  0.00    +0.155 C 
ATOM     26  C   UNL     1      35.338 -20.994 -19.600  0.00  0.00    +0.158 C 
ATOM     27  C   UNL     1      33.430 -20.189 -20.845  0.00  0.00    +0.194 C 
ATOM     28  C   UNL     1      36.192 -20.123 -20.295  0.00  0.00    +0.137 C 
ATOM     29  C   UNL     1      34.274 -19.319 -21.541  0.00  0.00    +0.172 C 
ATOM     30  C   UNL     1      35.637 -19.288 -21.269  0.00  0.00    +0.058 C 
ENDBRANCH  18  24
ENDBRANCH   2  18
TORSDOF 7
ENDMDL
MODEL 8
REMARK VINA RESULT:      -9.6      2.370      7.424
REMARK  Name = 448658
REMARK  7 active torsions:
REMARK  status: ('A' for Active; 'I' for Inactive)
REMARK    1  A    between atoms: N_2  and  C_18
REMARK    2  A    between atoms: C_3  and  C_6
REMARK    3  A    between atoms: C_7  and  O_12
REMARK    4  A    between atoms: O_12  and  C_13
REMARK    5  A    between atoms: C_13  and  C_15
REMARK    6  A    between atoms: C_15  and  O_16
REMARK    7  A    between atoms: C_18  and  C_24
REMARK                            x       y       z     vdW  Elec       q    Type
REMARK                         _______ _______ _______ _____ _____    ______ ____
ROOT
ATOM      1  O   UNL     1      34.862 -10.723 -25.841  0.00  0.00    -0.270 OA
ATOM      2  N   UNL     1      33.315 -12.023 -24.705  0.00  0.00    -0.294 N 
ATOM      3  C   UNL     1      34.048 -10.869 -24.934  0.00  0.00    +0.249 C 
ATOM      4  H   UNL     1      32.684 -12.043 -23.949  0.00  0.00    +0.150 HD
ENDROOT
BRANCH   3   6
ATOM      5  F   UNL     1      33.251  -6.663 -21.347  0.00  0.00    -0.204 F 
ATOM      6  C   UNL     1      33.821  -9.758 -23.974  0.00  0.00    +0.087 C 
ATOM      7  C   UNL     1      32.720  -9.782 -23.143  0.00  0.00    +0.146 C 
ATOM      8  C   UNL     1      34.737  -8.725 -23.950  0.00  0.00    +0.010 C 
ATOM      9  C   UNL     1      32.526  -8.729 -22.249  0.00  0.00    +0.067 C 
ATOM     10  C   UNL     1      34.543  -7.672 -23.056  0.00  0.00    +0.030 C 
ATOM     11  C   UNL     1      33.437  -7.674 -22.206  0.00  0.00    +0.143 C 
BRANCH   7  12
ATOM     12  O   UNL     1      31.820 -10.805 -23.169  0.00  0.00    -0.464 OA
BRANCH  12  13
ATOM     13  C   UNL     1      31.108 -11.073 -21.963  0.00  0.00    +0.314 C 
BRANCH  13  15
ATOM     14  O   UNL     1      32.054 -12.305 -20.095  0.00  0.00    -0.246 OA
ATOM     15  C   UNL     1      31.713 -12.260 -21.268  0.00  0.00    +0.359 C 
BRANCH  15  16
ATOM     16  O   UNL     1      31.834 -13.298 -22.134  0.00  0.00    -0.478 OA
ATOM     17  H   UNL     1      32.670 -13.507 -22.500  0.00  0.00    +0.295 HD
ENDBRANCH  15  16
ENDBRANCH  13  15
ENDBRANCH  12  13
ENDBRANCH   7  12
ENDBRANCH   3   6
BRANCH   2  18
ATOM     18  C   UNL     1      33.442 -13.200 -25.536  0.00  0.00    +0.156 C 
BRANCH  18  24
ATOM     19  S   UNL     1      33.951 -15.904 -25.576  0.00  0.00    -0.072 S 
ATOM     20  F   UNL     1      34.945 -15.174 -20.803  0.00  0.00    -0.199 F 
ATOM     21  F   UNL     1      34.707 -18.917 -24.821  0.00  0.00    -0.207 F 
ATOM     22  F   UNL     1      35.562 -17.782 -20.305  0.00  0.00    -0.202 F 
ATOM     23  N   UNL     1      34.155 -14.395 -23.494  0.00  0.00    -0.399 NA
ATOM     24  C   UNL     1      33.852 -14.398 -24.772  0.00  0.00    +0.155 C 
ATOM     25  C   UNL     1      34.497 -15.679 -23.095  0.00  0.00    +0.155 C 
ATOM     26  C   UNL     1      34.444 -16.648 -24.101  0.00  0.00    +0.158 C 
ATOM     27  C   UNL     1      34.880 -16.073 -21.795  0.00  0.00    +0.194 C 
ATOM     28  C   UNL     1      34.761 -17.994 -23.852  0.00  0.00    +0.137 C 
ATOM     29  C   UNL     1      35.197 -17.410 -21.540  0.00  0.00    +0.172 C 
ATOM     30  C   UNL     1      35.138 -18.356 -22.557  0.00  0.00    +0.058 C 
ENDBRANCH  18  24
ENDBRANCH   2  18
TORSDOF 7
ENDMDL
MODEL 9
REMARK VINA RESULT:      -9.5      2.702      7.684
REMARK  Name = 448658
REMARK  7 active torsions:
REMARK  status: ('A' for Active; 'I' for Inactive)
REMARK    1  A    between atoms: N_2  and  C_18
REMARK    2  A    between atoms: C_3  and  C_6
REMARK    3  A    between atoms: C_7  and  O_12
REMARK    4  A    between atoms: O_12  and  C_13
REMARK    5  A    between atoms: C_13  and  C_15
REMARK    6  A    between atoms: C_15  and  O_16
REMARK    7  A    between atoms: C_18  and  C_24
REMARK                            x       y       z     vdW  Elec       q    Type
REMARK                         _______ _______ _______ _____ _____    ______ ____
ROOT
ATOM      1  O   UNL     1      31.604 -13.604 -23.150  0.00  0.00    -0.270 OA
ATOM      2  N   UNL     1      33.701 -12.678 -23.498  0.00  0.00    -0.294 N 
ATOM      3  C   UNL     1      32.460 -12.764 -22.887  0.00  0.00    +0.249 C 
ATOM      4  H   UNL     1      34.321 -11.967 -23.216  0.00  0.00    +0.150 HD
ENDROOT
BRANCH   3   6
ATOM      5  F   UNL     1      31.367  -8.924 -18.981  0.00  0.00    -0.204 F 
ATOM      6  C   UNL     1      32.172 -11.730 -21.860  0.00  0.00    +0.087 C 
ATOM      7  C   UNL     1      32.220 -10.393 -22.199  0.00  0.00    +0.146 C 
ATOM      8  C   UNL     1      31.864 -12.154 -20.582  0.00  0.00    +0.010 C 
ATOM      9  C   UNL     1      31.946  -9.439 -21.219  0.00  0.00    +0.067 C 
ATOM     10  C   UNL     1      31.589 -11.199 -19.603  0.00  0.00    +0.030 C 
ATOM     11  C   UNL     1      31.631  -9.841 -19.921  0.00  0.00    +0.143 C 
BRANCH   7  12
ATOM     12  O   UNL     1      32.524  -9.980 -23.461  0.00  0.00    -0.464 OA
BRANCH  12  13
ATOM     13  C   UNL     1      33.004  -8.646 -23.609  0.00  0.00    +0.314 C 
BRANCH  13  15
ATOM     14  O   UNL     1      35.222  -7.691 -23.339  0.00  0.00    -0.246 OA
ATOM     15  C   UNL     1      34.507  -8.643 -23.614  0.00  0.00    +0.359 C 
BRANCH  15  16
ATOM     16  O   UNL     1      34.975  -9.866 -23.972  0.00  0.00    -0.478 OA
ATOM     17  H   UNL     1      34.664 -10.276 -24.754  0.00  0.00    +0.295 HD
ENDBRANCH  15  16
ENDBRANCH  13  15
ENDBRANCH  12  13
ENDBRANCH   7  12
ENDBRANCH   3   6
BRANCH   2  18
ATOM     18  C   UNL     1      34.119 -13.596 -24.535  0.00  0.00    +0.156 C 
BRANCH  18  24
ATOM     19  S   UNL     1      34.240 -16.282 -25.119  0.00  0.00    -0.072 S 
ATOM     20  F   UNL     1      35.237 -16.664 -20.306  0.00  0.00    -0.199 F 
ATOM     21  F   UNL     1      34.545 -19.462 -24.987  0.00  0.00    -0.207 F 
ATOM     22  F   UNL     1      35.468 -19.381 -20.344  0.00  0.00    -0.202 F 
ATOM     23  N   UNL     1      34.617 -15.262 -22.780  0.00  0.00    -0.399 NA
ATOM     24  C   UNL     1      34.341 -14.968 -24.030  0.00  0.00    +0.155 C 
ATOM     25  C   UNL     1      34.765 -16.635 -22.648  0.00  0.00    +0.155 C 
ATOM     26  C   UNL     1      34.594 -17.368 -23.827  0.00  0.00    +0.158 C 
ATOM     27  C   UNL     1      35.064 -17.330 -21.456  0.00  0.00    +0.194 C 
ATOM     28  C   UNL     1      34.712 -18.767 -23.854  0.00  0.00    +0.137 C 
ATOM     29  C   UNL     1      35.183 -18.723 -21.476  0.00  0.00    +0.172 C 
ATOM     30  C   UNL     1      35.009 -19.430 -22.660  0.00  0.00    +0.058 C 
ENDBRANCH  18  24
ENDBRANCH   2  18
TORSDOF 7
ENDMDL
