MODEL 1
REMARK VINA RESULT:      -6.1      0.000      0.000
REMARK  Name = 5288605
REMARK  0 active torsions:
REMARK  status: ('A' for Active; 'I' for Inactive)
REMARK                            x       y       z     vdW  Elec       q    Type
REMARK                         _______ _______ _______ _____ _____    ______ ____
ROOT
ATOM      1  I   UNL     1      38.328 -25.283 -13.791  0.00  0.00    -0.064 I 
ATOM      2  O   UNL     1      38.449 -22.311 -11.873  0.00  0.00    -0.274 OA
ATOM      3  O   UNL     1      35.244 -24.996  -9.944  0.00  0.00    -0.252 OA
ATOM      4  N   UNL     1      35.201 -24.735 -12.224  0.00  0.00    -0.287 N 
ATOM      5  N   UNL     1      36.760 -23.564 -10.926  0.00  0.00    -0.239 N 
ATOM      6  C   UNL     1      37.071 -23.605 -13.361  0.00  0.00    +0.149 C 
ATOM      7  C   UNL     1      35.595 -23.970 -13.386  0.00  0.00    +0.111 C 
ATOM      8  C   UNL     1      37.493 -23.075 -12.006  0.00  0.00    +0.240 C 
ATOM      9  C   UNL     1      35.694 -24.466 -10.960  0.00  0.00    +0.307 C 
ATOM     10  H   UNL     1      34.559 -25.473 -12.337  0.00  0.00    +0.151 HD
ATOM     11  H   UNL     1      37.026 -23.238 -10.036  0.00  0.00    +0.159 HD
ENDROOT
TORSDOF 0
ENDMDL
MODEL 2
REMARK VINA RESULT:      -5.8      3.540      3.939
REMARK  Name = 5288605
REMARK  0 active torsions:
REMARK  status: ('A' for Active; 'I' for Inactive)
REMARK                            x       y       z     vdW  Elec       q    Type
REMARK                         _______ _______ _______ _____ _____    ______ ____
ROOT
ATOM      1  I   UNL     1      35.309 -24.223 -12.439  0.00  0.00    -0.064 I 
ATOM      2  O   UNL     1      37.854 -23.053 -14.602  0.00  0.00    -0.274 OA
ATOM      3  O   UNL     1      36.731 -27.277 -16.052  0.00  0.00    -0.252 OA
ATOM      4  N   UNL     1      37.082 -26.967 -13.804  0.00  0.00    -0.287 N 
ATOM      5  N   UNL     1      37.411 -25.202 -15.311  0.00  0.00    -0.239 N 
ATOM      6  C   UNL     1      37.344 -24.687 -12.911  0.00  0.00    +0.149 C 
ATOM      7  C   UNL     1      37.652 -26.166 -12.744  0.00  0.00    +0.111 C 
ATOM      8  C   UNL     1      37.583 -24.223 -14.334  0.00  0.00    +0.240 C 
ATOM      9  C   UNL     1      37.059 -26.540 -15.120  0.00  0.00    +0.307 C 
ATOM     10  H   UNL     1      36.698 -27.845 -13.582  0.00  0.00    +0.151 HD
ATOM     11  H   UNL     1      37.553 -24.918 -16.242  0.00  0.00    +0.159 HD
ENDROOT
TORSDOF 0
ENDMDL
MODEL 3
REMARK VINA RESULT:      -5.7      3.639      4.024
REMARK  Name = 5288605
REMARK  0 active torsions:
REMARK  status: ('A' for Active; 'I' for Inactive)
REMARK                            x       y       z     vdW  Elec       q    Type
REMARK                         _______ _______ _______ _____ _____    ______ ____
ROOT
ATOM      1  I   UNL     1      37.036 -22.594 -15.854  0.00  0.00    -0.064 I 
ATOM      2  O   UNL     1      39.583 -24.533 -14.345  0.00  0.00    -0.274 OA
ATOM      3  O   UNL     1      36.591 -27.501 -16.200  0.00  0.00    -0.252 OA
ATOM      4  N   UNL     1      35.754 -25.767 -14.949  0.00  0.00    -0.287 N 
ATOM      5  N   UNL     1      38.068 -26.069 -15.160  0.00  0.00    -0.239 N 
ATOM      6  C   UNL     1      37.251 -23.954 -14.216  0.00  0.00    +0.149 C 
ATOM      7  C   UNL     1      35.980 -24.743 -13.952  0.00  0.00    +0.111 C 
ATOM      8  C   UNL     1      38.415 -24.865 -14.550  0.00  0.00    +0.240 C 
ATOM      9  C   UNL     1      36.786 -26.520 -15.480  0.00  0.00    +0.307 C 
ATOM     10  H   UNL     1      34.835 -25.934 -15.259  0.00  0.00    +0.151 HD
ATOM     11  H   UNL     1      38.812 -26.669 -15.393  0.00  0.00    +0.159 HD
ENDROOT
TORSDOF 0
ENDMDL
MODEL 4
REMARK VINA RESULT:      -5.7      3.399      4.310
REMARK  Name = 5288605
REMARK  0 active torsions:
REMARK  status: ('A' for Active; 'I' for Inactive)
REMARK                            x       y       z     vdW  Elec       q    Type
REMARK                         _______ _______ _______ _____ _____    ______ ____
ROOT
ATOM      1  I   UNL     1      37.279 -23.187 -12.181  0.00  0.00    -0.064 I 
ATOM      2  O   UNL     1      37.140 -26.722 -12.093  0.00  0.00    -0.274 OA
ATOM      3  O   UNL     1      40.730 -25.610 -14.753  0.00  0.00    -0.252 OA
ATOM      4  N   UNL     1      38.742 -24.521 -15.116  0.00  0.00    -0.287 N 
ATOM      5  N   UNL     1      38.884 -26.229 -13.519  0.00  0.00    -0.239 N 
ATOM      6  C   UNL     1      36.884 -24.805 -13.524  0.00  0.00    +0.149 C 
ATOM      7  C   UNL     1      37.305 -24.487 -14.950  0.00  0.00    +0.111 C 
ATOM      8  C   UNL     1      37.616 -26.016 -12.982  0.00  0.00    +0.240 C 
ATOM      9  C   UNL     1      39.535 -25.466 -14.491  0.00  0.00    +0.307 C 
ATOM     10  H   UNL     1      39.169 -23.849 -15.695  0.00  0.00    +0.151 HD
ATOM     11  H   UNL     1      39.379 -27.006 -13.172  0.00  0.00    +0.159 HD
ENDROOT
TORSDOF 0
ENDMDL
MODEL 5
REMARK VINA RESULT:      -5.5      3.045      3.506
REMARK  Name = 5288605
REMARK  0 active torsions:
REMARK  status: ('A' for Active; 'I' for Inactive)
REMARK                            x       y       z     vdW  Elec       q    Type
REMARK                         _______ _______ _______ _____ _____    ______ ____
ROOT
ATOM      1  I   UNL     1      37.185 -23.119 -15.470  0.00  0.00    -0.064 I 
ATOM      2  O   UNL     1      36.228 -26.511 -15.784  0.00  0.00    -0.274 OA
ATOM      3  O   UNL     1      36.292 -25.572 -11.276  0.00  0.00    -0.252 OA
ATOM      4  N   UNL     1      38.084 -24.897 -12.543  0.00  0.00    -0.287 N 
ATOM      5  N   UNL     1      36.344 -26.132 -13.512  0.00  0.00    -0.239 N 
ATOM      6  C   UNL     1      37.972 -25.052 -14.999  0.00  0.00    +0.149 C 
ATOM      7  C   UNL     1      38.853 -25.029 -13.761  0.00  0.00    +0.111 C 
ATOM      8  C   UNL     1      36.787 -25.980 -14.824  0.00  0.00    +0.240 C 
ATOM      9  C   UNL     1      36.872 -25.541 -12.362  0.00  0.00    +0.307 C 
ATOM     10  H   UNL     1      38.434 -24.330 -11.819  0.00  0.00    +0.151 HD
ATOM     11  H   UNL     1      35.569 -26.725 -13.380  0.00  0.00    +0.159 HD
ENDROOT
TORSDOF 0
ENDMDL
MODEL 6
REMARK VINA RESULT:      -5.3      3.053      3.872
REMARK  Name = 5288605
REMARK  0 active torsions:
REMARK  status: ('A' for Active; 'I' for Inactive)
REMARK                            x       y       z     vdW  Elec       q    Type
REMARK                         _______ _______ _______ _____ _____    ______ ____
ROOT
ATOM      1  I   UNL     1      37.409 -23.809 -11.953  0.00  0.00    -0.064 I 
ATOM      2  O   UNL     1      33.993 -24.110 -12.826  0.00  0.00    -0.274 OA
ATOM      3  O   UNL     1      36.333 -26.840 -15.702  0.00  0.00    -0.252 OA
ATOM      4  N   UNL     1      37.115 -24.708 -15.365  0.00  0.00    -0.287 N 
ATOM      5  N   UNL     1      35.118 -25.412 -14.362  0.00  0.00    -0.239 N 
ATOM      6  C   UNL     1      36.128 -23.311 -13.593  0.00  0.00    +0.149 C 
ATOM      7  C   UNL     1      36.856 -23.354 -14.927  0.00  0.00    +0.111 C 
ATOM      8  C   UNL     1      34.967 -24.284 -13.557  0.00  0.00    +0.240 C 
ATOM      9  C   UNL     1      36.198 -25.729 -15.188  0.00  0.00    +0.307 C 
ATOM     10  H   UNL     1      37.972 -24.909 -15.804  0.00  0.00    +0.151 HD
ATOM     11  H   UNL     1      34.377 -26.060 -14.345  0.00  0.00    +0.159 HD
ENDROOT
TORSDOF 0
ENDMDL
MODEL 7
REMARK VINA RESULT:      -5.3     11.978     12.766
REMARK  Name = 5288605
REMARK  0 active torsions:
REMARK  status: ('A' for Active; 'I' for Inactive)
REMARK                            x       y       z     vdW  Elec       q    Type
REMARK                         _______ _______ _______ _____ _____    ______ ____
ROOT
ATOM      1  I   UNL     1      33.954 -19.473 -21.086  0.00  0.00    -0.064 I 
ATOM      2  O   UNL     1      34.911 -16.208 -20.115  0.00  0.00    -0.274 OA
ATOM      3  O   UNL     1      34.225 -16.082 -24.666  0.00  0.00    -0.252 OA
ATOM      4  N   UNL     1      35.477 -17.806 -23.813  0.00  0.00    -0.287 N 
ATOM      5  N   UNL     1      34.686 -16.106 -22.408  0.00  0.00    -0.239 N 
ATOM      6  C   UNL     1      35.601 -18.137 -21.375  0.00  0.00    +0.149 C 
ATOM      7  C   UNL     1      36.272 -18.333 -22.725  0.00  0.00    +0.111 C 
ATOM      8  C   UNL     1      35.059 -16.731 -21.219  0.00  0.00    +0.240 C 
ATOM      9  C   UNL     1      34.766 -16.625 -23.702  0.00  0.00    +0.307 C 
ATOM     10  H   UNL     1      35.442 -18.305 -24.660  0.00  0.00    +0.151 HD
ATOM     11  H   UNL     1      34.323 -15.195 -22.325  0.00  0.00    +0.159 HD
ENDROOT
TORSDOF 0
ENDMDL
MODEL 8
REMARK VINA RESULT:      -5.3      1.933      3.161
REMARK  Name = 5288605
REMARK  0 active torsions:
REMARK  status: ('A' for Active; 'I' for Inactive)
REMARK                            x       y       z     vdW  Elec       q    Type
REMARK                         _______ _______ _______ _____ _____    ______ ____
ROOT
ATOM      1  I   UNL     1      35.523 -24.169 -14.733  0.00  0.00    -0.064 I 
ATOM      2  O   UNL     1      34.956 -24.885 -11.314  0.00  0.00    -0.274 OA
ATOM      3  O   UNL     1      39.163 -23.034 -11.593  0.00  0.00    -0.252 OA
ATOM      4  N   UNL     1      38.613 -24.690 -13.085  0.00  0.00    -0.287 N 
ATOM      5  N   UNL     1      37.109 -24.062 -11.402  0.00  0.00    -0.239 N 
ATOM      6  C   UNL     1      36.286 -25.484 -13.227  0.00  0.00    +0.149 C 
ATOM      7  C   UNL     1      37.758 -25.804 -13.433  0.00  0.00    +0.111 C 
ATOM      8  C   UNL     1      36.041 -24.813 -11.891  0.00  0.00    +0.240 C 
ATOM      9  C   UNL     1      38.359 -23.876 -11.996  0.00  0.00    +0.307 C 
ATOM     10  H   UNL     1      39.403 -24.506 -13.643  0.00  0.00    +0.151 HD
ATOM     11  H   UNL     1      36.965 -23.612 -10.539  0.00  0.00    +0.159 HD
ENDROOT
TORSDOF 0
ENDMDL
MODEL 9
REMARK VINA RESULT:      -5.2      2.837      3.358
REMARK  Name = 5288605
REMARK  0 active torsions:
REMARK  status: ('A' for Active; 'I' for Inactive)
REMARK                            x       y       z     vdW  Elec       q    Type
REMARK                         _______ _______ _______ _____ _____    ______ ____
ROOT
ATOM      1  I   UNL     1      37.063 -22.582 -15.870  0.00  0.00    -0.064 I 
ATOM      2  O   UNL     1      36.459 -26.063 -15.654  0.00  0.00    -0.274 OA
ATOM      3  O   UNL     1      33.383 -24.018 -12.904  0.00  0.00    -0.252 OA
ATOM      4  N   UNL     1      35.575 -23.354 -12.751  0.00  0.00    -0.287 N 
ATOM      5  N   UNL     1      34.964 -25.106 -14.182  0.00  0.00    -0.239 N 
ATOM      6  C   UNL     1      37.211 -24.144 -14.414  0.00  0.00    +0.149 C 
ATOM      7  C   UNL     1      36.972 -23.638 -13.001  0.00  0.00    +0.111 C 
ATOM      8  C   UNL     1      36.206 -25.208 -14.805  0.00  0.00    +0.240 C 
ATOM      9  C   UNL     1      34.560 -24.152 -13.245  0.00  0.00    +0.307 C 
ATOM     10  H   UNL     1      35.341 -22.565 -12.211  0.00  0.00    +0.151 HD
ATOM     11  H   UNL     1      34.295 -25.784 -14.430  0.00  0.00    +0.159 HD
ENDROOT
TORSDOF 0
ENDMDL
