MODEL 1
REMARK VINA RESULT:      -6.9      0.000      0.000
REMARK  Name = 446275
REMARK  2 active torsions:
REMARK  status: ('A' for Active; 'I' for Inactive)
REMARK    1  A    between atoms: C_3  and  S_9
REMARK    2  A    between atoms: S_9  and  N_12
REMARK                            x       y       z     vdW  Elec       q    Type
REMARK                         _______ _______ _______ _____ _____    ______ ____
ROOT
ATOM      1  F   UNL     1      33.113 -18.535 -21.533  0.00  0.00    -0.204 F 
ATOM      2  F   UNL     1      37.566 -19.797 -20.532  0.00  0.00    -0.204 F 
ATOM      3  C   UNL     1      34.405 -21.361 -19.641  0.00  0.00    +0.126 C 
ATOM      4  C   UNL     1      35.777 -21.128 -19.737  0.00  0.00    +0.050 C 
ATOM      5  C   UNL     1      33.505 -20.485 -20.247  0.00  0.00    +0.050 C 
ATOM      6  C   UNL     1      33.977 -19.377 -20.950  0.00  0.00    +0.144 C 
ATOM      7  C   UNL     1      36.249 -20.020 -20.440  0.00  0.00    +0.144 C 
ATOM      8  C   UNL     1      35.349 -19.144 -21.046  0.00  0.00    +0.059 C 
ENDROOT
BRANCH   3   9
ATOM      9  S   UNL     1      33.814 -22.749 -18.760  0.00  0.00    +0.057 S 
ATOM     10  O   UNL     1      32.492 -22.432 -18.238  0.00  0.00    -0.153 OA
ATOM     11  O   UNL     1      34.002 -23.933 -19.585  0.00  0.00    -0.153 OA
BRANCH   9  12
ATOM     12  N   UNL     1      34.922 -22.805 -17.460  0.00  0.00    -0.203 NA
ATOM     13  H   UNL     1      35.377 -21.897 -17.363  0.00  0.00    +0.144 HD
ATOM     14  H   UNL     1      35.626 -23.520 -17.643  0.00  0.00    +0.144 HD
ENDBRANCH   9  12
ENDBRANCH   3   9
TORSDOF 2
ENDMDL
MODEL 2
REMARK VINA RESULT:      -6.9      0.198      2.392
REMARK  Name = 446275
REMARK  2 active torsions:
REMARK  status: ('A' for Active; 'I' for Inactive)
REMARK    1  A    between atoms: C_3  and  S_9
REMARK    2  A    between atoms: S_9  and  N_12
REMARK                            x       y       z     vdW  Elec       q    Type
REMARK                         _______ _______ _______ _____ _____    ______ ____
ROOT
ATOM      1  F   UNL     1      37.566 -19.992 -20.366  0.00  0.00    -0.204 F 
ATOM      2  F   UNL     1      33.160 -18.662 -21.483  0.00  0.00    -0.204 F 
ATOM      3  C   UNL     1      34.355 -21.474 -19.509  0.00  0.00    +0.126 C 
ATOM      4  C   UNL     1      33.486 -20.593 -20.152  0.00  0.00    +0.050 C 
ATOM      5  C   UNL     1      35.734 -21.271 -19.582  0.00  0.00    +0.050 C 
ATOM      6  C   UNL     1      36.242 -20.187 -20.296  0.00  0.00    +0.144 C 
ATOM      7  C   UNL     1      33.995 -19.508 -20.866  0.00  0.00    +0.144 C 
ATOM      8  C   UNL     1      35.373 -19.306 -20.939  0.00  0.00    +0.059 C 
ENDROOT
BRANCH   3   9
ATOM      9  S   UNL     1      33.718 -22.832 -18.614  0.00  0.00    +0.057 S 
ATOM     10  O   UNL     1      32.381 -22.490 -18.152  0.00  0.00    -0.153 OA
ATOM     11  O   UNL     1      33.926 -24.040 -19.398  0.00  0.00    -0.153 OA
BRANCH   9  12
ATOM     12  N   UNL     1      34.775 -22.860 -17.271  0.00  0.00    -0.203 NA
ATOM     13  H   UNL     1      34.290 -22.497 -16.450  0.00  0.00    +0.144 HD
ATOM     14  H   UNL     1      35.592 -22.281 -17.468  0.00  0.00    +0.144 HD
ENDBRANCH   9  12
ENDBRANCH   3   9
TORSDOF 2
ENDMDL
MODEL 3
REMARK VINA RESULT:      -6.7      8.584      8.873
REMARK  Name = 446275
REMARK  2 active torsions:
REMARK  status: ('A' for Active; 'I' for Inactive)
REMARK    1  A    between atoms: C_3  and  S_9
REMARK    2  A    between atoms: S_9  and  N_12
REMARK                            x       y       z     vdW  Elec       q    Type
REMARK                         _______ _______ _______ _____ _____    ______ ____
ROOT
ATOM      1  F   UNL     1      36.549 -26.837 -15.671  0.00  0.00    -0.204 F 
ATOM      2  F   UNL     1      40.506 -25.187 -13.660  0.00  0.00    -0.204 F 
ATOM      3  C   UNL     1      37.028 -24.880 -12.643  0.00  0.00    +0.126 C 
ATOM      4  C   UNL     1      38.416 -24.744 -12.641  0.00  0.00    +0.050 C 
ATOM      5  C   UNL     1      36.397 -25.586 -13.666  0.00  0.00    +0.050 C 
ATOM      6  C   UNL     1      37.154 -26.158 -14.688  0.00  0.00    +0.144 C 
ATOM      7  C   UNL     1      39.174 -25.317 -13.662  0.00  0.00    +0.144 C 
ATOM      8  C   UNL     1      38.543 -26.023 -14.686  0.00  0.00    +0.059 C 
ENDROOT
BRANCH   3   9
ATOM      9  S   UNL     1      36.079 -24.163 -11.363  0.00  0.00    +0.057 S 
ATOM     10  O   UNL     1      35.522 -25.234 -10.549  0.00  0.00    -0.153 OA
ATOM     11  O   UNL     1      36.868 -23.113 -10.735  0.00  0.00    -0.153 OA
BRANCH   9  12
ATOM     12  N   UNL     1      34.817 -23.439 -12.260  0.00  0.00    -0.203 NA
ATOM     13  H   UNL     1      34.508 -22.590 -11.787  0.00  0.00    +0.144 HD
ATOM     14  H   UNL     1      34.036 -24.090 -12.335  0.00  0.00    +0.144 HD
ENDBRANCH   9  12
ENDBRANCH   3   9
TORSDOF 2
ENDMDL
MODEL 4
REMARK VINA RESULT:      -6.6      5.552      6.211
REMARK  Name = 446275
REMARK  2 active torsions:
REMARK  status: ('A' for Active; 'I' for Inactive)
REMARK    1  A    between atoms: C_3  and  S_9
REMARK    2  A    between atoms: S_9  and  N_12
REMARK                            x       y       z     vdW  Elec       q    Type
REMARK                         _______ _______ _______ _____ _____    ______ ____
ROOT
ATOM      1  F   UNL     1      34.966 -20.188 -21.506  0.00  0.00    -0.204 F 
ATOM      2  F   UNL     1      34.839 -17.964 -25.686  0.00  0.00    -0.204 F 
ATOM      3  C   UNL     1      34.395 -16.685 -22.309  0.00  0.00    +0.126 C 
ATOM      4  C   UNL     1      34.490 -16.722 -23.700  0.00  0.00    +0.050 C 
ATOM      5  C   UNL     1      34.555 -17.856 -21.568  0.00  0.00    +0.050 C 
ATOM      6  C   UNL     1      34.812 -19.063 -22.218  0.00  0.00    +0.144 C 
ATOM      7  C   UNL     1      34.747 -17.929 -24.350  0.00  0.00    +0.144 C 
ATOM      8  C   UNL     1      34.907 -19.100 -23.609  0.00  0.00    +0.059 C 
ENDROOT
BRANCH   3   9
ATOM      9  S   UNL     1      34.074 -15.174 -21.495  0.00  0.00    +0.057 S 
ATOM     10  O   UNL     1      32.632 -15.019 -21.367  0.00  0.00    -0.153 OA
ATOM     11  O   UNL     1      34.918 -15.097 -20.312  0.00  0.00    -0.153 OA
BRANCH   9  12
ATOM     12  N   UNL     1      34.648 -14.054 -22.652  0.00  0.00    -0.203 NA
ATOM     13  H   UNL     1      34.017 -14.041 -23.454  0.00  0.00    +0.144 HD
ATOM     14  H   UNL     1      35.581 -14.328 -22.957  0.00  0.00    +0.144 HD
ENDBRANCH   9  12
ENDBRANCH   3   9
TORSDOF 2
ENDMDL
MODEL 5
REMARK VINA RESULT:      -6.6      5.563      6.076
REMARK  Name = 446275
REMARK  2 active torsions:
REMARK  status: ('A' for Active; 'I' for Inactive)
REMARK    1  A    between atoms: C_3  and  S_9
REMARK    2  A    between atoms: S_9  and  N_12
REMARK                            x       y       z     vdW  Elec       q    Type
REMARK                         _______ _______ _______ _____ _____    ______ ____
ROOT
ATOM      1  F   UNL     1      34.918 -17.896 -25.683  0.00  0.00    -0.204 F 
ATOM      2  F   UNL     1      34.872 -20.179 -21.533  0.00  0.00    -0.204 F 
ATOM      3  C   UNL     1      34.381 -16.658 -22.304  0.00  0.00    +0.126 C 
ATOM      4  C   UNL     1      34.499 -17.841 -21.575  0.00  0.00    +0.050 C 
ATOM      5  C   UNL     1      34.523 -16.676 -23.691  0.00  0.00    +0.050 C 
ATOM      6  C   UNL     1      34.782 -17.878 -24.350  0.00  0.00    +0.144 C 
ATOM      7  C   UNL     1      34.759 -19.043 -22.233  0.00  0.00    +0.144 C 
ATOM      8  C   UNL     1      34.900 -19.061 -23.621  0.00  0.00    +0.059 C 
ENDROOT
BRANCH   3   9
ATOM      9  S   UNL     1      34.056 -15.153 -21.479  0.00  0.00    +0.057 S 
ATOM     10  O   UNL     1      32.614 -15.008 -21.340  0.00  0.00    -0.153 OA
ATOM     11  O   UNL     1      34.908 -15.078 -20.302  0.00  0.00    -0.153 OA
BRANCH   9  12
ATOM     12  N   UNL     1      34.615 -14.023 -22.633  0.00  0.00    -0.203 NA
ATOM     13  H   UNL     1      35.585 -14.231 -22.870  0.00  0.00    +0.144 HD
ATOM     14  H   UNL     1      34.554 -13.081 -22.245  0.00  0.00    +0.144 HD
ENDBRANCH   9  12
ENDBRANCH   3   9
TORSDOF 2
ENDMDL
MODEL 6
REMARK VINA RESULT:      -6.5      6.537      7.427
REMARK  Name = 446275
REMARK  2 active torsions:
REMARK  status: ('A' for Active; 'I' for Inactive)
REMARK    1  A    between atoms: C_3  and  S_9
REMARK    2  A    between atoms: S_9  and  N_12
REMARK                            x       y       z     vdW  Elec       q    Type
REMARK                         _______ _______ _______ _____ _____    ______ ____
ROOT
ATOM      1  F   UNL     1      38.198 -22.737 -16.112  0.00  0.00    -0.204 F 
ATOM      2  F   UNL     1      33.491 -23.038 -15.688  0.00  0.00    -0.204 F 
ATOM      3  C   UNL     1      36.142 -24.046 -13.410  0.00  0.00    +0.126 C 
ATOM      4  C   UNL     1      34.866 -23.830 -13.931  0.00  0.00    +0.050 C 
ATOM      5  C   UNL     1      37.268 -23.677 -14.147  0.00  0.00    +0.050 C 
ATOM      6  C   UNL     1      37.117 -23.092 -15.404  0.00  0.00    +0.144 C 
ATOM      7  C   UNL     1      34.716 -23.245 -15.188  0.00  0.00    +0.144 C 
ATOM      8  C   UNL     1      35.841 -22.877 -15.925  0.00  0.00    +0.059 C 
ENDROOT
BRANCH   3   9
ATOM      9  S   UNL     1      36.330 -24.778 -11.836  0.00  0.00    +0.057 S 
ATOM     10  O   UNL     1      37.388 -24.074 -11.125  0.00  0.00    -0.153 OA
ATOM     11  O   UNL     1      35.015 -24.911 -11.228  0.00  0.00    -0.153 OA
BRANCH   9  12
ATOM     12  N   UNL     1      36.895 -26.333 -12.266  0.00  0.00    -0.203 NA
ATOM     13  H   UNL     1      36.214 -27.035 -11.974  0.00  0.00    +0.144 HD
ATOM     14  H   UNL     1      37.787 -26.511 -11.804  0.00  0.00    +0.144 HD
ENDBRANCH   9  12
ENDBRANCH   3   9
TORSDOF 2
ENDMDL
MODEL 7
REMARK VINA RESULT:      -6.4      6.753      7.295
REMARK  Name = 446275
REMARK  2 active torsions:
REMARK  status: ('A' for Active; 'I' for Inactive)
REMARK    1  A    between atoms: C_3  and  S_9
REMARK    2  A    between atoms: S_9  and  N_12
REMARK                            x       y       z     vdW  Elec       q    Type
REMARK                         _______ _______ _______ _____ _____    ______ ____
ROOT
ATOM      1  F   UNL     1      33.172 -23.644 -15.372  0.00  0.00    -0.204 F 
ATOM      2  F   UNL     1      37.722 -22.530 -16.073  0.00  0.00    -0.204 F 
ATOM      3  C   UNL     1      36.095 -24.188 -13.274  0.00  0.00    +0.126 C 
ATOM      4  C   UNL     1      37.091 -23.626 -14.071  0.00  0.00    +0.050 C 
ATOM      5  C   UNL     1      34.771 -24.194 -13.713  0.00  0.00    +0.050 C 
ATOM      6  C   UNL     1      34.444 -23.638 -14.949  0.00  0.00    +0.144 C 
ATOM      7  C   UNL     1      36.764 -23.070 -15.308  0.00  0.00    +0.144 C 
ATOM      8  C   UNL     1      35.440 -23.076 -15.747  0.00  0.00    +0.059 C 
ENDROOT
BRANCH   3   9
ATOM      9  S   UNL     1      36.504 -24.884 -11.725  0.00  0.00    +0.057 S 
ATOM     10  O   UNL     1      37.681 -24.197 -11.210  0.00  0.00    -0.153 OA
ATOM     11  O   UNL     1      35.296 -24.955 -10.916  0.00  0.00    -0.153 OA
BRANCH   9  12
ATOM     12  N   UNL     1      36.949 -26.468 -12.188  0.00  0.00    -0.203 NA
ATOM     13  H   UNL     1      36.193 -26.888 -12.728  0.00  0.00    +0.144 HD
ATOM     14  H   UNL     1      37.124 -27.029 -11.354  0.00  0.00    +0.144 HD
ENDBRANCH   9  12
ENDBRANCH   3   9
TORSDOF 2
ENDMDL
MODEL 8
REMARK VINA RESULT:      -6.3      6.090      6.911
REMARK  Name = 446275
REMARK  2 active torsions:
REMARK  status: ('A' for Active; 'I' for Inactive)
REMARK    1  A    between atoms: C_3  and  S_9
REMARK    2  A    between atoms: S_9  and  N_12
REMARK                            x       y       z     vdW  Elec       q    Type
REMARK                         _______ _______ _______ _____ _____    ______ ____
ROOT
ATOM      1  F   UNL     1      37.175 -21.304 -16.842  0.00  0.00    -0.204 F 
ATOM      2  F   UNL     1      33.865 -24.302 -15.266  0.00  0.00    -0.204 F 
ATOM      3  C   UNL     1      37.490 -24.423 -14.995  0.00  0.00    +0.126 C 
ATOM      4  C   UNL     1      36.148 -24.778 -14.860  0.00  0.00    +0.050 C 
ATOM      5  C   UNL     1      37.837 -23.249 -15.664  0.00  0.00    +0.050 C 
ATOM      6  C   UNL     1      36.842 -22.431 -16.199  0.00  0.00    +0.144 C 
ATOM      7  C   UNL     1      35.153 -23.960 -15.395  0.00  0.00    +0.144 C 
ATOM      8  C   UNL     1      35.500 -22.787 -16.065  0.00  0.00    +0.059 C 
ENDROOT
BRANCH   3   9
ATOM      9  S   UNL     1      38.736 -25.447 -14.325  0.00  0.00    +0.057 S 
ATOM     10  O   UNL     1      39.413 -24.713 -13.265  0.00  0.00    -0.153 OA
ATOM     11  O   UNL     1      38.160 -26.754 -14.046  0.00  0.00    -0.153 OA
BRANCH   9  12
ATOM     12  N   UNL     1      39.794 -25.588 -15.660  0.00  0.00    -0.203 NA
ATOM     13  H   UNL     1      39.276 -25.418 -16.523  0.00  0.00    +0.144 HD
ATOM     14  H   UNL     1      40.192 -26.527 -15.682  0.00  0.00    +0.144 HD
ENDBRANCH   9  12
ENDBRANCH   3   9
TORSDOF 2
ENDMDL
MODEL 9
REMARK VINA RESULT:      -6.3      4.726      5.563
REMARK  Name = 446275
REMARK  2 active torsions:
REMARK  status: ('A' for Active; 'I' for Inactive)
REMARK    1  A    between atoms: C_3  and  S_9
REMARK    2  A    between atoms: S_9  and  N_12
REMARK                            x       y       z     vdW  Elec       q    Type
REMARK                         _______ _______ _______ _____ _____    ______ ____
ROOT
ATOM      1  F   UNL     1      37.317 -19.916 -20.639  0.00  0.00    -0.204 F 
ATOM      2  F   UNL     1      32.638 -20.645 -20.628  0.00  0.00    -0.204 F 
ATOM      3  C   UNL     1      34.564 -17.637 -21.317  0.00  0.00    +0.126 C 
ATOM      4  C   UNL     1      33.475 -18.491 -21.141  0.00  0.00    +0.050 C 
ATOM      5  C   UNL     1      35.862 -18.118 -21.147  0.00  0.00    +0.050 C 
ATOM      6  C   UNL     1      36.071 -19.453 -20.802  0.00  0.00    +0.144 C 
ATOM      7  C   UNL     1      33.684 -19.825 -20.796  0.00  0.00    +0.144 C 
ATOM      8  C   UNL     1      34.982 -20.307 -20.626  0.00  0.00    +0.059 C 
ENDROOT
BRANCH   3   9
ATOM      9  S   UNL     1      34.302 -15.965 -21.750  0.00  0.00    +0.057 S 
ATOM     10  O   UNL     1      35.169 -15.641 -22.874  0.00  0.00    -0.153 OA
ATOM     11  O   UNL     1      32.869 -15.733 -21.850  0.00  0.00    -0.153 OA
BRANCH   9  12
ATOM     12  N   UNL     1      34.890 -15.173 -20.354  0.00  0.00    -0.203 NA
ATOM     13  H   UNL     1      35.475 -15.815 -19.820  0.00  0.00    +0.144 HD
ATOM     14  H   UNL     1      34.104 -14.870 -19.778  0.00  0.00    +0.144 HD
ENDBRANCH   9  12
ENDBRANCH   3   9
TORSDOF 2
ENDMDL
