MODEL 1
REMARK VINA RESULT:     -10.6      0.000      0.000
REMARK  Name = 5287869
REMARK  10 active torsions:
REMARK  status: ('A' for Active; 'I' for Inactive)
REMARK    1  A    between atoms: N_2  and  C_20
REMARK    2  A    between atoms: C_3  and  C_6
REMARK    3  A    between atoms: C_6  and  C_7
REMARK    4  A    between atoms: C_7  and  C_10
REMARK    5  A    between atoms: N_9  and  C_12
REMARK    6  A    between atoms: C_12  and  C_13
REMARK    7  A    between atoms: C_13  and  C_15
REMARK    8  A    between atoms: C_20  and  C_23
REMARK    9  A    between atoms: C_20  and  C_26
REMARK   10  A    between atoms: C_26  and  C_27
REMARK                            x       y       z     vdW  Elec       q    Type
REMARK                         _______ _______ _______ _____ _____    ______ ____
ROOT
ATOM      1  O   UNL     1      35.758 -22.437 -17.297  0.00  0.00    -0.267 OA
ATOM      2  N   UNL     1      34.168 -23.682 -16.105  0.00  0.00    -0.292 N 
ATOM      3  C   UNL     1      34.685 -23.012 -17.189  0.00  0.00    +0.282 C 
ATOM      4  H   UNL     1      33.277 -24.094 -16.187  0.00  0.00    +0.150 HD
ENDROOT
BRANCH   3   6
ATOM      5  O   UNL     1      33.779 -24.076 -19.051  0.00  0.00    -0.286 OA
ATOM      6  C   UNL     1      33.788 -23.049 -18.391  0.00  0.00    +0.235 C 
BRANCH   6   7
ATOM      7  C   UNL     1      32.965 -21.815 -18.663  0.00  0.00    +0.159 C 
BRANCH   7  10
ATOM      8  O   UNL     1      32.589 -20.665 -20.747  0.00  0.00    -0.275 OA
ATOM      9  N   UNL     1      34.755 -20.804 -19.926  0.00  0.00    -0.304 N 
ATOM     10  C   UNL     1      33.388 -21.028 -19.887  0.00  0.00    +0.231 C 
ATOM     11  H   UNL     1      35.312 -21.137 -19.186  0.00  0.00    +0.149 HD
BRANCH   9  12
ATOM     12  C   UNL     1      35.393 -20.101 -21.015  0.00  0.00    +0.096 C 
BRANCH  12  13
ATOM     13  C   UNL     1      35.014 -18.623 -21.059  0.00  0.00    +0.067 C 
BRANCH  13  15
ATOM     14  N   UNL     1      34.995 -16.752 -22.619  0.00  0.00    -0.248 NA
ATOM     15  C   UNL     1      34.885 -18.090 -22.465  0.00  0.00    +0.061 C 
ATOM     16  C   UNL     1      34.666 -18.975 -23.509  0.00  0.00    +0.015 C 
ATOM     17  C   UNL     1      34.553 -18.453 -24.793  0.00  0.00    +0.003 C 
ATOM     18  C   UNL     1      34.879 -16.280 -23.881  0.00  0.00    +0.098 C 
ATOM     19  C   UNL     1      34.660 -17.081 -24.990  0.00  0.00    +0.021 C 
ENDBRANCH  13  15
ENDBRANCH  12  13
ENDBRANCH   9  12
ENDBRANCH   7  10
ENDBRANCH   6   7
ENDBRANCH   3   6
BRANCH   2  20
ATOM     20  C   UNL     1      34.875 -23.809 -14.851  0.00  0.00    +0.153 C 
BRANCH  20  23
ATOM     21  O   UNL     1      35.454 -26.006 -15.620  0.00  0.00    -0.273 OA
ATOM     22  N   UNL     1      37.090 -24.889 -14.421  0.00  0.00    -0.275 N 
ATOM     23  C   UNL     1      35.817 -25.007 -14.990  0.00  0.00    +0.244 C 
ATOM     24  C   UNL     1      38.096 -25.940 -14.525  0.00  0.00    +0.115 C 
ATOM     25  C   UNL     1      37.511 -23.705 -13.677  0.00  0.00    +0.115 C 
ENDBRANCH  20  23
BRANCH  20  26
ATOM     26  C   UNL     1      33.901 -24.030 -13.686  0.00  0.00    +0.055 C 
BRANCH  26  27
ATOM     27  C   UNL     1      32.455 -24.006 -14.118  0.00  0.00    -0.020 C 
ATOM     28  C   UNL     1      31.714 -25.187 -14.138  0.00  0.00    -0.004 C 
ATOM     29  C   UNL     1      31.860 -22.802 -14.496  0.00  0.00    -0.004 C 
ATOM     30  C   UNL     1      30.378 -25.165 -14.538  0.00  0.00    -0.000 C 
ATOM     31  C   UNL     1      30.523 -22.781 -14.896  0.00  0.00    -0.000 C 
ATOM     32  C   UNL     1      29.782 -23.962 -14.917  0.00  0.00    -0.000 C 
ENDBRANCH  26  27
ENDBRANCH  20  26
ENDBRANCH   2  20
TORSDOF 10
ENDMDL
MODEL 2
REMARK VINA RESULT:     -10.2      1.850      4.243
REMARK  Name = 5287869
REMARK  10 active torsions:
REMARK  status: ('A' for Active; 'I' for Inactive)
REMARK    1  A    between atoms: N_2  and  C_20
REMARK    2  A    between atoms: C_3  and  C_6
REMARK    3  A    between atoms: C_6  and  C_7
REMARK    4  A    between atoms: C_7  and  C_10
REMARK    5  A    between atoms: N_9  and  C_12
REMARK    6  A    between atoms: C_12  and  C_13
REMARK    7  A    between atoms: C_13  and  C_15
REMARK    8  A    between atoms: C_20  and  C_23
REMARK    9  A    between atoms: C_20  and  C_26
REMARK   10  A    between atoms: C_26  and  C_27
REMARK                            x       y       z     vdW  Elec       q    Type
REMARK                         _______ _______ _______ _____ _____    ______ ____
ROOT
ATOM      1  O   UNL     1      33.846 -24.000 -18.868  0.00  0.00    -0.267 OA
ATOM      2  N   UNL     1      32.721 -22.480 -17.480  0.00  0.00    -0.292 N 
ATOM      3  C   UNL     1      33.471 -22.878 -18.562  0.00  0.00    +0.282 C 
ATOM      4  H   UNL     1      32.504 -21.524 -17.383  0.00  0.00    +0.150 HD
ENDROOT
BRANCH   3   6
ATOM      5  O   UNL     1      32.941 -20.947 -19.752  0.00  0.00    -0.286 OA
ATOM      6  C   UNL     1      33.824 -21.748 -19.485  0.00  0.00    +0.235 C 
BRANCH   6   7
ATOM      7  C   UNL     1      35.245 -21.698 -19.986  0.00  0.00    +0.159 C 
BRANCH   7  10
ATOM      8  O   UNL     1      36.800 -19.883 -19.684  0.00  0.00    -0.275 OA
ATOM      9  N   UNL     1      34.986 -19.573 -21.098  0.00  0.00    -0.304 N 
ATOM     10  C   UNL     1      35.783 -20.303 -20.231  0.00  0.00    +0.231 C 
ATOM     11  H   UNL     1      34.188 -20.002 -21.485  0.00  0.00    +0.149 HD
BRANCH   9  12
ATOM     12  C   UNL     1      35.283 -18.206 -21.457  0.00  0.00    +0.096 C 
BRANCH  12  13
ATOM     13  C   UNL     1      35.647 -18.052 -22.931  0.00  0.00    +0.067 C 
BRANCH  13  15
ATOM     14  N   UNL     1      34.663 -15.825 -22.868  0.00  0.00    -0.248 NA
ATOM     15  C   UNL     1      34.899 -16.931 -23.608  0.00  0.00    +0.061 C 
ATOM     16  C   UNL     1      34.496 -17.082 -24.926  0.00  0.00    +0.015 C 
ATOM     17  C   UNL     1      33.808 -16.030 -25.522  0.00  0.00    +0.003 C 
ATOM     18  C   UNL     1      33.992 -14.823 -23.480  0.00  0.00    +0.098 C 
ATOM     19  C   UNL     1      33.548 -14.876 -24.791  0.00  0.00    +0.021 C 
ENDBRANCH  13  15
ENDBRANCH  12  13
ENDBRANCH   9  12
ENDBRANCH   7  10
ENDBRANCH   6   7
ENDBRANCH   3   6
BRANCH   2  20
ATOM     20  C   UNL     1      32.235 -23.404 -16.480  0.00  0.00    +0.153 C 
BRANCH  20  23
ATOM     21  O   UNL     1      30.192 -22.243 -16.964  0.00  0.00    -0.273 OA
ATOM     22  N   UNL     1      29.996 -24.127 -15.632  0.00  0.00    -0.275 N 
ATOM     23  C   UNL     1      30.724 -23.190 -16.374  0.00  0.00    +0.244 C 
ATOM     24  C   UNL     1      28.546 -24.062 -15.493  0.00  0.00    +0.115 C 
ATOM     25  C   UNL     1      30.632 -25.243 -14.936  0.00  0.00    +0.115 C 
ENDBRANCH  20  23
BRANCH  20  26
ATOM     26  C   UNL     1      32.906 -23.154 -15.123  0.00  0.00    +0.055 C 
BRANCH  26  27
ATOM     27  C   UNL     1      34.366 -23.534 -15.113  0.00  0.00    -0.020 C 
ATOM     28  C   UNL     1      34.744 -24.844 -14.820  0.00  0.00    -0.004 C 
ATOM     29  C   UNL     1      35.340 -22.575 -15.396  0.00  0.00    -0.004 C 
ATOM     30  C   UNL     1      36.094 -25.195 -14.809  0.00  0.00    -0.000 C 
ATOM     31  C   UNL     1      36.689 -22.927 -15.386  0.00  0.00    -0.000 C 
ATOM     32  C   UNL     1      37.066 -24.237 -15.092  0.00  0.00    -0.000 C 
ENDBRANCH  26  27
ENDBRANCH  20  26
ENDBRANCH   2  20
TORSDOF 10
ENDMDL
MODEL 3
REMARK VINA RESULT:     -10.1      7.979     14.652
REMARK  Name = 5287869
REMARK  10 active torsions:
REMARK  status: ('A' for Active; 'I' for Inactive)
REMARK    1  A    between atoms: N_2  and  C_20
REMARK    2  A    between atoms: C_3  and  C_6
REMARK    3  A    between atoms: C_6  and  C_7
REMARK    4  A    between atoms: C_7  and  C_10
REMARK    5  A    between atoms: N_9  and  C_12
REMARK    6  A    between atoms: C_12  and  C_13
REMARK    7  A    between atoms: C_13  and  C_15
REMARK    8  A    between atoms: C_20  and  C_23
REMARK    9  A    between atoms: C_20  and  C_26
REMARK   10  A    between atoms: C_26  and  C_27
REMARK                            x       y       z     vdW  Elec       q    Type
REMARK                         _______ _______ _______ _____ _____    ______ ____
ROOT
ATOM      1  O   UNL     1      35.076  -8.858 -23.643  0.00  0.00    -0.267 OA
ATOM      2  N   UNL     1      32.894  -9.665 -23.935  0.00  0.00    -0.292 N 
ATOM      3  C   UNL     1      34.248  -9.586 -24.167  0.00  0.00    +0.282 C 
ATOM      4  H   UNL     1      32.365 -10.316 -24.452  0.00  0.00    +0.150 HD
ENDROOT
BRANCH   3   6
ATOM      5  O   UNL     1      35.852 -10.402 -25.646  0.00  0.00    -0.286 OA
ATOM      6  C   UNL     1      34.733 -10.575 -25.188  0.00  0.00    +0.235 C 
BRANCH   6   7
ATOM      7  C   UNL     1      33.795 -11.702 -25.541  0.00  0.00    +0.159 C 
BRANCH   7  10
ATOM      8  O   UNL     1      33.828 -12.594 -23.303  0.00  0.00    -0.275 OA
ATOM      9  N   UNL     1      33.538 -14.056 -25.082  0.00  0.00    -0.304 N 
ATOM     10  C   UNL     1      33.716 -12.807 -24.508  0.00  0.00    +0.231 C 
ATOM     11  H   UNL     1      33.459 -14.122 -26.061  0.00  0.00    +0.149 HD
BRANCH   9  12
ATOM     12  C   UNL     1      33.464 -15.265 -24.295  0.00  0.00    +0.096 C 
BRANCH  12  13
ATOM     13  C   UNL     1      34.706 -16.139 -24.446  0.00  0.00    +0.067 C 
BRANCH  13  15
ATOM     14  N   UNL     1      35.076 -16.645 -22.092  0.00  0.00    -0.248 NA
ATOM     15  C   UNL     1      34.859 -17.143 -23.329  0.00  0.00    +0.061 C 
ATOM     16  C   UNL     1      34.772 -18.496 -23.617  0.00  0.00    +0.015 C 
ATOM     17  C   UNL     1      34.917 -19.395 -22.566  0.00  0.00    +0.003 C 
ATOM     18  C   UNL     1      35.212 -17.548 -21.095  0.00  0.00    +0.098 C 
ATOM     19  C   UNL     1      35.141 -18.920 -21.279  0.00  0.00    +0.021 C 
ENDBRANCH  13  15
ENDBRANCH  12  13
ENDBRANCH   9  12
ENDBRANCH   7  10
ENDBRANCH   6   7
ENDBRANCH   3   6
BRANCH   2  20
ATOM     20  C   UNL     1      32.215  -8.836 -22.967  0.00  0.00    +0.153 C 
BRANCH  20  23
ATOM     21  O   UNL     1      31.232 -10.848 -22.106  0.00  0.00    -0.273 OA
ATOM     22  N   UNL     1      31.985  -9.332 -20.526  0.00  0.00    -0.275 N 
ATOM     23  C   UNL     1      31.751  -9.759 -21.838  0.00  0.00    +0.244 C 
ATOM     24  C   UNL     1      31.634 -10.139 -19.364  0.00  0.00    +0.115 C 
ATOM     25  C   UNL     1      32.598  -8.043 -20.217  0.00  0.00    +0.115 C 
ENDBRANCH  20  23
BRANCH  20  26
ATOM     26  C   UNL     1      31.013  -8.120 -23.596  0.00  0.00    +0.055 C 
BRANCH  26  27
ATOM     27  C   UNL     1      31.179  -6.620 -23.634  0.00  0.00    -0.020 C 
ATOM     28  C   UNL     1      31.723  -6.007 -24.763  0.00  0.00    -0.004 C 
ATOM     29  C   UNL     1      30.787  -5.846 -22.541  0.00  0.00    -0.004 C 
ATOM     30  C   UNL     1      31.877  -4.621 -24.797  0.00  0.00    -0.000 C 
ATOM     31  C   UNL     1      30.941  -4.461 -22.577  0.00  0.00    -0.000 C 
ATOM     32  C   UNL     1      31.486  -3.848 -23.705  0.00  0.00    -0.000 C 
ENDBRANCH  26  27
ENDBRANCH  20  26
ENDBRANCH   2  20
TORSDOF 10
ENDMDL
MODEL 4
REMARK VINA RESULT:     -10.0      1.499      2.035
REMARK  Name = 5287869
REMARK  10 active torsions:
REMARK  status: ('A' for Active; 'I' for Inactive)
REMARK    1  A    between atoms: N_2  and  C_20
REMARK    2  A    between atoms: C_3  and  C_6
REMARK    3  A    between atoms: C_6  and  C_7
REMARK    4  A    between atoms: C_7  and  C_10
REMARK    5  A    between atoms: N_9  and  C_12
REMARK    6  A    between atoms: C_12  and  C_13
REMARK    7  A    between atoms: C_13  and  C_15
REMARK    8  A    between atoms: C_20  and  C_23
REMARK    9  A    between atoms: C_20  and  C_26
REMARK   10  A    between atoms: C_26  and  C_27
REMARK                            x       y       z     vdW  Elec       q    Type
REMARK                         _______ _______ _______ _____ _____    ______ ____
ROOT
ATOM      1  O   UNL     1      37.003 -21.757 -15.968  0.00  0.00    -0.267 OA
ATOM      2  N   UNL     1      35.142 -23.166 -16.200  0.00  0.00    -0.292 N 
ATOM      3  C   UNL     1      36.082 -22.246 -16.604  0.00  0.00    +0.282 C 
ATOM      4  H   UNL     1      34.460 -23.458 -16.848  0.00  0.00    +0.150 HD
ENDROOT
BRANCH   3   6
ATOM      5  O   UNL     1      36.817 -21.144 -18.521  0.00  0.00    -0.286 OA
ATOM      6  C   UNL     1      35.936 -21.844 -18.043  0.00  0.00    +0.235 C 
BRANCH   6   7
ATOM      7  C   UNL     1      34.721 -22.358 -18.773  0.00  0.00    +0.159 C 
BRANCH   7  10
ATOM      8  O   UNL     1      32.686 -21.236 -19.406  0.00  0.00    -0.275 OA
ATOM      9  N   UNL     1      34.702 -20.438 -20.234  0.00  0.00    -0.304 N 
ATOM     10  C   UNL     1      33.911 -21.293 -19.483  0.00  0.00    +0.231 C 
ATOM     11  H   UNL     1      35.678 -20.568 -20.229  0.00  0.00    +0.149 HD
BRANCH   9  12
ATOM     12  C   UNL     1      34.147 -19.362 -21.022  0.00  0.00    +0.096 C 
BRANCH  12  13
ATOM     13  C   UNL     1      35.206 -18.628 -21.840  0.00  0.00    +0.067 C 
BRANCH  13  15
ATOM     14  N   UNL     1      34.877 -16.673 -23.254  0.00  0.00    -0.248 NA
ATOM     15  C   UNL     1      34.916 -17.156 -21.992  0.00  0.00    +0.061 C 
ATOM     16  C   UNL     1      34.709 -16.384 -20.860  0.00  0.00    +0.015 C 
ATOM     17  C   UNL     1      34.443 -15.030 -21.034  0.00  0.00    +0.003 C 
ATOM     18  C   UNL     1      34.617 -15.352 -23.385  0.00  0.00    +0.098 C 
ATOM     19  C   UNL     1      34.395 -14.497 -22.317  0.00  0.00    +0.021 C 
ENDBRANCH  13  15
ENDBRANCH  12  13
ENDBRANCH   9  12
ENDBRANCH   7  10
ENDBRANCH   6   7
ENDBRANCH   3   6
BRANCH   2  20
ATOM     20  C   UNL     1      35.113 -23.723 -14.867  0.00  0.00    +0.153 C 
BRANCH  20  23
ATOM     21  O   UNL     1      36.680 -25.413 -15.531  0.00  0.00    -0.273 OA
ATOM     22  N   UNL     1      37.215 -24.233 -13.611  0.00  0.00    -0.275 N 
ATOM     23  C   UNL     1      36.393 -24.544 -14.699  0.00  0.00    +0.244 C 
ATOM     24  C   UNL     1      38.483 -24.910 -13.367  0.00  0.00    +0.115 C 
ATOM     25  C   UNL     1      36.867 -23.205 -12.633  0.00  0.00    +0.115 C 
ENDBRANCH  20  23
BRANCH  20  26
ATOM     26  C   UNL     1      33.879 -24.611 -14.665  0.00  0.00    +0.055 C 
BRANCH  26  27
ATOM     27  C   UNL     1      32.584 -23.890 -14.949  0.00  0.00    -0.020 C 
ATOM     28  C   UNL     1      31.708 -23.592 -13.904  0.00  0.00    -0.004 C 
ATOM     29  C   UNL     1      32.263 -23.519 -16.255  0.00  0.00    -0.004 C 
ATOM     30  C   UNL     1      30.511 -22.926 -14.167  0.00  0.00    -0.000 C 
ATOM     31  C   UNL     1      31.066 -22.852 -16.516  0.00  0.00    -0.000 C 
ATOM     32  C   UNL     1      30.190 -22.555 -15.472  0.00  0.00    -0.000 C 
ENDBRANCH  26  27
ENDBRANCH  20  26
ENDBRANCH   2  20
TORSDOF 10
ENDMDL
MODEL 5
REMARK VINA RESULT:      -9.7      6.512     13.508
REMARK  Name = 5287869
REMARK  10 active torsions:
REMARK  status: ('A' for Active; 'I' for Inactive)
REMARK    1  A    between atoms: N_2  and  C_20
REMARK    2  A    between atoms: C_3  and  C_6
REMARK    3  A    between atoms: C_6  and  C_7
REMARK    4  A    between atoms: C_7  and  C_10
REMARK    5  A    between atoms: N_9  and  C_12
REMARK    6  A    between atoms: C_12  and  C_13
REMARK    7  A    between atoms: C_13  and  C_15
REMARK    8  A    between atoms: C_20  and  C_23
REMARK    9  A    between atoms: C_20  and  C_26
REMARK   10  A    between atoms: C_26  and  C_27
REMARK                            x       y       z     vdW  Elec       q    Type
REMARK                         _______ _______ _______ _____ _____    ______ ____
ROOT
ATOM      1  O   UNL     1      31.209 -12.023 -21.946  0.00  0.00    -0.267 OA
ATOM      2  N   UNL     1      33.175 -11.759 -23.195  0.00  0.00    -0.292 N 
ATOM      3  C   UNL     1      32.249 -12.435 -22.434  0.00  0.00    +0.282 C 
ATOM      4  H   UNL     1      33.969 -12.248 -23.514  0.00  0.00    +0.150 HD
ENDROOT
BRANCH   3   6
ATOM      5  O   UNL     1      32.667 -14.583 -23.231  0.00  0.00    -0.286 OA
ATOM      6  C   UNL     1      32.591 -13.883 -22.233  0.00  0.00    +0.235 C 
BRANCH   6   7
ATOM      7  C   UNL     1      32.825 -14.335 -20.814  0.00  0.00    +0.159 C 
BRANCH   7  10
ATOM      8  O   UNL     1      35.044 -14.912 -20.076  0.00  0.00    -0.275 OA
ATOM      9  N   UNL     1      33.787 -16.516 -21.185  0.00  0.00    -0.304 N 
ATOM     10  C   UNL     1      34.007 -15.265 -20.632  0.00  0.00    +0.231 C 
ATOM     11  H   UNL     1      32.918 -16.701 -21.610  0.00  0.00    +0.149 HD
BRANCH   9  12
ATOM     12  C   UNL     1      34.785 -17.560 -21.159  0.00  0.00    +0.096 C 
BRANCH  12  13
ATOM     13  C   UNL     1      34.250 -18.896 -21.668  0.00  0.00    +0.067 C 
BRANCH  13  15
ATOM     14  N   UNL     1      35.681 -20.284 -20.268  0.00  0.00    -0.248 NA
ATOM     15  C   UNL     1      34.419 -20.016 -20.671  0.00  0.00    +0.061 C 
ATOM     16  C   UNL     1      33.300 -20.701 -20.225  0.00  0.00    +0.015 C 
ATOM     17  C   UNL     1      33.489 -21.728 -19.306  0.00  0.00    +0.003 C 
ATOM     18  C   UNL     1      35.826 -21.288 -19.375  0.00  0.00    +0.098 C 
ATOM     19  C   UNL     1      34.773 -22.033 -18.868  0.00  0.00    +0.021 C 
ENDBRANCH  13  15
ENDBRANCH  12  13
ENDBRANCH   9  12
ENDBRANCH   7  10
ENDBRANCH   6   7
ENDBRANCH   3   6
BRANCH   2  20
ATOM     20  C   UNL     1      33.034 -10.366 -23.548  0.00  0.00    +0.153 C 
BRANCH  20  23
ATOM     21  O   UNL     1      35.036  -9.067 -23.792  0.00  0.00    -0.273 OA
ATOM     22  N   UNL     1      34.654 -10.656 -25.433  0.00  0.00    -0.275 N 
ATOM     23  C   UNL     1      34.321  -9.956 -24.268  0.00  0.00    +0.244 C 
ATOM     24  C   UNL     1      35.876 -10.394 -26.183  0.00  0.00    +0.115 C 
ATOM     25  C   UNL     1      33.803 -11.705 -25.989  0.00  0.00    +0.115 C 
ENDBRANCH  20  23
BRANCH  20  26
ATOM     26  C   UNL     1      32.820  -9.497 -22.302  0.00  0.00    +0.055 C 
BRANCH  26  27
ATOM     27  C   UNL     1      32.189  -8.163 -22.620  0.00  0.00    -0.020 C 
ATOM     28  C   UNL     1      31.475  -7.994 -23.807  0.00  0.00    -0.004 C 
ATOM     29  C   UNL     1      32.317  -7.099 -21.726  0.00  0.00    -0.004 C 
ATOM     30  C   UNL     1      30.892  -6.761 -24.101  0.00  0.00    -0.000 C 
ATOM     31  C   UNL     1      31.733  -5.867 -22.021  0.00  0.00    -0.000 C 
ATOM     32  C   UNL     1      31.021  -5.698 -23.208  0.00  0.00    -0.000 C 
ENDBRANCH  26  27
ENDBRANCH  20  26
ENDBRANCH   2  20
TORSDOF 10
ENDMDL
MODEL 6
REMARK VINA RESULT:      -9.6      6.875     10.783
REMARK  Name = 5287869
REMARK  10 active torsions:
REMARK  status: ('A' for Active; 'I' for Inactive)
REMARK    1  A    between atoms: N_2  and  C_20
REMARK    2  A    between atoms: C_3  and  C_6
REMARK    3  A    between atoms: C_6  and  C_7
REMARK    4  A    between atoms: C_7  and  C_10
REMARK    5  A    between atoms: N_9  and  C_12
REMARK    6  A    between atoms: C_12  and  C_13
REMARK    7  A    between atoms: C_13  and  C_15
REMARK    8  A    between atoms: C_20  and  C_23
REMARK    9  A    between atoms: C_20  and  C_26
REMARK   10  A    between atoms: C_26  and  C_27
REMARK                            x       y       z     vdW  Elec       q    Type
REMARK                         _______ _______ _______ _____ _____    ______ ____
ROOT
ATOM      1  O   UNL     1      34.986 -15.264 -21.453  0.00  0.00    -0.267 OA
ATOM      2  N   UNL     1      33.440 -16.043 -23.035  0.00  0.00    -0.292 N 
ATOM      3  C   UNL     1      33.857 -15.547 -21.821  0.00  0.00    +0.282 C 
ATOM      4  H   UNL     1      32.480 -16.217 -23.168  0.00  0.00    +0.150 HD
ENDROOT
BRANCH   3   6
ATOM      5  O   UNL     1      32.054 -16.269 -20.536  0.00  0.00    -0.286 OA
ATOM      6  C   UNL     1      32.728 -15.304 -20.862  0.00  0.00    +0.235 C 
BRANCH   6   7
ATOM      7  C   UNL     1      32.542 -13.889 -20.376  0.00  0.00    +0.159 C 
BRANCH   7  10
ATOM      8  O   UNL     1      31.902 -13.219 -22.600  0.00  0.00    -0.275 OA
ATOM      9  N   UNL     1      31.588 -11.724 -20.853  0.00  0.00    -0.304 N 
ATOM     10  C   UNL     1      31.974 -12.935 -21.407  0.00  0.00    +0.231 C 
ATOM     11  H   UNL     1      31.686 -11.594 -19.882  0.00  0.00    +0.149 HD
BRANCH   9  12
ATOM     12  C   UNL     1      31.046 -10.647 -21.648  0.00  0.00    +0.096 C 
BRANCH  12  13
ATOM     13  C   UNL     1      31.746  -9.317 -21.387  0.00  0.00    +0.067 C 
BRANCH  13  15
ATOM     14  N   UNL     1      33.203 -10.039 -23.201  0.00  0.00    -0.248 NA
ATOM     15  C   UNL     1      32.850  -9.029 -22.375  0.00  0.00    +0.061 C 
ATOM     16  C   UNL     1      33.437  -7.774 -22.390  0.00  0.00    +0.015 C 
ATOM     17  C   UNL     1      34.451  -7.540 -23.313  0.00  0.00    +0.003 C 
ATOM     18  C   UNL     1      34.193  -9.776 -24.083  0.00  0.00    +0.098 C 
ATOM     19  C   UNL     1      34.842  -8.555 -24.178  0.00  0.00    +0.021 C 
ENDBRANCH  13  15
ENDBRANCH  12  13
ENDBRANCH   9  12
ENDBRANCH   7  10
ENDBRANCH   6   7
ENDBRANCH   3   6
BRANCH   2  20
ATOM     20  C   UNL     1      34.349 -16.317 -24.124  0.00  0.00    +0.153 C 
BRANCH  20  23
ATOM     21  O   UNL     1      33.228 -16.551 -26.232  0.00  0.00    -0.273 OA
ATOM     22  N   UNL     1      33.624 -14.379 -25.531  0.00  0.00    -0.275 N 
ATOM     23  C   UNL     1      33.697 -15.770 -25.396  0.00  0.00    +0.244 C 
ATOM     24  C   UNL     1      32.986 -13.734 -26.672  0.00  0.00    +0.115 C 
ATOM     25  C   UNL     1      34.181 -13.464 -24.538  0.00  0.00    +0.115 C 
ENDBRANCH  20  23
BRANCH  20  26
ATOM     26  C   UNL     1      34.609 -17.822 -24.263  0.00  0.00    +0.055 C 
BRANCH  26  27
ATOM     27  C   UNL     1      35.021 -18.468 -22.963  0.00  0.00    -0.020 C 
ATOM     28  C   UNL     1      36.316 -18.290 -22.475  0.00  0.00    -0.004 C 
ATOM     29  C   UNL     1      34.108 -19.243 -22.247  0.00  0.00    -0.004 C 
ATOM     30  C   UNL     1      36.697 -18.888 -21.274  0.00  0.00    -0.000 C 
ATOM     31  C   UNL     1      34.490 -19.840 -21.046  0.00  0.00    -0.000 C 
ATOM     32  C   UNL     1      35.784 -19.662 -20.559  0.00  0.00    -0.000 C 
ENDBRANCH  26  27
ENDBRANCH  20  26
ENDBRANCH   2  20
TORSDOF 10
ENDMDL
MODEL 7
REMARK VINA RESULT:      -9.6      5.589     13.074
REMARK  Name = 5287869
REMARK  10 active torsions:
REMARK  status: ('A' for Active; 'I' for Inactive)
REMARK    1  A    between atoms: N_2  and  C_20
REMARK    2  A    between atoms: C_3  and  C_6
REMARK    3  A    between atoms: C_6  and  C_7
REMARK    4  A    between atoms: C_7  and  C_10
REMARK    5  A    between atoms: N_9  and  C_12
REMARK    6  A    between atoms: C_12  and  C_13
REMARK    7  A    between atoms: C_13  and  C_15
REMARK    8  A    between atoms: C_20  and  C_23
REMARK    9  A    between atoms: C_20  and  C_26
REMARK   10  A    between atoms: C_26  and  C_27
REMARK                            x       y       z     vdW  Elec       q    Type
REMARK                         _______ _______ _______ _____ _____    ______ ____
ROOT
ATOM      1  O   UNL     1      31.632 -12.618 -22.161  0.00  0.00    -0.267 OA
ATOM      2  N   UNL     1      33.556 -12.761 -23.495  0.00  0.00    -0.292 N 
ATOM      3  C   UNL     1      32.660 -13.164 -22.532  0.00  0.00    +0.282 C 
ATOM      4  H   UNL     1      34.343 -13.326 -23.672  0.00  0.00    +0.150 HD
ENDROOT
BRANCH   3   6
ATOM      5  O   UNL     1      32.105 -15.159 -21.467  0.00  0.00    -0.286 OA
ATOM      6  C   UNL     1      33.021 -14.477 -21.901  0.00  0.00    +0.235 C 
BRANCH   6   7
ATOM      7  C   UNL     1      34.483 -14.841 -21.877  0.00  0.00    +0.159 C 
BRANCH   7  10
ATOM      8  O   UNL     1      35.221 -16.432 -20.225  0.00  0.00    -0.275 OA
ATOM      9  N   UNL     1      34.535 -17.216 -22.298  0.00  0.00    -0.304 N 
ATOM     10  C   UNL     1      34.782 -16.232 -21.355  0.00  0.00    +0.231 C 
ATOM     11  H   UNL     1      34.182 -16.952 -23.179  0.00  0.00    +0.149 HD
BRANCH   9  12
ATOM     12  C   UNL     1      34.775 -18.616 -22.036  0.00  0.00    +0.096 C 
BRANCH  12  13
ATOM     13  C   UNL     1      33.588 -19.299 -21.362  0.00  0.00    +0.067 C 
BRANCH  13  15
ATOM     14  N   UNL     1      33.006 -21.058 -19.781  0.00  0.00    -0.248 NA
ATOM     15  C   UNL     1      34.001 -20.379 -20.394  0.00  0.00    +0.061 C 
ATOM     16  C   UNL     1      35.350 -20.621 -20.183  0.00  0.00    +0.015 C 
ATOM     17  C   UNL     1      35.698 -21.624 -19.284  0.00  0.00    +0.003 C 
ATOM     18  C   UNL     1      33.383 -22.025 -18.914  0.00  0.00    +0.098 C 
ATOM     19  C   UNL     1      34.702 -22.343 -18.634  0.00  0.00    +0.021 C 
ENDBRANCH  13  15
ENDBRANCH  12  13
ENDBRANCH   9  12
ENDBRANCH   7  10
ENDBRANCH   6   7
ENDBRANCH   3   6
BRANCH   2  20
ATOM     20  C   UNL     1      33.391 -11.546 -24.260  0.00  0.00    +0.153 C 
BRANCH  20  23
ATOM     21  O   UNL     1      34.799 -11.065 -26.142  0.00  0.00    -0.273 OA
ATOM     22  N   UNL     1      33.490 -12.968 -26.316  0.00  0.00    -0.275 N 
ATOM     23  C   UNL     1      33.949 -11.821 -25.658  0.00  0.00    +0.244 C 
ATOM     24  C   UNL     1      33.978 -13.366 -27.631  0.00  0.00    +0.115 C 
ATOM     25  C   UNL     1      32.484 -13.855 -25.738  0.00  0.00    +0.115 C 
ENDBRANCH  20  23
BRANCH  20  26
ATOM     26  C   UNL     1      34.138 -10.375 -23.609  0.00  0.00    +0.055 C 
BRANCH  26  27
ATOM     27  C   UNL     1      33.342  -9.093 -23.621  0.00  0.00    -0.020 C 
ATOM     28  C   UNL     1      33.992  -7.870 -23.793  0.00  0.00    -0.004 C 
ATOM     29  C   UNL     1      31.957  -9.129 -23.461  0.00  0.00    -0.004 C 
ATOM     30  C   UNL     1      33.256  -6.685 -23.804  0.00  0.00    -0.000 C 
ATOM     31  C   UNL     1      31.222  -7.944 -23.472  0.00  0.00    -0.000 C 
ATOM     32  C   UNL     1      31.872  -6.722 -23.644  0.00  0.00    -0.000 C 
ENDBRANCH  26  27
ENDBRANCH  20  26
ENDBRANCH   2  20
TORSDOF 10
ENDMDL
MODEL 8
REMARK VINA RESULT:      -9.5      5.663     12.426
REMARK  Name = 5287869
REMARK  10 active torsions:
REMARK  status: ('A' for Active; 'I' for Inactive)
REMARK    1  A    between atoms: N_2  and  C_20
REMARK    2  A    between atoms: C_3  and  C_6
REMARK    3  A    between atoms: C_6  and  C_7
REMARK    4  A    between atoms: C_7  and  C_10
REMARK    5  A    between atoms: N_9  and  C_12
REMARK    6  A    between atoms: C_12  and  C_13
REMARK    7  A    between atoms: C_13  and  C_15
REMARK    8  A    between atoms: C_20  and  C_23
REMARK    9  A    between atoms: C_20  and  C_26
REMARK   10  A    between atoms: C_26  and  C_27
REMARK                            x       y       z     vdW  Elec       q    Type
REMARK                         _______ _______ _______ _____ _____    ______ ____
ROOT
ATOM      1  O   UNL     1      32.268 -13.783 -24.203  0.00  0.00    -0.267 OA
ATOM      2  N   UNL     1      32.968 -11.942 -22.929  0.00  0.00    -0.292 N 
ATOM      3  C   UNL     1      32.720 -13.270 -23.191  0.00  0.00    +0.282 C 
ATOM      4  H   UNL     1      33.339 -11.697 -22.050  0.00  0.00    +0.150 HD
ENDROOT
BRANCH   3   6
ATOM      5  O   UNL     1      32.214 -14.550 -21.311  0.00  0.00    -0.286 OA
ATOM      6  C   UNL     1      33.106 -14.178 -22.060  0.00  0.00    +0.235 C 
BRANCH   6   7
ATOM      7  C   UNL     1      34.560 -14.562 -21.962  0.00  0.00    +0.159 C 
BRANCH   7  10
ATOM      8  O   UNL     1      35.545 -16.069 -23.564  0.00  0.00    -0.275 OA
ATOM      9  N   UNL     1      34.364 -16.960 -21.776  0.00  0.00    -0.304 N 
ATOM     10  C   UNL     1      34.895 -15.926 -22.531  0.00  0.00    +0.231 C 
ATOM     11  H   UNL     1      33.856 -16.741 -20.962  0.00  0.00    +0.149 HD
BRANCH   9  12
ATOM     12  C   UNL     1      34.527 -18.348 -22.142  0.00  0.00    +0.096 C 
BRANCH  12  13
ATOM     13  C   UNL     1      35.692 -19.012 -21.412  0.00  0.00    +0.067 C 
BRANCH  13  15
ATOM     14  N   UNL     1      36.223 -20.745 -19.785  0.00  0.00    -0.248 NA
ATOM     15  C   UNL     1      35.252 -20.120 -20.487  0.00  0.00    +0.061 C 
ATOM     16  C   UNL     1      33.906 -20.437 -20.401  0.00  0.00    +0.015 C 
ATOM     17  C   UNL     1      33.532 -21.462 -19.538  0.00  0.00    +0.003 C 
ATOM     18  C   UNL     1      35.823 -21.737 -18.958  0.00  0.00    +0.098 C 
ATOM     19  C   UNL     1      34.503 -22.130 -18.800  0.00  0.00    +0.021 C 
ENDBRANCH  13  15
ENDBRANCH  12  13
ENDBRANCH   9  12
ENDBRANCH   7  10
ENDBRANCH   6   7
ENDBRANCH   3   6
BRANCH   2  20
ATOM     20  C   UNL     1      32.710 -10.893 -23.888  0.00  0.00    +0.153 C 
BRANCH  20  23
ATOM     21  O   UNL     1      34.651  -9.509 -23.616  0.00  0.00    -0.273 OA
ATOM     22  N   UNL     1      34.622 -10.855 -25.501  0.00  0.00    -0.275 N 
ATOM     23  C   UNL     1      34.070 -10.342 -24.321  0.00  0.00    +0.244 C 
ATOM     24  C   UNL     1      35.931 -10.447 -25.996  0.00  0.00    +0.115 C 
ATOM     25  C   UNL     1      33.929 -11.838 -26.329  0.00  0.00    +0.115 C 
ENDBRANCH  20  23
BRANCH  20  26
ATOM     26  C   UNL     1      31.855  -9.777 -23.272  0.00  0.00    +0.055 C 
BRANCH  26  27
ATOM     27  C   UNL     1      31.703  -9.914 -21.776  0.00  0.00    -0.020 C 
ATOM     28  C   UNL     1      32.287  -8.974 -20.927  0.00  0.00    -0.004 C 
ATOM     29  C   UNL     1      30.978 -10.980 -21.243  0.00  0.00    -0.004 C 
ATOM     30  C   UNL     1      32.147  -9.101 -19.545  0.00  0.00    -0.000 C 
ATOM     31  C   UNL     1      30.838 -11.105 -19.860  0.00  0.00    -0.000 C 
ATOM     32  C   UNL     1      31.423 -10.166 -19.012  0.00  0.00    -0.000 C 
ENDBRANCH  26  27
ENDBRANCH  20  26
ENDBRANCH   2  20
TORSDOF 10
ENDMDL
MODEL 9
REMARK VINA RESULT:      -9.4      6.576     13.457
REMARK  Name = 5287869
REMARK  10 active torsions:
REMARK  status: ('A' for Active; 'I' for Inactive)
REMARK    1  A    between atoms: N_2  and  C_20
REMARK    2  A    between atoms: C_3  and  C_6
REMARK    3  A    between atoms: C_6  and  C_7
REMARK    4  A    between atoms: C_7  and  C_10
REMARK    5  A    between atoms: N_9  and  C_12
REMARK    6  A    between atoms: C_12  and  C_13
REMARK    7  A    between atoms: C_13  and  C_15
REMARK    8  A    between atoms: C_20  and  C_23
REMARK    9  A    between atoms: C_20  and  C_26
REMARK   10  A    between atoms: C_26  and  C_27
REMARK                            x       y       z     vdW  Elec       q    Type
REMARK                         _______ _______ _______ _____ _____    ______ ____
ROOT
ATOM      1  O   UNL     1      34.174 -11.465 -24.258  0.00  0.00    -0.267 OA
ATOM      2  N   UNL     1      32.340 -11.794 -22.834  0.00  0.00    -0.292 N 
ATOM      3  C   UNL     1      33.309 -12.155 -23.742  0.00  0.00    +0.282 C 
ATOM      4  H   UNL     1      31.713 -12.484 -22.515  0.00  0.00    +0.150 HD
ENDROOT
BRANCH   3   6
ATOM      5  O   UNL     1      33.449 -13.915 -25.261  0.00  0.00    -0.286 OA
ATOM      6  C   UNL     1      33.280 -13.615 -24.089  0.00  0.00    +0.235 C 
BRANCH   6   7
ATOM      7  C   UNL     1      33.061 -14.580 -22.952  0.00  0.00    +0.159 C 
BRANCH   7  10
ATOM      8  O   UNL     1      35.285 -15.440 -23.292  0.00  0.00    -0.275 OA
ATOM      9  N   UNL     1      33.930 -16.452 -21.703  0.00  0.00    -0.304 N 
ATOM     10  C   UNL     1      34.223 -15.513 -22.679  0.00  0.00    +0.231 C 
ATOM     11  H   UNL     1      33.047 -16.427 -21.270  0.00  0.00    +0.149 HD
BRANCH   9  12
ATOM     12  C   UNL     1      34.876 -17.466 -21.297  0.00  0.00    +0.096 C 
BRANCH  12  13
ATOM     13  C   UNL     1      34.538 -18.843 -21.864  0.00  0.00    +0.067 C 
BRANCH  13  15
ATOM     14  N   UNL     1      35.800 -20.284 -20.360  0.00  0.00    -0.248 NA
ATOM     15  C   UNL     1      34.580 -19.934 -20.823  0.00  0.00    +0.061 C 
ATOM     16  C   UNL     1      33.394 -20.513 -20.399  0.00  0.00    +0.015 C 
ATOM     17  C   UNL     1      33.467 -21.516 -19.438  0.00  0.00    +0.003 C 
ATOM     18  C   UNL     1      35.832 -21.263 -19.428  0.00  0.00    +0.098 C 
ATOM     19  C   UNL     1      34.705 -21.904 -18.939  0.00  0.00    +0.021 C 
ENDBRANCH  13  15
ENDBRANCH  12  13
ENDBRANCH   9  12
ENDBRANCH   7  10
ENDBRANCH   6   7
ENDBRANCH   3   6
BRANCH   2  20
ATOM     20  C   UNL     1      32.203 -10.448 -22.327  0.00  0.00    +0.153 C 
BRANCH  20  23
ATOM     21  O   UNL     1      30.826 -11.521 -20.681  0.00  0.00    -0.273 OA
ATOM     22  N   UNL     1      31.858  -9.558 -20.015  0.00  0.00    -0.275 N 
ATOM     23  C   UNL     1      31.553 -10.557 -20.946  0.00  0.00    +0.244 C 
ATOM     24  C   UNL     1      31.342  -9.573 -18.651  0.00  0.00    +0.115 C 
ATOM     25  C   UNL     1      32.717  -8.422 -20.335  0.00  0.00    +0.115 C 
ENDBRANCH  20  23
BRANCH  20  26
ATOM     26  C   UNL     1      31.335  -9.591 -23.257  0.00  0.00    +0.055 C 
BRANCH  26  27
ATOM     27  C   UNL     1      32.051  -8.360 -23.757  0.00  0.00    -0.020 C 
ATOM     28  C   UNL     1      33.446  -8.330 -23.790  0.00  0.00    -0.004 C 
ATOM     29  C   UNL     1      31.320  -7.253 -24.187  0.00  0.00    -0.004 C 
ATOM     30  C   UNL     1      34.108  -7.192 -24.251  0.00  0.00    -0.000 C 
ATOM     31  C   UNL     1      31.983  -6.116 -24.649  0.00  0.00    -0.000 C 
ATOM     32  C   UNL     1      33.377  -6.085 -24.680  0.00  0.00    -0.000 C 
ENDBRANCH  26  27
ENDBRANCH  20  26
ENDBRANCH   2  20
TORSDOF 10
ENDMDL
