MODEL 1
REMARK VINA RESULT:     -10.0      0.000      0.000
REMARK  Name = 46937130
REMARK  12 active torsions:
REMARK  status: ('A' for Active; 'I' for Inactive)
REMARK    1  A    between atoms: N_1  and  C_13
REMARK    2  A    between atoms: C_9  and  S_27
REMARK    3  A    between atoms: C_11  and  O_15
REMARK    4  A    between atoms: C_12  and  O_17
REMARK    5  A    between atoms: C_14  and  C_19
REMARK    6  A    between atoms: C_19  and  O_20
REMARK    7  A    between atoms: O_20  and  P_21
REMARK    8  A    between atoms: P_21  and  O_23
REMARK    9  A    between atoms: P_21  and  O_25
REMARK   10  A    between atoms: N_29  and  C_31
REMARK   11  A    between atoms: C_31  and  C_32
REMARK   12  A    between atoms: C_32  and  C_33
REMARK                            x       y       z     vdW  Elec       q    Type
REMARK                         _______ _______ _______ _____ _____    ______ ____
ROOT
ATOM      1  N   UNL     1      35.894 -23.093 -14.578  0.00  0.00    -0.236 N 
ATOM      2  N   UNL     1      36.564 -22.531 -16.629  0.00  0.00    -0.240 NA
ATOM      3  N   UNL     1      33.504 -23.293 -14.961  0.00  0.00    -0.318 NA
ATOM      4  N   UNL     1      32.936 -22.817 -17.286  0.00  0.00    -0.318 NA
ATOM      5  C   UNL     1      34.766 -23.049 -15.346  0.00  0.00    +0.221 C 
ATOM      6  C   UNL     1      36.949 -22.774 -15.393  0.00  0.00    +0.224 C 
ATOM      7  C   UNL     1      35.203 -22.700 -16.614  0.00  0.00    +0.167 C 
ATOM      8  C   UNL     1      34.232 -22.586 -17.604  0.00  0.00    +0.214 C 
ATOM      9  C   UNL     1      32.657 -23.151 -16.003  0.00  0.00    +0.171 C 
ATOM     10  N   UNL     1      34.581 -22.239 -18.900  0.00  0.00    -0.306 N 
ATOM     11  H   UNL     1      35.532 -22.078 -19.098  0.00  0.00    +0.149 HD
ENDROOT
BRANCH   1  15
ATOM     12  O   UNL     1      37.345 -23.447 -12.648  0.00  0.00    -0.333 OA
ATOM     13  C   UNL     1      35.407 -24.801 -12.775  0.00  0.00    +0.187 C 
ATOM     14  C   UNL     1      36.147 -25.147 -11.497  0.00  0.00    +0.171 C 
ATOM     15  C   UNL     1      35.978 -23.426 -13.108  0.00  0.00    +0.226 C 
ATOM     16  C   UNL     1      37.533 -24.575 -11.764  0.00  0.00    +0.176 C 
BRANCH  13  17
ATOM     17  O   UNL     1      34.003 -24.794 -12.618  0.00  0.00    -0.378 OA
ATOM     18  H   UNL     1      33.705 -23.896 -12.406  0.00  0.00    +0.211 HD
ENDBRANCH  13  17
BRANCH  14  19
ATOM     19  O   UNL     1      35.583 -24.443 -10.391  0.00  0.00    -0.379 OA
ATOM     20  H   UNL     1      35.647 -23.488 -10.551  0.00  0.00    +0.211 HD
ENDBRANCH  14  19
BRANCH  16  21
ATOM     21  C   UNL     1      38.466 -25.565 -12.447  0.00  0.00    +0.186 C 
BRANCH  21  22
ATOM     22  O   UNL     1      39.311 -24.853 -13.333  0.00  0.00    -0.271 OA
BRANCH  22  23
ATOM     23  P   UNL     1      39.740 -25.559 -14.726  0.00  0.00    +0.473 P 
ATOM     24  O   UNL     1      40.882 -26.525 -14.621  0.00  0.00    -0.227 OA
BRANCH  23  25
ATOM     25  O   UNL     1      39.978 -24.313 -15.730  0.00  0.00    -0.303 OA
ATOM     26  H   UNL     1      40.272 -23.540 -15.222  0.00  0.00    +0.222 HD
ENDBRANCH  23  25
BRANCH  23  27
ATOM     27  O   UNL     1      38.350 -26.198 -15.251  0.00  0.00    -0.303 OA
ATOM     28  H   UNL     1      37.612 -25.834 -14.736  0.00  0.00    +0.222 HD
ENDBRANCH  23  27
ENDBRANCH  22  23
ENDBRANCH  21  22
ENDBRANCH  16  21
ENDBRANCH   1  15
BRANCH   9  29
ATOM     29  S   UNL     1      30.932 -23.444 -15.640  0.00  0.00    -0.017 S 
ATOM     30  C   UNL     1      31.032 -24.847 -14.495  0.00  0.00    +0.087 C 
ENDBRANCH   9  29
BRANCH  10  31
ATOM     31  C   UNL     1      33.630 -22.103 -19.977  0.00  0.00    +0.089 C 
BRANCH  31  32
ATOM     32  C   UNL     1      33.264 -20.635 -20.196  0.00  0.00    +0.021 C 
BRANCH  32  33
ATOM     33  C   UNL     1      34.192 -19.866 -21.159  0.00  0.00    +0.002 C 
ATOM     34  C   UNL     1      33.785 -18.389 -21.198  0.00  0.00    +0.000 C 
ATOM     35  C   UNL     1      35.665 -19.985 -20.771  0.00  0.00    +0.000 C 
ENDBRANCH  32  33
ENDBRANCH  31  32
ENDBRANCH  10  31
TORSDOF 12
ENDMDL
MODEL 2
REMARK VINA RESULT:      -9.5      4.278      6.730
REMARK  Name = 46937130
REMARK  12 active torsions:
REMARK  status: ('A' for Active; 'I' for Inactive)
REMARK    1  A    between atoms: N_1  and  C_13
REMARK    2  A    between atoms: C_9  and  S_27
REMARK    3  A    between atoms: C_11  and  O_15
REMARK    4  A    between atoms: C_12  and  O_17
REMARK    5  A    between atoms: C_14  and  C_19
REMARK    6  A    between atoms: C_19  and  O_20
REMARK    7  A    between atoms: O_20  and  P_21
REMARK    8  A    between atoms: P_21  and  O_23
REMARK    9  A    between atoms: P_21  and  O_25
REMARK   10  A    between atoms: N_29  and  C_31
REMARK   11  A    between atoms: C_31  and  C_32
REMARK   12  A    between atoms: C_32  and  C_33
REMARK                            x       y       z     vdW  Elec       q    Type
REMARK                         _______ _______ _______ _____ _____    ______ ____
ROOT
ATOM      1  N   UNL     1      32.618 -23.338 -16.612  0.00  0.00    -0.236 N 
ATOM      2  N   UNL     1      32.785 -22.260 -18.556  0.00  0.00    -0.240 NA
ATOM      3  N   UNL     1      34.954 -23.368 -15.950  0.00  0.00    -0.318 NA
ATOM      4  N   UNL     1      36.361 -22.269 -17.612  0.00  0.00    -0.318 NA
ATOM      5  C   UNL     1      33.944 -23.062 -16.778  0.00  0.00    +0.221 C 
ATOM      6  C   UNL     1      31.962 -22.837 -17.706  0.00  0.00    +0.224 C 
ATOM      7  C   UNL     1      34.028 -22.393 -17.989  0.00  0.00    +0.167 C 
ATOM      8  C   UNL     1      35.294 -21.992 -18.400  0.00  0.00    +0.214 C 
ATOM      9  C   UNL     1      36.128 -22.931 -16.453  0.00  0.00    +0.171 C 
ATOM     10  N   UNL     1      35.469 -21.317 -19.599  0.00  0.00    -0.306 N 
ATOM     11  H   UNL     1      34.673 -21.131 -20.147  0.00  0.00    +0.149 HD
ENDROOT
BRANCH   1  15
ATOM     12  O   UNL     1      30.579 -24.305 -15.683  0.00  0.00    -0.333 OA
ATOM     13  C   UNL     1      32.052 -23.269 -14.146  0.00  0.00    +0.187 C 
ATOM     14  C   UNL     1      30.876 -23.833 -13.372  0.00  0.00    +0.171 C 
ATOM     15  C   UNL     1      31.981 -24.060 -15.449  0.00  0.00    +0.226 C 
ATOM     16  C   UNL     1      29.839 -24.039 -14.469  0.00  0.00    +0.176 C 
BRANCH  13  17
ATOM     17  O   UNL     1      33.284 -23.425 -13.471  0.00  0.00    -0.378 OA
ATOM     18  H   UNL     1      33.256 -22.940 -12.632  0.00  0.00    +0.211 HD
ENDBRANCH  13  17
BRANCH  14  19
ATOM     19  O   UNL     1      31.205 -25.111 -12.830  0.00  0.00    -0.379 OA
ATOM     20  H   UNL     1      31.935 -25.500 -13.338  0.00  0.00    +0.211 HD
ENDBRANCH  14  19
BRANCH  16  21
ATOM     21  C   UNL     1      28.964 -22.816 -14.702  0.00  0.00    +0.186 C 
BRANCH  21  22
ATOM     22  O   UNL     1      27.754 -23.234 -15.308  0.00  0.00    -0.271 OA
BRANCH  22  23
ATOM     23  P   UNL     1      27.426 -22.726 -16.810  0.00  0.00    +0.473 P 
ATOM     24  O   UNL     1      26.142 -21.964 -16.956  0.00  0.00    -0.227 OA
BRANCH  23  25
ATOM     25  O   UNL     1      27.536 -24.071 -17.702  0.00  0.00    -0.303 OA
ATOM     26  H   UNL     1      27.333 -23.864 -18.628  0.00  0.00    +0.222 HD
ENDBRANCH  23  25
BRANCH  23  27
ATOM     27  O   UNL     1      28.759 -21.903 -17.213  0.00  0.00    -0.303 OA
ATOM     28  H   UNL     1      29.536 -22.336 -16.824  0.00  0.00    +0.222 HD
ENDBRANCH  23  27
ENDBRANCH  22  23
ENDBRANCH  21  22
ENDBRANCH  16  21
ENDBRANCH   1  15
BRANCH   9  29
ATOM     29  S   UNL     1      37.571 -23.270 -15.456  0.00  0.00    -0.017 S 
ATOM     30  C   UNL     1      36.834 -23.495 -13.814  0.00  0.00    +0.087 C 
ENDBRANCH   9  29
BRANCH  10  31
ATOM     31  C   UNL     1      36.751 -20.871 -20.088  0.00  0.00    +0.089 C 
BRANCH  31  32
ATOM     32  C   UNL     1      36.645 -19.470 -20.689  0.00  0.00    +0.021 C 
BRANCH  32  33
ATOM     33  C   UNL     1      35.226 -19.050 -21.124  0.00  0.00    +0.002 C 
ATOM     34  C   UNL     1      35.070 -17.532 -20.979  0.00  0.00    +0.000 C 
ATOM     35  C   UNL     1      34.907 -19.466 -22.559  0.00  0.00    +0.000 C 
ENDBRANCH  32  33
ENDBRANCH  31  32
ENDBRANCH  10  31
TORSDOF 12
ENDMDL
MODEL 3
REMARK VINA RESULT:      -8.5      2.751      4.286
REMARK  Name = 46937130
REMARK  12 active torsions:
REMARK  status: ('A' for Active; 'I' for Inactive)
REMARK    1  A    between atoms: N_1  and  C_13
REMARK    2  A    between atoms: C_9  and  S_27
REMARK    3  A    between atoms: C_11  and  O_15
REMARK    4  A    between atoms: C_12  and  O_17
REMARK    5  A    between atoms: C_14  and  C_19
REMARK    6  A    between atoms: C_19  and  O_20
REMARK    7  A    between atoms: O_20  and  P_21
REMARK    8  A    between atoms: P_21  and  O_23
REMARK    9  A    between atoms: P_21  and  O_25
REMARK   10  A    between atoms: N_29  and  C_31
REMARK   11  A    between atoms: C_31  and  C_32
REMARK   12  A    between atoms: C_32  and  C_33
REMARK                            x       y       z     vdW  Elec       q    Type
REMARK                         _______ _______ _______ _____ _____    ______ ____
ROOT
ATOM      1  N   UNL     1      32.302 -23.038 -16.256  0.00  0.00    -0.236 N 
ATOM      2  N   UNL     1      32.338 -22.320 -18.365  0.00  0.00    -0.240 NA
ATOM      3  N   UNL     1      34.683 -23.047 -15.778  0.00  0.00    -0.318 NA
ATOM      4  N   UNL     1      35.978 -22.307 -17.709  0.00  0.00    -0.318 NA
ATOM      5  C   UNL     1      33.618 -22.848 -16.567  0.00  0.00    +0.221 C 
ATOM      6  C   UNL     1      31.572 -22.708 -17.368  0.00  0.00    +0.224 C 
ATOM      7  C   UNL     1      33.619 -22.401 -17.880  0.00  0.00    +0.167 C 
ATOM      8  C   UNL     1      34.858 -22.128 -18.450  0.00  0.00    +0.214 C 
ATOM      9  C   UNL     1      35.823 -22.749 -16.438  0.00  0.00    +0.171 C 
ATOM     10  N   UNL     1      34.952 -21.678 -19.758  0.00  0.00    -0.306 N 
ATOM     11  H   UNL     1      34.118 -21.557 -20.268  0.00  0.00    +0.149 HD
ENDROOT
BRANCH   1  15
ATOM     12  O   UNL     1      32.537 -23.059 -13.827  0.00  0.00    -0.333 OA
ATOM     13  C   UNL     1      31.722 -25.045 -14.826  0.00  0.00    +0.187 C 
ATOM     14  C   UNL     1      31.759 -25.248 -13.324  0.00  0.00    +0.171 C 
ATOM     15  C   UNL     1      31.744 -23.523 -14.939  0.00  0.00    +0.226 C 
ATOM     16  C   UNL     1      32.693 -24.133 -12.872  0.00  0.00    +0.176 C 
BRANCH  13  17
ATOM     17  O   UNL     1      30.589 -25.629 -15.436  0.00  0.00    -0.378 OA
ATOM     18  H   UNL     1      29.785 -25.303 -15.003  0.00  0.00    +0.211 HD
ENDBRANCH  13  17
BRANCH  14  19
ATOM     19  O   UNL     1      30.472 -25.003 -12.758  0.00  0.00    -0.379 OA
ATOM     20  H   UNL     1      29.986 -24.379 -13.319  0.00  0.00    +0.211 HD
ENDBRANCH  14  19
BRANCH  16  21
ATOM     21  C   UNL     1      34.157 -24.548 -12.858  0.00  0.00    +0.186 C 
BRANCH  21  22
ATOM     22  O   UNL     1      34.875 -23.650 -12.031  0.00  0.00    -0.271 OA
BRANCH  22  23
ATOM     23  P   UNL     1      36.075 -24.233 -11.114  0.00  0.00    +0.473 P 
ATOM     24  O   UNL     1      37.285 -23.352 -11.016  0.00  0.00    -0.227 OA
BRANCH  23  25
ATOM     25  O   UNL     1      36.342 -25.707 -11.724  0.00  0.00    -0.303 OA
ATOM     26  H   UNL     1      36.502 -25.639 -12.678  0.00  0.00    +0.222 HD
ENDBRANCH  23  25
BRANCH  23  27
ATOM     27  O   UNL     1      35.338 -24.542  -9.707  0.00  0.00    -0.303 OA
ATOM     28  H   UNL     1      35.513 -25.459  -9.444  0.00  0.00    +0.222 HD
ENDBRANCH  23  27
ENDBRANCH  22  23
ENDBRANCH  21  22
ENDBRANCH  16  21
ENDBRANCH   1  15
BRANCH   9  29
ATOM     29  S   UNL     1      37.334 -22.969 -15.509  0.00  0.00    -0.017 S 
ATOM     30  C   UNL     1      37.196 -24.703 -14.995  0.00  0.00    +0.087 C 
ENDBRANCH   9  29
BRANCH  10  31
ATOM     31  C   UNL     1      36.201 -21.373 -20.414  0.00  0.00    +0.089 C 
BRANCH  31  32
ATOM     32  C   UNL     1      36.353 -19.866 -20.619  0.00  0.00    +0.021 C 
BRANCH  32  33
ATOM     33  C   UNL     1      35.106 -19.153 -21.181  0.00  0.00    +0.002 C 
ATOM     34  C   UNL     1      35.250 -17.639 -20.994  0.00  0.00    +0.000 C 
ATOM     35  C   UNL     1      34.868 -19.469 -22.657  0.00  0.00    +0.000 C 
ENDBRANCH  32  33
ENDBRANCH  31  32
ENDBRANCH  10  31
TORSDOF 12
ENDMDL
MODEL 4
REMARK VINA RESULT:      -8.4      6.928      9.943
REMARK  Name = 46937130
REMARK  12 active torsions:
REMARK  status: ('A' for Active; 'I' for Inactive)
REMARK    1  A    between atoms: N_1  and  C_13
REMARK    2  A    between atoms: C_9  and  S_27
REMARK    3  A    between atoms: C_11  and  O_15
REMARK    4  A    between atoms: C_12  and  O_17
REMARK    5  A    between atoms: C_14  and  C_19
REMARK    6  A    between atoms: C_19  and  O_20
REMARK    7  A    between atoms: O_20  and  P_21
REMARK    8  A    between atoms: P_21  and  O_23
REMARK    9  A    between atoms: P_21  and  O_25
REMARK   10  A    between atoms: N_29  and  C_31
REMARK   11  A    between atoms: C_31  and  C_32
REMARK   12  A    between atoms: C_32  and  C_33
REMARK                            x       y       z     vdW  Elec       q    Type
REMARK                         _______ _______ _______ _____ _____    ______ ____
ROOT
ATOM      1  N   UNL     1      34.275 -20.232 -20.527  0.00  0.00    -0.236 N 
ATOM      2  N   UNL     1      32.420 -21.293 -19.896  0.00  0.00    -0.240 NA
ATOM      3  N   UNL     1      35.835 -21.107 -18.883  0.00  0.00    -0.318 NA
ATOM      4  N   UNL     1      34.737 -22.666 -17.362  0.00  0.00    -0.318 NA
ATOM      5  C   UNL     1      34.626 -21.000 -19.454  0.00  0.00    +0.221 C 
ATOM      6  C   UNL     1      32.941 -20.442 -20.754  0.00  0.00    +0.224 C 
ATOM      7  C   UNL     1      33.461 -21.651 -19.077  0.00  0.00    +0.167 C 
ATOM      8  C   UNL     1      33.546 -22.511 -17.987  0.00  0.00    +0.214 C 
ATOM      9  C   UNL     1      35.792 -21.965 -17.841  0.00  0.00    +0.171 C 
ATOM     10  N   UNL     1      32.429 -23.201 -17.542  0.00  0.00    -0.306 N 
ATOM     11  H   UNL     1      31.579 -23.066 -18.020  0.00  0.00    +0.149 HD
ENDROOT
BRANCH   1  15
ATOM     12  O   UNL     1      35.363 -18.051 -20.657  0.00  0.00    -0.333 OA
ATOM     13  C   UNL     1      34.623 -18.986 -22.702  0.00  0.00    +0.187 C 
ATOM     14  C   UNL     1      35.297 -17.660 -23.001  0.00  0.00    +0.171 C 
ATOM     15  C   UNL     1      35.179 -19.319 -21.321  0.00  0.00    +0.226 C 
ATOM     16  C   UNL     1      35.301 -16.988 -21.634  0.00  0.00    +0.176 C 
BRANCH  13  17
ATOM     17  O   UNL     1      34.906 -19.980 -23.666  0.00  0.00    -0.378 OA
ATOM     18  H   UNL     1      34.618 -20.844 -23.334  0.00  0.00    +0.211 HD
ENDBRANCH  13  17
BRANCH  14  19
ATOM     19  O   UNL     1      36.653 -17.870 -23.393  0.00  0.00    -0.379 OA
ATOM     20  H   UNL     1      36.783 -17.540 -24.296  0.00  0.00    +0.211 HD
ENDBRANCH  14  19
BRANCH  16  21
ATOM     21  C   UNL     1      34.046 -16.169 -21.368  0.00  0.00    +0.186 C 
BRANCH  21  22
ATOM     22  O   UNL     1      34.274 -14.838 -21.797  0.00  0.00    -0.271 OA
BRANCH  22  23
ATOM     23  P   UNL     1      33.438 -14.282 -23.067  0.00  0.00    +0.473 P 
ATOM     24  O   UNL     1      33.359 -15.220 -24.235  0.00  0.00    -0.227 OA
BRANCH  23  25
ATOM     25  O   UNL     1      34.120 -12.849 -23.377  0.00  0.00    -0.303 OA
ATOM     26  H   UNL     1      33.697 -12.449 -24.153  0.00  0.00    +0.222 HD
ENDBRANCH  23  25
BRANCH  23  27
ATOM     27  O   UNL     1      32.013 -13.881 -22.414  0.00  0.00    -0.303 OA
ATOM     28  H   UNL     1      31.749 -13.002 -22.729  0.00  0.00    +0.222 HD
ENDBRANCH  23  27
ENDBRANCH  22  23
ENDBRANCH  21  22
ENDBRANCH  16  21
ENDBRANCH   1  15
BRANCH   9  29
ATOM     29  S   UNL     1      37.337 -22.208 -16.977  0.00  0.00    -0.017 S 
ATOM     30  C   UNL     1      36.789 -23.104 -15.498  0.00  0.00    +0.087 C 
ENDBRANCH   9  29
BRANCH  10  31
ATOM     31  C   UNL     1      32.442 -24.109 -16.421  0.00  0.00    +0.089 C 
BRANCH  31  32
ATOM     32  C   UNL     1      32.005 -23.397 -15.141  0.00  0.00    +0.021 C 
BRANCH  32  33
ATOM     33  C   UNL     1      30.590 -23.755 -14.642  0.00  0.00    +0.002 C 
ATOM     34  C   UNL     1      29.561 -22.834 -15.305  0.00  0.00    +0.000 C 
ATOM     35  C   UNL     1      30.226 -25.215 -14.914  0.00  0.00    +0.000 C 
ENDBRANCH  32  33
ENDBRANCH  31  32
ENDBRANCH  10  31
TORSDOF 12
ENDMDL
MODEL 5
REMARK VINA RESULT:      -8.2     11.385     14.856
REMARK  Name = 46937130
REMARK  12 active torsions:
REMARK  status: ('A' for Active; 'I' for Inactive)
REMARK    1  A    between atoms: N_1  and  C_13
REMARK    2  A    between atoms: C_9  and  S_27
REMARK    3  A    between atoms: C_11  and  O_15
REMARK    4  A    between atoms: C_12  and  O_17
REMARK    5  A    between atoms: C_14  and  C_19
REMARK    6  A    between atoms: C_19  and  O_20
REMARK    7  A    between atoms: O_20  and  P_21
REMARK    8  A    between atoms: P_21  and  O_23
REMARK    9  A    between atoms: P_21  and  O_25
REMARK   10  A    between atoms: N_29  and  C_31
REMARK   11  A    between atoms: C_31  and  C_32
REMARK   12  A    between atoms: C_32  and  C_33
REMARK                            x       y       z     vdW  Elec       q    Type
REMARK                         _______ _______ _______ _____ _____    ______ ____
ROOT
ATOM      1  N   UNL     1      32.095 -12.064 -22.267  0.00  0.00    -0.236 N 
ATOM      2  N   UNL     1      31.153 -10.695 -20.781  0.00  0.00    -0.240 NA
ATOM      3  N   UNL     1      33.404 -10.462 -23.539  0.00  0.00    -0.318 NA
ATOM      4  N   UNL     1      33.120  -8.198 -22.672  0.00  0.00    -0.318 NA
ATOM      5  C   UNL     1      32.556 -10.813 -22.561  0.00  0.00    +0.221 C 
ATOM      6  C   UNL     1      31.255 -11.942 -21.191  0.00  0.00    +0.224 C 
ATOM      7  C   UNL     1      31.961  -9.978 -21.627  0.00  0.00    +0.167 C 
ATOM      8  C   UNL     1      32.271  -8.625 -21.707  0.00  0.00    +0.214 C 
ATOM      9  C   UNL     1      33.627  -9.130 -23.516  0.00  0.00    +0.171 C 
ATOM     10  N   UNL     1      31.719  -7.719 -20.814  0.00  0.00    -0.306 N 
ATOM     11  H   UNL     1      31.106  -8.062 -20.124  0.00  0.00    +0.149 HD
ENDROOT
BRANCH   1  15
ATOM     12  O   UNL     1      32.130 -14.503 -22.179  0.00  0.00    -0.333 OA
ATOM     13  C   UNL     1      33.919 -13.462 -23.328  0.00  0.00    +0.187 C 
ATOM     14  C   UNL     1      34.104 -14.965 -23.419  0.00  0.00    +0.171 C 
ATOM     15  C   UNL     1      32.436 -13.347 -22.986  0.00  0.00    +0.226 C 
ATOM     16  C   UNL     1      33.199 -15.467 -22.302  0.00  0.00    +0.176 C 
BRANCH  13  17
ATOM     17  O   UNL     1      34.265 -12.789 -24.522  0.00  0.00    -0.378 OA
ATOM     18  H   UNL     1      35.135 -12.374 -24.418  0.00  0.00    +0.211 HD
ENDBRANCH  13  17
BRANCH  14  19
ATOM     19  O   UNL     1      33.592 -15.455 -24.657  0.00  0.00    -0.379 OA
ATOM     20  H   UNL     1      33.860 -14.860 -25.376  0.00  0.00    +0.211 HD
ENDBRANCH  14  19
BRANCH  16  21
ATOM     21  C   UNL     1      33.907 -15.567 -20.958  0.00  0.00    +0.186 C 
BRANCH  21  22
ATOM     22  O   UNL     1      35.073 -16.356 -21.118  0.00  0.00    -0.271 OA
BRANCH  22  23
ATOM     23  P   UNL     1      34.902 -17.951 -21.341  0.00  0.00    +0.473 P 
ATOM     24  O   UNL     1      33.542 -18.494 -21.017  0.00  0.00    -0.227 OA
BRANCH  23  25
ATOM     25  O   UNL     1      36.122 -18.589 -20.493  0.00  0.00    -0.303 OA
ATOM     26  H   UNL     1      36.302 -19.488 -20.811  0.00  0.00    +0.222 HD
ENDBRANCH  23  25
BRANCH  23  27
ATOM     27  O   UNL     1      35.371 -18.154 -22.876  0.00  0.00    -0.303 OA
ATOM     28  H   UNL     1      36.340 -18.134 -22.923  0.00  0.00    +0.222 HD
ENDBRANCH  23  27
ENDBRANCH  22  23
ENDBRANCH  21  22
ENDBRANCH  16  21
ENDBRANCH   1  15
BRANCH   9  29
ATOM     29  S   UNL     1      34.740  -8.510 -24.769  0.00  0.00    -0.017 S 
ATOM     30  C   UNL     1      34.446  -6.723 -24.665  0.00  0.00    +0.087 C 
ENDBRANCH   9  29
BRANCH  10  31
ATOM     31  C   UNL     1      31.994  -6.302 -20.836  0.00  0.00    +0.089 C 
BRANCH  31  32
ATOM     32  C   UNL     1      30.976  -5.565 -21.705  0.00  0.00    +0.021 C 
BRANCH  32  33
ATOM     33  C   UNL     1      31.540  -4.968 -23.010  0.00  0.00    +0.002 C 
ATOM     34  C   UNL     1      30.978  -5.733 -24.213  0.00  0.00    +0.000 C 
ATOM     35  C   UNL     1      31.227  -3.479 -23.155  0.00  0.00    +0.000 C 
ENDBRANCH  32  33
ENDBRANCH  31  32
ENDBRANCH  10  31
TORSDOF 12
ENDMDL
MODEL 6
REMARK VINA RESULT:      -8.1      8.091     11.546
REMARK  Name = 46937130
REMARK  12 active torsions:
REMARK  status: ('A' for Active; 'I' for Inactive)
REMARK    1  A    between atoms: N_1  and  C_13
REMARK    2  A    between atoms: C_9  and  S_27
REMARK    3  A    between atoms: C_11  and  O_15
REMARK    4  A    between atoms: C_12  and  O_17
REMARK    5  A    between atoms: C_14  and  C_19
REMARK    6  A    between atoms: C_19  and  O_20
REMARK    7  A    between atoms: O_20  and  P_21
REMARK    8  A    between atoms: P_21  and  O_23
REMARK    9  A    between atoms: P_21  and  O_25
REMARK   10  A    between atoms: N_29  and  C_31
REMARK   11  A    between atoms: C_31  and  C_32
REMARK   12  A    between atoms: C_32  and  C_33
REMARK                            x       y       z     vdW  Elec       q    Type
REMARK                         _______ _______ _______ _____ _____    ______ ____
ROOT
ATOM      1  N   UNL     1      33.296 -15.925 -21.857  0.00  0.00    -0.236 N 
ATOM      2  N   UNL     1      32.276 -14.820 -20.211  0.00  0.00    -0.240 NA
ATOM      3  N   UNL     1      33.470 -14.150 -23.505  0.00  0.00    -0.318 NA
ATOM      4  N   UNL     1      32.506 -12.069 -22.672  0.00  0.00    -0.318 NA
ATOM      5  C   UNL     1      33.114 -14.651 -22.314  0.00  0.00    +0.221 C 
ATOM      6  C   UNL     1      32.776 -15.978 -20.590  0.00  0.00    +0.224 C 
ATOM      7  C   UNL     1      32.480 -13.982 -21.278  0.00  0.00    +0.167 C 
ATOM      8  C   UNL     1      32.176 -12.641 -21.490  0.00  0.00    +0.214 C 
ATOM      9  C   UNL     1      33.124 -12.848 -23.593  0.00  0.00    +0.171 C 
ATOM     10  N   UNL     1      31.541 -11.896 -20.508  0.00  0.00    -0.306 N 
ATOM     11  H   UNL     1      31.315 -12.342 -19.659  0.00  0.00    +0.149 HD
ENDROOT
BRANCH   1  15
ATOM     12  O   UNL     1      33.797 -18.313 -21.884  0.00  0.00    -0.333 OA
ATOM     13  C   UNL     1      35.445 -16.879 -22.794  0.00  0.00    +0.187 C 
ATOM     14  C   UNL     1      35.927 -18.309 -22.938  0.00  0.00    +0.171 C 
ATOM     15  C   UNL     1      33.944 -17.069 -22.599  0.00  0.00    +0.226 C 
ATOM     16  C   UNL     1      35.040 -19.048 -21.944  0.00  0.00    +0.176 C 
BRANCH  13  17
ATOM     17  O   UNL     1      35.760 -16.073 -23.913  0.00  0.00    -0.378 OA
ATOM     18  H   UNL     1      35.706 -15.138 -23.663  0.00  0.00    +0.211 HD
ENDBRANCH  13  17
BRANCH  14  19
ATOM     19  O   UNL     1      35.634 -18.803 -24.244  0.00  0.00    -0.379 OA
ATOM     20  H   UNL     1      35.793 -19.760 -24.271  0.00  0.00    +0.211 HD
ENDBRANCH  14  19
BRANCH  16  21
ATOM     21  C   UNL     1      35.630 -19.102 -20.542  0.00  0.00    +0.186 C 
BRANCH  21  22
ATOM     22  O   UNL     1      35.062 -20.202 -19.854  0.00  0.00    -0.271 OA
BRANCH  22  23
ATOM     23  P   UNL     1      36.052 -21.343 -19.271  0.00  0.00    +0.473 P 
ATOM     24  O   UNL     1      36.736 -20.992 -17.983  0.00  0.00    -0.227 OA
BRANCH  23  25
ATOM     25  O   UNL     1      37.039 -21.665 -20.511  0.00  0.00    -0.303 OA
ATOM     26  H   UNL     1      37.505 -20.856 -20.774  0.00  0.00    +0.222 HD
ENDBRANCH  23  25
BRANCH  23  27
ATOM     27  O   UNL     1      35.100 -22.649 -19.205  0.00  0.00    -0.303 OA
ATOM     28  H   UNL     1      34.578 -22.710 -20.021  0.00  0.00    +0.222 HD
ENDBRANCH  23  27
ENDBRANCH  22  23
ENDBRANCH  21  22
ENDBRANCH  16  21
ENDBRANCH   1  15
BRANCH   9  29
ATOM     29  S   UNL     1      33.535 -12.041 -25.133  0.00  0.00    -0.017 S 
ATOM     30  C   UNL     1      34.368 -10.540 -24.547  0.00  0.00    +0.087 C 
ENDBRANCH   9  29
BRANCH  10  31
ATOM     31  C   UNL     1      31.195 -10.503 -20.656  0.00  0.00    +0.089 C 
BRANCH  31  32
ATOM     32  C   UNL     1      32.199  -9.613 -19.924  0.00  0.00    +0.021 C 
BRANCH  32  33
ATOM     33  C   UNL     1      32.717  -8.406 -20.733  0.00  0.00    +0.002 C 
ATOM     34  C   UNL     1      32.208  -8.495 -22.175  0.00  0.00    +0.000 C 
ATOM     35  C   UNL     1      32.299  -7.069 -20.120  0.00  0.00    +0.000 C 
ENDBRANCH  32  33
ENDBRANCH  31  32
ENDBRANCH  10  31
TORSDOF 12
ENDMDL
MODEL 7
REMARK VINA RESULT:      -8.0     11.146     14.480
REMARK  Name = 46937130
REMARK  12 active torsions:
REMARK  status: ('A' for Active; 'I' for Inactive)
REMARK    1  A    between atoms: N_1  and  C_13
REMARK    2  A    between atoms: C_9  and  S_27
REMARK    3  A    between atoms: C_11  and  O_15
REMARK    4  A    between atoms: C_12  and  O_17
REMARK    5  A    between atoms: C_14  and  C_19
REMARK    6  A    between atoms: C_19  and  O_20
REMARK    7  A    between atoms: O_20  and  P_21
REMARK    8  A    between atoms: P_21  and  O_23
REMARK    9  A    between atoms: P_21  and  O_25
REMARK   10  A    between atoms: N_29  and  C_31
REMARK   11  A    between atoms: C_31  and  C_32
REMARK   12  A    between atoms: C_32  and  C_33
REMARK                            x       y       z     vdW  Elec       q    Type
REMARK                         _______ _______ _______ _____ _____    ______ ____
ROOT
ATOM      1  N   UNL     1      33.406 -12.435 -24.676  0.00  0.00    -0.236 N 
ATOM      2  N   UNL     1      34.355 -10.428 -24.877  0.00  0.00    -0.240 NA
ATOM      3  N   UNL     1      32.007 -12.041 -22.731  0.00  0.00    -0.318 NA
ATOM      4  N   UNL     1      32.251  -9.756 -21.911  0.00  0.00    -0.318 NA
ATOM      5  C   UNL     1      32.897 -11.674 -23.663  0.00  0.00    +0.221 C 
ATOM      6  C   UNL     1      34.277 -11.644 -25.377  0.00  0.00    +0.224 C 
ATOM      7  C   UNL     1      33.498 -10.432 -23.806  0.00  0.00    +0.167 C 
ATOM      8  C   UNL     1      33.145  -9.454 -22.882  0.00  0.00    +0.214 C 
ATOM      9  C   UNL     1      31.745 -11.013 -21.895  0.00  0.00    +0.171 C 
ATOM     10  N   UNL     1      33.699  -8.184 -22.950  0.00  0.00    -0.306 N 
ATOM     11  H   UNL     1      34.345  -7.997 -23.669  0.00  0.00    +0.149 HD
ENDROOT
BRANCH   1  15
ATOM     12  O   UNL     1      33.183 -14.700 -23.794  0.00  0.00    -0.333 OA
ATOM     13  C   UNL     1      34.025 -14.503 -25.998  0.00  0.00    +0.187 C 
ATOM     14  C   UNL     1      33.929 -15.977 -25.655  0.00  0.00    +0.171 C 
ATOM     15  C   UNL     1      33.080 -13.879 -24.976  0.00  0.00    +0.226 C 
ATOM     16  C   UNL     1      33.830 -15.946 -24.135  0.00  0.00    +0.176 C 
BRANCH  13  17
ATOM     17  O   UNL     1      33.659 -14.221 -27.334  0.00  0.00    -0.378 OA
ATOM     18  H   UNL     1      34.443 -14.273 -27.902  0.00  0.00    +0.211 HD
ENDBRANCH  13  17
BRANCH  14  19
ATOM     19  O   UNL     1      32.716 -16.528 -26.165  0.00  0.00    -0.379 OA
ATOM     20  H   UNL     1      32.671 -17.472 -25.943  0.00  0.00    +0.211 HD
ENDBRANCH  14  19
BRANCH  16  21
ATOM     21  C   UNL     1      35.187 -15.983 -23.447  0.00  0.00    +0.186 C 
BRANCH  21  22
ATOM     22  O   UNL     1      35.041 -16.618 -22.190  0.00  0.00    -0.271 OA
BRANCH  22  23
ATOM     23  P   UNL     1      35.412 -18.190 -22.070  0.00  0.00    +0.473 P 
ATOM     24  O   UNL     1      34.362 -19.130 -22.585  0.00  0.00    -0.227 OA
BRANCH  23  25
ATOM     25  O   UNL     1      35.800 -18.374 -20.511  0.00  0.00    -0.303 OA
ATOM     26  H   UNL     1      35.834 -17.505 -20.080  0.00  0.00    +0.222 HD
ENDBRANCH  23  25
BRANCH  23  27
ATOM     27  O   UNL     1      36.841 -18.282 -22.822  0.00  0.00    -0.303 OA
ATOM     28  H   UNL     1      37.532 -18.501 -22.176  0.00  0.00    +0.222 HD
ENDBRANCH  23  27
ENDBRANCH  22  23
ENDBRANCH  21  22
ENDBRANCH  16  21
ENDBRANCH   1  15
BRANCH   9  29
ATOM     29  S   UNL     1      30.572 -11.355 -20.592  0.00  0.00    -0.017 S 
ATOM     30  C   UNL     1      31.453 -10.729 -19.135  0.00  0.00    +0.087 C 
ENDBRANCH   9  29
BRANCH  10  31
ATOM     31  C   UNL     1      33.380  -7.120 -22.028  0.00  0.00    +0.089 C 
BRANCH  31  32
ATOM     32  C   UNL     1      32.262  -6.239 -22.583  0.00  0.00    +0.021 C 
BRANCH  32  33
ATOM     33  C   UNL     1      32.087  -6.288 -24.115  0.00  0.00    +0.002 C 
ATOM     34  C   UNL     1      30.807  -7.053 -24.464  0.00  0.00    +0.000 C 
ATOM     35  C   UNL     1      32.044  -4.895 -24.743  0.00  0.00    +0.000 C 
ENDBRANCH  32  33
ENDBRANCH  31  32
ENDBRANCH  10  31
TORSDOF 12
ENDMDL
MODEL 8
REMARK VINA RESULT:      -7.9      5.390      8.326
REMARK  Name = 46937130
REMARK  12 active torsions:
REMARK  status: ('A' for Active; 'I' for Inactive)
REMARK    1  A    between atoms: N_1  and  C_13
REMARK    2  A    between atoms: C_9  and  S_27
REMARK    3  A    between atoms: C_11  and  O_15
REMARK    4  A    between atoms: C_12  and  O_17
REMARK    5  A    between atoms: C_14  and  C_19
REMARK    6  A    between atoms: C_19  and  O_20
REMARK    7  A    between atoms: O_20  and  P_21
REMARK    8  A    between atoms: P_21  and  O_23
REMARK    9  A    between atoms: P_21  and  O_25
REMARK   10  A    between atoms: N_29  and  C_31
REMARK   11  A    between atoms: C_31  and  C_32
REMARK   12  A    between atoms: C_32  and  C_33
REMARK                            x       y       z     vdW  Elec       q    Type
REMARK                         _______ _______ _______ _____ _____    ______ ____
ROOT
ATOM      1  N   UNL     1      35.431 -22.016 -18.243  0.00  0.00    -0.236 N 
ATOM      2  N   UNL     1      37.295 -21.987 -17.022  0.00  0.00    -0.240 NA
ATOM      3  N   UNL     1      33.911 -23.057 -16.660  0.00  0.00    -0.318 NA
ATOM      4  N   UNL     1      35.039 -23.577 -14.560  0.00  0.00    -0.318 NA
ATOM      5  C   UNL     1      35.105 -22.579 -17.043  0.00  0.00    +0.221 C 
ATOM      6  C   UNL     1      36.757 -21.676 -18.182  0.00  0.00    +0.224 C 
ATOM      7  C   UNL     1      36.275 -22.552 -16.299  0.00  0.00    +0.167 C 
ATOM      8  C   UNL     1      36.213 -23.076 -15.013  0.00  0.00    +0.214 C 
ATOM      9  C   UNL     1      33.977 -23.537 -15.400  0.00  0.00    +0.171 C 
ATOM     10  N   UNL     1      37.337 -23.089 -14.200  0.00  0.00    -0.306 N 
ATOM     11  H   UNL     1      38.174 -22.717 -14.559  0.00  0.00    +0.149 HD
ENDROOT
BRANCH   1  15
ATOM     12  O   UNL     1      35.198 -21.154 -20.515  0.00  0.00    -0.333 OA
ATOM     13  C   UNL     1      33.319 -20.913 -19.096  0.00  0.00    +0.187 C 
ATOM     14  C   UNL     1      32.961 -20.353 -20.459  0.00  0.00    +0.171 C 
ATOM     15  C   UNL     1      34.513 -21.803 -19.423  0.00  0.00    +0.226 C 
ATOM     16  C   UNL     1      34.331 -20.153 -21.093  0.00  0.00    +0.176 C 
BRANCH  13  17
ATOM     17  O   UNL     1      32.253 -21.617 -18.490  0.00  0.00    -0.378 OA
ATOM     18  H   UNL     1      31.999 -22.365 -19.051  0.00  0.00    +0.211 HD
ENDBRANCH  13  17
BRANCH  14  19
ATOM     19  O   UNL     1      32.258 -21.329 -21.228  0.00  0.00    -0.379 OA
ATOM     20  H   UNL     1      32.341 -22.197 -20.802  0.00  0.00    +0.211 HD
ENDBRANCH  14  19
BRANCH  16  21
ATOM     21  C   UNL     1      34.928 -18.782 -20.805  0.00  0.00    +0.186 C 
BRANCH  21  22
ATOM     22  O   UNL     1      34.491 -17.879 -21.804  0.00  0.00    -0.271 OA
BRANCH  22  23
ATOM     23  P   UNL     1      35.321 -17.802 -23.193  0.00  0.00    +0.473 P 
ATOM     24  O   UNL     1      34.689 -18.518 -24.350  0.00  0.00    -0.227 OA
BRANCH  23  25
ATOM     25  O   UNL     1      36.799 -18.315 -22.785  0.00  0.00    -0.303 OA
ATOM     26  H   UNL     1      36.889 -19.255 -23.008  0.00  0.00    +0.222 HD
ENDBRANCH  23  25
BRANCH  23  27
ATOM     27  O   UNL     1      35.525 -16.210 -23.404  0.00  0.00    -0.303 OA
ATOM     28  H   UNL     1      36.453 -15.979 -23.236  0.00  0.00    +0.222 HD
ENDBRANCH  23  27
ENDBRANCH  22  23
ENDBRANCH  21  22
ENDBRANCH  16  21
ENDBRANCH   1  15
BRANCH   9  29
ATOM     29  S   UNL     1      32.455 -24.213 -14.751  0.00  0.00    -0.017 S 
ATOM     30  C   UNL     1      31.214 -23.306 -15.714  0.00  0.00    +0.087 C 
ENDBRANCH   9  29
BRANCH  10  31
ATOM     31  C   UNL     1      37.348 -23.616 -12.856  0.00  0.00    +0.089 C 
BRANCH  31  32
ATOM     32  C   UNL     1      38.257 -24.841 -12.761  0.00  0.00    +0.021 C 
BRANCH  32  33
ATOM     33  C   UNL     1      38.697 -25.436 -14.114  0.00  0.00    +0.002 C 
ATOM     34  C   UNL     1      40.179 -25.821 -14.051  0.00  0.00    +0.000 C 
ATOM     35  C   UNL     1      37.865 -26.654 -14.515  0.00  0.00    +0.000 C 
ENDBRANCH  32  33
ENDBRANCH  31  32
ENDBRANCH  10  31
TORSDOF 12
ENDMDL
MODEL 9
REMARK VINA RESULT:      -7.9     10.237     13.508
REMARK  Name = 46937130
REMARK  12 active torsions:
REMARK  status: ('A' for Active; 'I' for Inactive)
REMARK    1  A    between atoms: N_1  and  C_13
REMARK    2  A    between atoms: C_9  and  S_27
REMARK    3  A    between atoms: C_11  and  O_15
REMARK    4  A    between atoms: C_12  and  O_17
REMARK    5  A    between atoms: C_14  and  C_19
REMARK    6  A    between atoms: C_19  and  O_20
REMARK    7  A    between atoms: O_20  and  P_21
REMARK    8  A    between atoms: P_21  and  O_23
REMARK    9  A    between atoms: P_21  and  O_25
REMARK   10  A    between atoms: N_29  and  C_31
REMARK   11  A    between atoms: C_31  and  C_32
REMARK   12  A    between atoms: C_32  and  C_33
REMARK                            x       y       z     vdW  Elec       q    Type
REMARK                         _______ _______ _______ _____ _____    ______ ____
ROOT
ATOM      1  N   UNL     1      34.011 -15.344 -21.604  0.00  0.00    -0.236 N 
ATOM      2  N   UNL     1      32.598 -14.470 -20.119  0.00  0.00    -0.240 NA
ATOM      3  N   UNL     1      34.087 -13.535 -23.223  0.00  0.00    -0.318 NA
ATOM      4  N   UNL     1      32.664 -11.675 -22.541  0.00  0.00    -0.318 NA
ATOM      5  C   UNL     1      33.668 -14.115 -22.088  0.00  0.00    +0.221 C 
ATOM      6  C   UNL     1      33.343 -15.513 -20.420  0.00  0.00    +0.224 C 
ATOM      7  C   UNL     1      32.791 -13.588 -21.152  0.00  0.00    +0.167 C 
ATOM      8  C   UNL     1      32.283 -12.319 -21.411  0.00  0.00    +0.214 C 
ATOM      9  C   UNL     1      33.529 -12.314 -23.364  0.00  0.00    +0.171 C 
ATOM     10  N   UNL     1      31.399 -11.717 -20.529  0.00  0.00    -0.306 N 
ATOM     11  H   UNL     1      31.144 -12.213 -19.717  0.00  0.00    +0.149 HD
ENDROOT
BRANCH   1  15
ATOM     12  O   UNL     1      35.304 -15.945 -23.585  0.00  0.00    -0.333 OA
ATOM     13  C   UNL     1      34.338 -17.734 -22.372  0.00  0.00    +0.187 C 
ATOM     14  C   UNL     1      35.122 -18.314 -23.534  0.00  0.00    +0.171 C 
ATOM     15  C   UNL     1      34.948 -16.341 -22.244  0.00  0.00    +0.226 C 
ATOM     16  C   UNL     1      35.286 -17.105 -24.446  0.00  0.00    +0.176 C 
BRANCH  13  17
ATOM     17  O   UNL     1      34.454 -18.499 -21.190  0.00  0.00    -0.378 OA
ATOM     18  H   UNL     1      35.333 -18.366 -20.803  0.00  0.00    +0.211 HD
ENDBRANCH  13  17
BRANCH  14  19
ATOM     19  O   UNL     1      36.421 -18.721 -23.102  0.00  0.00    -0.379 OA
ATOM     20  H   UNL     1      37.092 -18.177 -23.543  0.00  0.00    +0.211 HD
ENDBRANCH  14  19
BRANCH  16  21
ATOM     21  C   UNL     1      34.141 -16.946 -25.437  0.00  0.00    +0.186 C 
BRANCH  21  22
ATOM     22  O   UNL     1      34.307 -15.720 -26.126  0.00  0.00    -0.271 OA
BRANCH  22  23
ATOM     23  P   UNL     1      32.985 -14.938 -26.641  0.00  0.00    +0.473 P 
ATOM     24  O   UNL     1      33.235 -13.894 -27.689  0.00  0.00    -0.227 OA
BRANCH  23  25
ATOM     25  O   UNL     1      32.303 -14.399 -25.278  0.00  0.00    -0.303 OA
ATOM     26  H   UNL     1      32.995 -14.170 -24.637  0.00  0.00    +0.222 HD
ENDBRANCH  23  25
BRANCH  23  27
ATOM     27  O   UNL     1      32.006 -16.143 -27.096  0.00  0.00    -0.303 OA
ATOM     28  H   UNL     1      32.306 -16.972 -26.692  0.00  0.00    +0.222 HD
ENDBRANCH  23  27
ENDBRANCH  22  23
ENDBRANCH  21  22
ENDBRANCH  16  21
ENDBRANCH   1  15
BRANCH   9  29
ATOM     29  S   UNL     1      33.994 -11.418 -24.838  0.00  0.00    -0.017 S 
ATOM     30  C   UNL     1      34.597  -9.856 -24.140  0.00  0.00    +0.087 C 
ENDBRANCH   9  29
BRANCH  10  31
ATOM     31  C   UNL     1      30.833 -10.405 -20.731  0.00  0.00    +0.089 C 
BRANCH  31  32
ATOM     32  C   UNL     1      31.684  -9.336 -20.047  0.00  0.00    +0.021 C 
BRANCH  32  33
ATOM     33  C   UNL     1      32.305  -8.288 -20.993  0.00  0.00    +0.002 C 
ATOM     34  C   UNL     1      31.654  -8.392 -22.376  0.00  0.00    +0.000 C 
ATOM     35  C   UNL     1      32.161  -6.862 -20.461  0.00  0.00    +0.000 C 
ENDBRANCH  32  33
ENDBRANCH  31  32
ENDBRANCH  10  31
TORSDOF 12
ENDMDL
