MODEL 1
REMARK VINA RESULT:     -11.0      0.000      0.000
REMARK  Name = 5042
REMARK  6 active torsions:
REMARK  status: ('A' for Active; 'I' for Inactive)
REMARK    1  A    between atoms: CA_1  and  N_3
REMARK    2  A    between atoms: CA_1  and  C_14
REMARK    3  A    between atoms: CA_1  and  C_17
REMARK    4  A    between atoms: C_4  and  C_7
REMARK    5  A    between atoms: C_14  and  O_15
REMARK    6  A    between atoms: C_17  and  C_20
REMARK                            x       y       z     vdW  Elec       q    Type
REMARK                         _______ _______ _______ _____ _____    ______ ____
ROOT
ATOM      1  CA  UNL     1      33.302 -23.661 -16.116  0.00  0.00    +0.176 C 
ENDROOT
BRANCH   1   3
ATOM      2  O   UNL     1      33.789 -24.076 -18.897  0.00  0.00    -0.270 OA
ATOM      3  N   UNL     1      33.757 -22.675 -17.063  0.00  0.00    -0.293 N 
ATOM      4  C   UNL     1      33.976 -22.953 -18.430  0.00  0.00    +0.246 C 
ATOM      5  H   UNL     1      33.923 -21.759 -16.742  0.00  0.00    +0.150 HD
BRANCH   4   7
ATOM      6 CL   UNL     1      35.742 -18.402 -21.858  0.00  0.00    -0.082 Cl
ATOM      7  C   UNL     1      34.411 -21.833 -19.275  0.00  0.00    +0.053 C 
ATOM      8  C   UNL     1      33.460 -21.020 -19.873  0.00  0.00    +0.005 C 
ATOM      9  C   UNL     1      35.767 -21.604 -19.461  0.00  0.00    +0.005 C 
ATOM     10  C   UNL     1      33.873 -19.955 -20.675  0.00  0.00    +0.012 C 
ATOM     11  C   UNL     1      36.180 -20.539 -20.262  0.00  0.00    +0.012 C 
ATOM     12  C   UNL     1      35.232 -19.715 -20.868  0.00  0.00    +0.058 C 
ENDBRANCH   4   7
ENDBRANCH   1   3
BRANCH   1  14
ATOM     13  OXT UNL     1      31.232 -24.191 -14.981  0.00  0.00    -0.248 OA
ATOM     14  C   UNL     1      31.797 -23.606 -15.898  0.00  0.00    +0.332 C 
BRANCH  14  15
ATOM     15  O   UNL     1      31.126 -22.845 -16.797  0.00  0.00    -0.479 OA
ATOM     16  H   UNL     1      31.464 -22.737 -17.664  0.00  0.00    +0.295 HD
ENDBRANCH  14  15
ENDBRANCH   1  14
BRANCH   1  17
ATOM     17  C   UNL     1      34.079 -23.570 -14.800  0.00  0.00    +0.058 C 
BRANCH  17  20
ATOM     18  O   UNL     1      36.601 -27.416 -16.276  0.00  0.00    -0.270 OA
ATOM     19  N   UNL     1      37.471 -26.225 -14.511  0.00  0.00    -0.280 N 
ATOM     20  C   UNL     1      35.256 -24.498 -14.708  0.00  0.00    -0.014 C 
ATOM     21  C   UNL     1      36.293 -24.268 -13.678  0.00  0.00    +0.010 C 
ATOM     22  C   UNL     1      37.382 -25.150 -13.610  0.00  0.00    +0.050 C 
ATOM     23  C   UNL     1      35.380 -25.538 -15.547  0.00  0.00    +0.054 C 
ATOM     24  C   UNL     1      36.241 -23.207 -12.762  0.00  0.00    +0.001 C 
ATOM     25  C   UNL     1      36.530 -26.477 -15.484  0.00  0.00    +0.249 C 
ATOM     26  C   UNL     1      38.392 -24.981 -12.658  0.00  0.00    +0.015 C 
ATOM     27  C   UNL     1      37.250 -23.037 -11.809  0.00  0.00    +0.000 C 
ATOM     28  C   UNL     1      38.324 -23.923 -11.757  0.00  0.00    +0.001 C 
ATOM     29  H   UNL     1      38.245 -26.830 -14.443  0.00  0.00    +0.155 HD
ENDBRANCH  17  20
ENDBRANCH   1  17
TORSDOF 6
ENDMDL
MODEL 2
REMARK VINA RESULT:     -10.4      9.703     13.490
REMARK  Name = 5042
REMARK  6 active torsions:
REMARK  status: ('A' for Active; 'I' for Inactive)
REMARK    1  A    between atoms: CA_1  and  N_3
REMARK    2  A    between atoms: CA_1  and  C_14
REMARK    3  A    between atoms: CA_1  and  C_17
REMARK    4  A    between atoms: C_4  and  C_7
REMARK    5  A    between atoms: C_14  and  O_15
REMARK    6  A    between atoms: C_17  and  C_20
REMARK                            x       y       z     vdW  Elec       q    Type
REMARK                         _______ _______ _______ _____ _____    ______ ____
ROOT
ATOM      1  CA  UNL     1      33.773 -13.373 -25.610  0.00  0.00    +0.176 C 
ENDROOT
BRANCH   1   3
ATOM      2  O   UNL     1      35.209 -10.909 -25.701  0.00  0.00    -0.270 OA
ATOM      3  N   UNL     1      33.512 -12.199 -24.817  0.00  0.00    -0.293 N 
ATOM      4  C   UNL     1      34.266 -11.010 -24.916  0.00  0.00    +0.246 C 
ATOM      5  H   UNL     1      32.769 -12.226 -24.171  0.00  0.00    +0.150 HD
BRANCH   4   7
ATOM      6 CL   UNL     1      32.606  -6.454 -21.442  0.00  0.00    -0.082 Cl
ATOM      7  C   UNL     1      33.858  -9.889 -24.059  0.00  0.00    +0.053 C 
ATOM      8  C   UNL     1      34.638  -8.742 -24.018  0.00  0.00    +0.005 C 
ATOM      9  C   UNL     1      32.698  -9.993 -23.305  0.00  0.00    +0.005 C 
ATOM     10  C   UNL     1      34.250  -7.676 -23.207  0.00  0.00    +0.012 C 
ATOM     11  C   UNL     1      32.310  -8.927 -22.493  0.00  0.00    +0.012 C 
ATOM     12  C   UNL     1      33.085  -7.769 -22.445  0.00  0.00    +0.058 C 
ENDBRANCH   4   7
ENDBRANCH   1   3
BRANCH   1  14
ATOM     13  OXT UNL     1      32.316 -13.035 -27.513  0.00  0.00    -0.248 OA
ATOM     14  C   UNL     1      33.458 -13.158 -27.083  0.00  0.00    +0.332 C 
BRANCH  14  15
ATOM     15  O   UNL     1      34.546 -13.103 -27.889  0.00  0.00    -0.479 OA
ATOM     16  H   UNL     1      35.231 -12.488 -27.710  0.00  0.00    +0.295 HD
ENDBRANCH  14  15
ENDBRANCH   1  14
BRANCH   1  17
ATOM     17  C   UNL     1      33.057 -14.601 -25.041  0.00  0.00    +0.058 C 
BRANCH  17  20
ATOM     18  O   UNL     1      34.846 -14.497 -20.555  0.00  0.00    -0.270 OA
ATOM     19  N   UNL     1      35.075 -16.471 -21.713  0.00  0.00    -0.280 N 
ATOM     20  C   UNL     1      33.757 -15.244 -23.878  0.00  0.00    -0.014 C 
ATOM     21  C   UNL     1      34.213 -16.647 -23.980  0.00  0.00    +0.010 C 
ATOM     22  C   UNL     1      34.866 -17.225 -22.881  0.00  0.00    +0.050 C 
ATOM     23  C   UNL     1      33.978 -14.560 -22.743  0.00  0.00    +0.054 C 
ATOM     24  C   UNL     1      34.024 -17.432 -25.127  0.00  0.00    +0.001 C 
ATOM     25  C   UNL     1      34.668 -15.163 -21.574  0.00  0.00    +0.249 C 
ATOM     26  C   UNL     1      35.319 -18.548 -22.921  0.00  0.00    +0.015 C 
ATOM     27  C   UNL     1      34.476 -18.755 -25.169  0.00  0.00    +0.000 C 
ATOM     28  C   UNL     1      35.122 -19.312 -24.068  0.00  0.00    +0.001 C 
ATOM     29  H   UNL     1      35.535 -16.900 -20.956  0.00  0.00    +0.155 HD
ENDBRANCH  17  20
ENDBRANCH   1  17
TORSDOF 6
ENDMDL
MODEL 3
REMARK VINA RESULT:     -10.4      1.875      2.373
REMARK  Name = 5042
REMARK  6 active torsions:
REMARK  status: ('A' for Active; 'I' for Inactive)
REMARK    1  A    between atoms: CA_1  and  N_3
REMARK    2  A    between atoms: CA_1  and  C_14
REMARK    3  A    between atoms: CA_1  and  C_17
REMARK    4  A    between atoms: C_4  and  C_7
REMARK    5  A    between atoms: C_14  and  O_15
REMARK    6  A    between atoms: C_17  and  C_20
REMARK                            x       y       z     vdW  Elec       q    Type
REMARK                         _______ _______ _______ _____ _____    ______ ____
ROOT
ATOM      1  CA  UNL     1      33.003 -23.596 -16.529  0.00  0.00    +0.176 C 
ENDROOT
BRANCH   1   3
ATOM      2  O   UNL     1      33.850 -23.906 -19.237  0.00  0.00    -0.270 OA
ATOM      3  N   UNL     1      33.365 -22.541 -17.441  0.00  0.00    -0.293 N 
ATOM      4  C   UNL     1      33.776 -22.769 -18.771  0.00  0.00    +0.246 C 
ATOM      5  H   UNL     1      33.324 -21.611 -17.119  0.00  0.00    +0.150 HD
BRANCH   4   7
ATOM      6 CL   UNL     1      35.025 -17.960 -22.072  0.00  0.00    -0.082 Cl
ATOM      7  C   UNL     1      34.084 -21.586 -19.585  0.00  0.00    +0.053 C 
ATOM      8  C   UNL     1      33.046 -20.802 -20.070  0.00  0.00    +0.005 C 
ATOM      9  C   UNL     1      35.407 -21.269 -19.856  0.00  0.00    +0.005 C 
ATOM     10  C   UNL     1      33.338 -19.677 -20.841  0.00  0.00    +0.012 C 
ATOM     11  C   UNL     1      35.699 -20.144 -20.628  0.00  0.00    +0.012 C 
ATOM     12  C   UNL     1      34.665 -19.348 -21.120  0.00  0.00    +0.058 C 
ENDBRANCH   4   7
ENDBRANCH   1   3
BRANCH   1  14
ATOM     13  OXT UNL     1      31.020 -24.321 -15.346  0.00  0.00    -0.248 OA
ATOM     14  C   UNL     1      31.518 -23.591 -16.197  0.00  0.00    +0.332 C 
BRANCH  14  15
ATOM     15  O   UNL     1      30.784 -22.703 -16.910  0.00  0.00    -0.479 OA
ATOM     16  H   UNL     1      31.088 -21.823 -17.017  0.00  0.00    +0.295 HD
ENDBRANCH  14  15
ENDBRANCH   1  14
BRANCH   1  17
ATOM     17  C   UNL     1      33.875 -23.571 -15.272  0.00  0.00    +0.058 C 
BRANCH  17  20
ATOM     18  O   UNL     1      37.467 -20.853 -17.016  0.00  0.00    -0.270 OA
ATOM     19  N   UNL     1      38.065 -22.832 -16.008  0.00  0.00    -0.280 N 
ATOM     20  C   UNL     1      35.330 -23.305 -15.531  0.00  0.00    -0.014 C 
ATOM     21  C   UNL     1      36.345 -24.286 -15.090  0.00  0.00    +0.010 C 
ATOM     22  C   UNL     1      37.698 -24.016 -15.345  0.00  0.00    +0.050 C 
ATOM     23  C   UNL     1      35.724 -22.187 -16.161  0.00  0.00    +0.054 C 
ATOM     24  C   UNL     1      36.021 -25.478 -14.426  0.00  0.00    +0.001 C 
ATOM     25  C   UNL     1      37.154 -21.891 -16.436  0.00  0.00    +0.249 C 
ATOM     26  C   UNL     1      38.702 -24.907 -14.950  0.00  0.00    +0.015 C 
ATOM     27  C   UNL     1      37.023 -26.370 -14.031  0.00  0.00    +0.000 C 
ATOM     28  C   UNL     1      38.361 -26.085 -14.293  0.00  0.00    +0.001 C 
ATOM     29  H   UNL     1      39.020 -22.666 -16.175  0.00  0.00    +0.155 HD
ENDBRANCH  17  20
ENDBRANCH   1  17
TORSDOF 6
ENDMDL
MODEL 4
REMARK VINA RESULT:     -10.3      9.265     14.131
REMARK  Name = 5042
REMARK  6 active torsions:
REMARK  status: ('A' for Active; 'I' for Inactive)
REMARK    1  A    between atoms: CA_1  and  N_3
REMARK    2  A    between atoms: CA_1  and  C_14
REMARK    3  A    between atoms: CA_1  and  C_17
REMARK    4  A    between atoms: C_4  and  C_7
REMARK    5  A    between atoms: C_14  and  O_15
REMARK    6  A    between atoms: C_17  and  C_20
REMARK                            x       y       z     vdW  Elec       q    Type
REMARK                         _______ _______ _______ _____ _____    ______ ____
ROOT
ATOM      1  CA  UNL     1      33.236 -13.549 -24.755  0.00  0.00    +0.176 C 
ENDROOT
BRANCH   1   3
ATOM      2  O   UNL     1      32.473 -14.986 -22.410  0.00  0.00    -0.270 OA
ATOM      3  N   UNL     1      33.977 -14.610 -24.120  0.00  0.00    -0.293 N 
ATOM      4  C   UNL     1      33.537 -15.278 -22.957  0.00  0.00    +0.246 C 
ATOM      5  H   UNL     1      34.836 -14.883 -24.517  0.00  0.00    +0.150 HD
BRANCH   4   7
ATOM      6 CL   UNL     1      37.000 -19.667 -20.878  0.00  0.00    -0.082 Cl
ATOM      7  C   UNL     1      34.391 -16.358 -22.446  0.00  0.00    +0.053 C 
ATOM      8  C   UNL     1      34.579 -16.489 -21.078  0.00  0.00    +0.005 C 
ATOM      9  C   UNL     1      34.995 -17.232 -23.338  0.00  0.00    +0.005 C 
ATOM     10  C   UNL     1      35.388 -17.515 -20.591  0.00  0.00    +0.012 C 
ATOM     11  C   UNL     1      35.804 -18.259 -22.852  0.00  0.00    +0.012 C 
ATOM     12  C   UNL     1      36.001 -18.400 -21.478  0.00  0.00    +0.058 C 
ENDBRANCH   4   7
ENDBRANCH   1   3
BRANCH   1  14
ATOM     13  OXT UNL     1      33.426 -13.079 -27.121  0.00  0.00    -0.248 OA
ATOM     14  C   UNL     1      33.002 -13.813 -26.235  0.00  0.00    +0.332 C 
BRANCH  14  15
ATOM     15  O   UNL     1      32.292 -14.937 -26.502  0.00  0.00    -0.479 OA
ATOM     16  H   UNL     1      32.587 -15.765 -26.176  0.00  0.00    +0.295 HD
ENDBRANCH  14  15
ENDBRANCH   1  14
BRANCH   1  17
ATOM     17  C   UNL     1      33.890 -12.187 -24.509  0.00  0.00    +0.058 C 
BRANCH  17  20
ATOM     18  O   UNL     1      30.498 -11.445 -21.151  0.00  0.00    -0.270 OA
ATOM     19  N   UNL     1      31.742  -9.617 -21.785  0.00  0.00    -0.280 N 
ATOM     20  C   UNL     1      33.138 -11.301 -23.557  0.00  0.00    -0.014 C 
ATOM     21  C   UNL     1      33.481  -9.865 -23.466  0.00  0.00    +0.010 C 
ATOM     22  C   UNL     1      32.763  -9.057 -22.572  0.00  0.00    +0.050 C 
ATOM     23  C   UNL     1      32.155 -11.795 -22.787  0.00  0.00    +0.054 C 
ATOM     24  C   UNL     1      34.492  -9.269 -24.233  0.00  0.00    +0.001 C 
ATOM     25  C   UNL     1      31.390 -10.948 -21.836  0.00  0.00    +0.249 C 
ATOM     26  C   UNL     1      33.044  -7.693 -22.443  0.00  0.00    +0.015 C 
ATOM     27  C   UNL     1      34.773  -7.904 -24.106  0.00  0.00    +0.000 C 
ATOM     28  C   UNL     1      34.051  -7.118 -23.213  0.00  0.00    +0.001 C 
ATOM     29  H   UNL     1      31.254  -9.030 -21.164  0.00  0.00    +0.155 HD
ENDBRANCH  17  20
ENDBRANCH   1  17
TORSDOF 6
ENDMDL
MODEL 5
REMARK VINA RESULT:     -10.3      9.971     13.467
REMARK  Name = 5042
REMARK  6 active torsions:
REMARK  status: ('A' for Active; 'I' for Inactive)
REMARK    1  A    between atoms: CA_1  and  N_3
REMARK    2  A    between atoms: CA_1  and  C_14
REMARK    3  A    between atoms: CA_1  and  C_17
REMARK    4  A    between atoms: C_4  and  C_7
REMARK    5  A    between atoms: C_14  and  O_15
REMARK    6  A    between atoms: C_17  and  C_20
REMARK                            x       y       z     vdW  Elec       q    Type
REMARK                         _______ _______ _______ _____ _____    ______ ____
ROOT
ATOM      1  CA  UNL     1      33.786 -13.436 -25.856  0.00  0.00    +0.176 C 
ENDROOT
BRANCH   1   3
ATOM      2  O   UNL     1      35.219 -10.968 -25.859  0.00  0.00    -0.270 OA
ATOM      3  N   UNL     1      33.542 -12.301 -25.002  0.00  0.00    -0.293 N 
ATOM      4  C   UNL     1      34.293 -11.108 -25.060  0.00  0.00    +0.246 C 
ATOM      5  H   UNL     1      32.812 -12.361 -24.344  0.00  0.00    +0.150 HD
BRANCH   4   7
ATOM      6 CL   UNL     1      32.703  -6.726 -21.339  0.00  0.00    -0.082 Cl
ATOM      7  C   UNL     1      33.902 -10.030 -24.143  0.00  0.00    +0.053 C 
ATOM      8  C   UNL     1      34.653  -8.864 -24.101  0.00  0.00    +0.005 C 
ATOM      9  C   UNL     1      32.788 -10.193 -23.332  0.00  0.00    +0.005 C 
ATOM     10  C   UNL     1      34.280  -7.839 -23.231  0.00  0.00    +0.012 C 
ATOM     11  C   UNL     1      32.416  -9.168 -22.463  0.00  0.00    +0.012 C 
ATOM     12  C   UNL     1      33.162  -7.990 -22.413  0.00  0.00    +0.058 C 
ENDBRANCH   4   7
ENDBRANCH   1   3
BRANCH   1  14
ATOM     13  OXT UNL     1      32.431 -12.887 -27.785  0.00  0.00    -0.248 OA
ATOM     14  C   UNL     1      33.544 -13.119 -27.325  0.00  0.00    +0.332 C 
BRANCH  14  15
ATOM     15  O   UNL     1      34.663 -13.102 -28.089  0.00  0.00    -0.479 OA
ATOM     16  H   UNL     1      34.696 -12.570 -28.860  0.00  0.00    +0.295 HD
ENDBRANCH  14  15
ENDBRANCH   1  14
BRANCH   1  17
ATOM     17  C   UNL     1      32.997 -14.663 -25.394  0.00  0.00    +0.058 C 
BRANCH  17  20
ATOM     18  O   UNL     1      35.810 -18.169 -23.626  0.00  0.00    -0.270 OA
ATOM     19  N   UNL     1      34.781 -16.798 -22.092  0.00  0.00    -0.280 N 
ATOM     20  C   UNL     1      33.623 -15.410 -24.251  0.00  0.00    -0.014 C 
ATOM     21  C   UNL     1      33.341 -14.995 -22.861  0.00  0.00    +0.010 C 
ATOM     22  C   UNL     1      33.936 -15.710 -21.810  0.00  0.00    +0.050 C 
ATOM     23  C   UNL     1      34.435 -16.456 -24.476  0.00  0.00    +0.054 C 
ATOM     24  C   UNL     1      32.505 -13.917 -22.537  0.00  0.00    +0.001 C 
ATOM     25  C   UNL     1      35.071 -17.219 -23.371  0.00  0.00    +0.249 C 
ATOM     26  C   UNL     1      33.707 -15.362 -20.475  0.00  0.00    +0.015 C 
ATOM     27  C   UNL     1      32.274 -13.567 -21.203  0.00  0.00    +0.000 C 
ATOM     28  C   UNL     1      32.874 -14.289 -20.174  0.00  0.00    +0.001 C 
ATOM     29  H   UNL     1      35.187 -17.283 -21.338  0.00  0.00    +0.155 HD
ENDBRANCH  17  20
ENDBRANCH   1  17
TORSDOF 6
ENDMDL
MODEL 6
REMARK VINA RESULT:      -9.9      6.475      9.675
REMARK  Name = 5042
REMARK  6 active torsions:
REMARK  status: ('A' for Active; 'I' for Inactive)
REMARK    1  A    between atoms: CA_1  and  N_3
REMARK    2  A    between atoms: CA_1  and  C_14
REMARK    3  A    between atoms: CA_1  and  C_17
REMARK    4  A    between atoms: C_4  and  C_7
REMARK    5  A    between atoms: C_14  and  O_15
REMARK    6  A    between atoms: C_17  and  C_20
REMARK                            x       y       z     vdW  Elec       q    Type
REMARK                         _______ _______ _______ _____ _____    ______ ____
ROOT
ATOM      1  CA  UNL     1      34.410 -16.809 -23.626  0.00  0.00    +0.176 C 
ENDROOT
BRANCH   1   3
ATOM      2  O   UNL     1      34.707 -14.894 -21.531  0.00  0.00    -0.270 OA
ATOM      3  N   UNL     1      33.789 -15.510 -23.557  0.00  0.00    -0.293 N 
ATOM      4  C   UNL     1      33.982 -14.612 -22.486  0.00  0.00    +0.246 C 
ATOM      5  H   UNL     1      33.199 -15.235 -24.295  0.00  0.00    +0.150 HD
BRANCH   4   7
ATOM      6 CL   UNL     1      31.223  -9.335 -22.843  0.00  0.00    -0.082 Cl
ATOM      7  C   UNL     1      33.302 -13.313 -22.575  0.00  0.00    +0.053 C 
ATOM      8  C   UNL     1      32.277 -13.018 -21.689  0.00  0.00    +0.005 C 
ATOM      9  C   UNL     1      33.697 -12.401 -23.543  0.00  0.00    +0.005 C 
ATOM     10  C   UNL     1      31.632 -11.784 -21.772  0.00  0.00    +0.012 C 
ATOM     11  C   UNL     1      33.052 -11.166 -23.626  0.00  0.00    +0.012 C 
ATOM     12  C   UNL     1      32.020 -10.858 -22.740  0.00  0.00    +0.058 C 
ENDBRANCH   4   7
ENDBRANCH   1   3
BRANCH   1  14
ATOM     13  OXT UNL     1      33.986 -18.548 -25.254  0.00  0.00    -0.248 OA
ATOM     14  C   UNL     1      34.358 -17.402 -25.027  0.00  0.00    +0.332 C 
BRANCH  14  15
ATOM     15  O   UNL     1      34.747 -16.557 -26.011  0.00  0.00    -0.479 OA
ATOM     16  H   UNL     1      34.104 -16.124 -26.539  0.00  0.00    +0.295 HD
ENDBRANCH  14  15
ENDBRANCH   1  14
BRANCH   1  17
ATOM     17  C   UNL     1      33.833 -17.760 -22.575  0.00  0.00    +0.058 C 
BRANCH  17  20
ATOM     18  O   UNL     1      38.404 -18.936 -21.549  0.00  0.00    -0.270 OA
ATOM     19  N   UNL     1      36.762 -20.163 -20.505  0.00  0.00    -0.280 N 
ATOM     20  C   UNL     1      34.859 -18.590 -21.858  0.00  0.00    -0.014 C 
ATOM     21  C   UNL     1      34.423 -19.664 -20.940  0.00  0.00    +0.010 C 
ATOM     22  C   UNL     1      35.400 -20.428 -20.284  0.00  0.00    +0.050 C 
ATOM     23  C   UNL     1      36.171 -18.372 -22.041  0.00  0.00    +0.054 C 
ATOM     24  C   UNL     1      33.074 -19.959 -20.692  0.00  0.00    +0.001 C 
ATOM     25  C   UNL     1      37.214 -19.174 -21.350  0.00  0.00    +0.249 C 
ATOM     26  C   UNL     1      35.045 -21.456 -19.404  0.00  0.00    +0.015 C 
ATOM     27  C   UNL     1      32.718 -20.987 -19.813  0.00  0.00    +0.000 C 
ATOM     28  C   UNL     1      33.702 -21.734 -19.170  0.00  0.00    +0.001 C 
ATOM     29  H   UNL     1      37.428 -20.712 -20.032  0.00  0.00    +0.155 HD
ENDBRANCH  17  20
ENDBRANCH   1  17
TORSDOF 6
ENDMDL
MODEL 7
REMARK VINA RESULT:      -9.9      5.689     10.651
REMARK  Name = 5042
REMARK  6 active torsions:
REMARK  status: ('A' for Active; 'I' for Inactive)
REMARK    1  A    between atoms: CA_1  and  N_3
REMARK    2  A    between atoms: CA_1  and  C_14
REMARK    3  A    between atoms: CA_1  and  C_17
REMARK    4  A    between atoms: C_4  and  C_7
REMARK    5  A    between atoms: C_14  and  O_15
REMARK    6  A    between atoms: C_17  and  C_20
REMARK                            x       y       z     vdW  Elec       q    Type
REMARK                         _______ _______ _______ _____ _____    ______ ____
ROOT
ATOM      1  CA  UNL     1      34.417 -18.578 -22.180  0.00  0.00    +0.176 C 
ENDROOT
BRANCH   1   3
ATOM      2  O   UNL     1      32.406 -20.317 -21.139  0.00  0.00    -0.270 OA
ATOM      3  N   UNL     1      34.560 -19.489 -21.072  0.00  0.00    -0.293 N 
ATOM      4  C   UNL     1      33.519 -20.322 -20.610  0.00  0.00    +0.246 C 
ATOM      5  H   UNL     1      35.430 -19.533 -20.612  0.00  0.00    +0.150 HD
BRANCH   4   7
ATOM      6 CL   UNL     1      34.781 -23.962 -16.056  0.00  0.00    -0.082 Cl
ATOM      7  C   UNL     1      33.830 -21.217 -19.488  0.00  0.00    +0.053 C 
ATOM      8  C   UNL     1      32.796 -21.856 -18.818  0.00  0.00    +0.005 C 
ATOM      9  C   UNL     1      35.152 -21.412 -19.116  0.00  0.00    +0.005 C 
ATOM     10  C   UNL     1      33.092 -22.708 -17.753  0.00  0.00    +0.012 C 
ATOM     11  C   UNL     1      35.447 -22.264 -18.051  0.00  0.00    +0.012 C 
ATOM     12  C   UNL     1      34.417 -22.912 -17.370  0.00  0.00    +0.058 C 
ENDBRANCH   4   7
ENDBRANCH   1   3
BRANCH   1  14
ATOM     13  OXT UNL     1      34.956 -19.557 -24.326  0.00  0.00    -0.248 OA
ATOM     14  C   UNL     1      35.334 -18.931 -23.342  0.00  0.00    +0.332 C 
BRANCH  14  15
ATOM     15  O   UNL     1      36.607 -18.488 -23.208  0.00  0.00    -0.479 OA
ATOM     16  H   UNL     1      36.917 -17.784 -23.744  0.00  0.00    +0.295 HD
ENDBRANCH  14  15
ENDBRANCH   1  14
BRANCH   1  17
ATOM     17  C   UNL     1      34.586 -17.124 -21.732  0.00  0.00    +0.058 C 
BRANCH  17  20
ATOM     18  O   UNL     1      33.815 -15.471 -26.204  0.00  0.00    -0.270 OA
ATOM     19  N   UNL     1      32.999 -14.193 -24.476  0.00  0.00    -0.280 N 
ATOM     20  C   UNL     1      34.036 -16.111 -22.694  0.00  0.00    -0.014 C 
ATOM     21  C   UNL     1      33.323 -14.922 -22.179  0.00  0.00    +0.010 C 
ATOM     22  C   UNL     1      32.820 -13.987 -23.097  0.00  0.00    +0.050 C 
ATOM     23  C   UNL     1      34.185 -16.267 -24.019  0.00  0.00    +0.054 C 
ATOM     24  C   UNL     1      33.124 -14.680 -20.812  0.00  0.00    +0.001 C 
ATOM     25  C   UNL     1      33.655 -15.284 -25.000  0.00  0.00    +0.249 C 
ATOM     26  C   UNL     1      32.137 -12.845 -22.667  0.00  0.00    +0.015 C 
ATOM     27  C   UNL     1      32.442 -13.538 -20.380  0.00  0.00    +0.000 C 
ATOM     28  C   UNL     1      31.949 -12.622 -21.306  0.00  0.00    +0.001 C 
ATOM     29  H   UNL     1      32.636 -13.523 -25.099  0.00  0.00    +0.155 HD
ENDBRANCH  17  20
ENDBRANCH   1  17
TORSDOF 6
ENDMDL
MODEL 8
REMARK VINA RESULT:      -9.7     10.430     14.271
REMARK  Name = 5042
REMARK  6 active torsions:
REMARK  status: ('A' for Active; 'I' for Inactive)
REMARK    1  A    between atoms: CA_1  and  N_3
REMARK    2  A    between atoms: CA_1  and  C_14
REMARK    3  A    between atoms: CA_1  and  C_17
REMARK    4  A    between atoms: C_4  and  C_7
REMARK    5  A    between atoms: C_14  and  O_15
REMARK    6  A    between atoms: C_17  and  C_20
REMARK                            x       y       z     vdW  Elec       q    Type
REMARK                         _______ _______ _______ _____ _____    ______ ____
ROOT
ATOM      1  CA  UNL     1      33.986 -11.926 -24.792  0.00  0.00    +0.176 C 
ENDROOT
BRANCH   1   3
ATOM      2  O   UNL     1      35.104  -9.492 -23.807  0.00  0.00    -0.270 OA
ATOM      3  N   UNL     1      33.258 -10.799 -24.266  0.00  0.00    -0.293 N 
ATOM      4  C   UNL     1      33.880  -9.623 -23.795  0.00  0.00    +0.246 C 
ATOM      5  H   UNL     1      32.275 -10.852 -24.233  0.00  0.00    +0.150 HD
BRANCH   4   7
ATOM      6 CL   UNL     1      30.303  -5.263 -21.851  0.00  0.00    -0.082 Cl
ATOM      7  C   UNL     1      32.998  -8.551 -23.315  0.00  0.00    +0.053 C 
ATOM      8  C   UNL     1      33.477  -7.639 -22.385  0.00  0.00    +0.005 C 
ATOM      9  C   UNL     1      31.701  -8.464 -23.801  0.00  0.00    +0.005 C 
ATOM     10  C   UNL     1      32.640  -6.619 -21.931  0.00  0.00    +0.012 C 
ATOM     11  C   UNL     1      30.865  -7.444 -23.346  0.00  0.00    +0.012 C 
ATOM     12  C   UNL     1      31.335  -6.521 -22.412  0.00  0.00    +0.058 C 
ENDBRANCH   4   7
ENDBRANCH   1   3
BRANCH   1  14
ATOM     13  OXT UNL     1      33.884 -12.372 -27.169  0.00  0.00    -0.248 OA
ATOM     14  C   UNL     1      34.382 -11.731 -26.249  0.00  0.00    +0.332 C 
BRANCH  14  15
ATOM     15  O   UNL     1      35.325 -10.780 -26.454  0.00  0.00    -0.479 OA
ATOM     16  H   UNL     1      35.471 -10.118 -25.807  0.00  0.00    +0.295 HD
ENDBRANCH  14  15
ENDBRANCH   1  14
BRANCH   1  17
ATOM     17  C   UNL     1      33.224 -13.235 -24.572  0.00  0.00    +0.058 C 
BRANCH  17  20
ATOM     18  O   UNL     1      31.924 -12.793 -19.941  0.00  0.00    -0.270 OA
ATOM     19  N   UNL     1      33.199 -14.628 -20.486  0.00  0.00    -0.280 N 
ATOM     20  C   UNL     1      33.209 -13.713 -23.148  0.00  0.00    -0.014 C 
ATOM     21  C   UNL     1      33.914 -14.961 -22.786  0.00  0.00    +0.010 C 
ATOM     22  C   UNL     1      33.888 -15.385 -21.449  0.00  0.00    +0.050 C 
ATOM     23  C   UNL     1      32.564 -13.019 -22.196  0.00  0.00    +0.054 C 
ATOM     24  C   UNL     1      34.612 -15.745 -23.716  0.00  0.00    +0.001 C 
ATOM     25  C   UNL     1      32.529 -13.461 -20.778  0.00  0.00    +0.249 C 
ATOM     26  C   UNL     1      34.536 -16.558 -21.048  0.00  0.00    +0.015 C 
ATOM     27  C   UNL     1      35.262 -16.917 -23.317  0.00  0.00    +0.000 C 
ATOM     28  C   UNL     1      35.224 -17.323 -21.986  0.00  0.00    +0.001 C 
ATOM     29  H   UNL     1      33.195 -14.947 -19.555  0.00  0.00    +0.155 HD
ENDBRANCH  17  20
ENDBRANCH   1  17
TORSDOF 6
ENDMDL
MODEL 9
REMARK VINA RESULT:      -9.7      1.799      2.287
REMARK  Name = 5042
REMARK  6 active torsions:
REMARK  status: ('A' for Active; 'I' for Inactive)
REMARK    1  A    between atoms: CA_1  and  N_3
REMARK    2  A    between atoms: CA_1  and  C_14
REMARK    3  A    between atoms: CA_1  and  C_17
REMARK    4  A    between atoms: C_4  and  C_7
REMARK    5  A    between atoms: C_14  and  O_15
REMARK    6  A    between atoms: C_17  and  C_20
REMARK                            x       y       z     vdW  Elec       q    Type
REMARK                         _______ _______ _______ _____ _____    ______ ____
ROOT
ATOM      1  CA  UNL     1      34.502 -23.223 -15.787  0.00  0.00    +0.176 C 
ENDROOT
BRANCH   1   3
ATOM      2  O   UNL     1      33.754 -23.874 -18.463  0.00  0.00    -0.270 OA
ATOM      3  N   UNL     1      34.565 -22.349 -16.931  0.00  0.00    -0.293 N 
ATOM      4  C   UNL     1      34.176 -22.741 -18.230  0.00  0.00    +0.246 C 
ATOM      5  H   UNL     1      34.896 -21.431 -16.801  0.00  0.00    +0.150 HD
BRANCH   4   7
ATOM      6 CL   UNL     1      34.559 -18.614 -22.520  0.00  0.00    -0.082 Cl
ATOM      7  C   UNL     1      34.270 -21.726 -19.287  0.00  0.00    +0.053 C 
ATOM      8  C   UNL     1      33.113 -21.127 -19.765  0.00  0.00    +0.005 C 
ATOM      9  C   UNL     1      35.515 -21.379 -19.792  0.00  0.00    +0.005 C 
ATOM     10  C   UNL     1      33.202 -20.162 -20.767  0.00  0.00    +0.012 C 
ATOM     11  C   UNL     1      35.605 -20.413 -20.795  0.00  0.00    +0.012 C 
ATOM     12  C   UNL     1      34.448 -19.805 -21.282  0.00  0.00    +0.058 C 
ENDBRANCH   4   7
ENDBRANCH   1   3
BRANCH   1  14
ATOM     13  OXT UNL     1      32.814 -24.571 -14.697  0.00  0.00    -0.248 OA
ATOM     14  C   UNL     1      33.078 -23.645 -15.457  0.00  0.00    +0.332 C 
BRANCH  14  15
ATOM     15  O   UNL     1      32.117 -22.908 -16.064  0.00  0.00    -0.479 OA
ATOM     16  H   UNL     1      32.323 -22.409 -16.831  0.00  0.00    +0.295 HD
ENDBRANCH  14  15
ENDBRANCH   1  14
BRANCH   1  17
ATOM     17  C   UNL     1      35.217 -22.611 -14.579  0.00  0.00    +0.058 C 
BRANCH  17  20
ATOM     18  O   UNL     1      35.265 -25.280 -10.553  0.00  0.00    -0.270 OA
ATOM     19  N   UNL     1      37.075 -25.494 -11.956  0.00  0.00    -0.280 N 
ATOM     20  C   UNL     1      35.855 -23.614 -13.661  0.00  0.00    -0.014 C 
ATOM     21  C   UNL     1      37.165 -24.203 -14.015  0.00  0.00    +0.010 C 
ATOM     22  C   UNL     1      37.742 -25.136 -13.140  0.00  0.00    +0.050 C 
ATOM     23  C   UNL     1      35.253 -23.984 -12.519  0.00  0.00    +0.054 C 
ATOM     24  C   UNL     1      37.862 -23.873 -15.186  0.00  0.00    +0.001 C 
ATOM     25  C   UNL     1      35.855 -24.972 -11.587  0.00  0.00    +0.249 C 
ATOM     26  C   UNL     1      38.978 -25.725 -13.423  0.00  0.00    +0.015 C 
ATOM     27  C   UNL     1      39.099 -24.461 -15.470  0.00  0.00    +0.000 C 
ATOM     28  C   UNL     1      39.656 -25.385 -14.591  0.00  0.00    +0.001 C 
ATOM     29  H   UNL     1      37.500 -26.151 -11.360  0.00  0.00    +0.155 HD
ENDBRANCH  17  20
ENDBRANCH   1  17
TORSDOF 6
ENDMDL
