MODEL 1
REMARK VINA RESULT:      -7.3      0.000      0.000
REMARK  Name = 75791
REMARK  5 active torsions:
REMARK  status: ('A' for Active; 'I' for Inactive)
REMARK    1  A    between atoms: C_1  and  C_2
REMARK    2  A    between atoms: C_1  and  C_9
REMARK    3  A    between atoms: C_1  and  C_13
REMARK    4  A    between atoms: C_9  and  O_10
REMARK    5  A    between atoms: C_13  and  O_14
REMARK                            x       y       z     vdW  Elec       q    Type
REMARK                         _______ _______ _______ _____ _____    ______ ____
ROOT
ATOM      1  C   UNL     1      35.354 -18.134 -21.942  0.00  0.00    +0.219 C 
ENDROOT
BRANCH   1   2
ATOM      2  C   UNL     1      34.829 -19.268 -21.128  0.00  0.00    -0.001 C 
ATOM      3  C   UNL     1      35.714 -20.185 -20.559  0.00  0.00    -0.003 C 
ATOM      4  C   UNL     1      33.455 -19.411 -20.934  0.00  0.00    -0.003 C 
ATOM      5  C   UNL     1      35.224 -21.246 -19.797  0.00  0.00    -0.000 C 
ATOM      6  C   UNL     1      32.966 -20.472 -20.172  0.00  0.00    -0.000 C 
ATOM      7  C   UNL     1      33.850 -21.390 -19.604  0.00  0.00    -0.000 C 
ENDBRANCH   1   2
BRANCH   1   9
ATOM      8  O   UNL     1      34.953 -19.484 -23.946  0.00  0.00    -0.249 OA
ATOM      9  C   UNL     1      35.223 -18.401 -23.444  0.00  0.00    +0.328 C 
BRANCH   9  10
ATOM     10  O   UNL     1      35.479 -17.288 -24.182  0.00  0.00    -0.480 OA
ATOM     11  H   UNL     1      35.563 -16.456 -23.761  0.00  0.00    +0.295 HD
ENDBRANCH   9  10
ENDBRANCH   1   9
BRANCH   1  13
ATOM     12  O   UNL     1      33.977 -16.126 -22.194  0.00  0.00    -0.249 OA
ATOM     13  C   UNL     1      34.758 -16.787 -21.526  0.00  0.00    +0.328 C 
BRANCH  13  14
ATOM     14  O   UNL     1      35.161 -16.422 -20.280  0.00  0.00    -0.480 OA
ATOM     15  H   UNL     1      34.871 -15.611 -19.912  0.00  0.00    +0.295 HD
ENDBRANCH  13  14
ENDBRANCH   1  13
TORSDOF 5
ENDMDL
MODEL 2
REMARK VINA RESULT:      -7.3      0.655      2.418
REMARK  Name = 75791
REMARK  5 active torsions:
REMARK  status: ('A' for Active; 'I' for Inactive)
REMARK    1  A    between atoms: C_1  and  C_2
REMARK    2  A    between atoms: C_1  and  C_9
REMARK    3  A    between atoms: C_1  and  C_13
REMARK    4  A    between atoms: C_9  and  O_10
REMARK    5  A    between atoms: C_13  and  O_14
REMARK                            x       y       z     vdW  Elec       q    Type
REMARK                         _______ _______ _______ _____ _____    ______ ____
ROOT
ATOM      1  C   UNL     1      34.282 -18.492 -21.967  0.00  0.00    +0.219 C 
ENDROOT
BRANCH   1   2
ATOM      2  C   UNL     1      34.414 -19.642 -21.026  0.00  0.00    -0.001 C 
ATOM      3  C   UNL     1      35.676 -20.156 -20.728  0.00  0.00    -0.003 C 
ATOM      4  C   UNL     1      33.277 -20.202 -20.443  0.00  0.00    -0.003 C 
ATOM      5  C   UNL     1      35.801 -21.231 -19.847  0.00  0.00    -0.000 C 
ATOM      6  C   UNL     1      33.401 -21.276 -19.563  0.00  0.00    -0.000 C 
ATOM      7  C   UNL     1      34.663 -21.791 -19.265  0.00  0.00    -0.000 C 
ENDBRANCH   1   2
BRANCH   1   9
ATOM      8  O   UNL     1      35.354 -16.963 -20.381  0.00  0.00    -0.249 OA
ATOM      9  C   UNL     1      34.534 -17.152 -21.270  0.00  0.00    +0.328 C 
BRANCH   9  10
ATOM     10  O   UNL     1      33.706 -16.177 -21.730  0.00  0.00    -0.480 OA
ATOM     11  H   UNL     1      32.778 -16.272 -21.646  0.00  0.00    +0.295 HD
ENDBRANCH   9  10
ENDBRANCH   1   9
BRANCH   1  13
ATOM     12  O   UNL     1      34.954 -19.538 -24.076  0.00  0.00    -0.249 OA
ATOM     13  C   UNL     1      35.125 -18.670 -23.233  0.00  0.00    +0.328 C 
BRANCH  13  14
ATOM     14  O   UNL     1      36.072 -17.702 -23.345  0.00  0.00    -0.480 OA
ATOM     15  H   UNL     1      36.526 -17.582 -24.156  0.00  0.00    +0.295 HD
ENDBRANCH  13  14
ENDBRANCH   1  13
TORSDOF 5
ENDMDL
MODEL 3
REMARK VINA RESULT:      -7.2      0.767      2.757
REMARK  Name = 75791
REMARK  5 active torsions:
REMARK  status: ('A' for Active; 'I' for Inactive)
REMARK    1  A    between atoms: C_1  and  C_2
REMARK    2  A    between atoms: C_1  and  C_9
REMARK    3  A    between atoms: C_1  and  C_13
REMARK    4  A    between atoms: C_9  and  O_10
REMARK    5  A    between atoms: C_13  and  O_14
REMARK                            x       y       z     vdW  Elec       q    Type
REMARK                         _______ _______ _______ _____ _____    ______ ____
ROOT
ATOM      1  C   UNL     1      34.278 -18.555 -21.867  0.00  0.00    +0.219 C 
ENDROOT
BRANCH   1   2
ATOM      2  C   UNL     1      34.372 -19.725 -20.946  0.00  0.00    -0.001 C 
ATOM      3  C   UNL     1      33.213 -20.267 -20.387  0.00  0.00    -0.003 C 
ATOM      4  C   UNL     1      35.616 -20.278 -20.644  0.00  0.00    -0.003 C 
ATOM      5  C   UNL     1      33.300 -21.362 -19.527  0.00  0.00    -0.000 C 
ATOM      6  C   UNL     1      35.703 -21.372 -19.784  0.00  0.00    -0.000 C 
ATOM      7  C   UNL     1      34.545 -21.914 -19.225  0.00  0.00    -0.000 C 
ENDBRANCH   1   2
BRANCH   1   9
ATOM      8  O   UNL     1      35.450 -16.967 -20.416  0.00  0.00    -0.249 OA
ATOM      9  C   UNL     1      34.490 -17.230 -21.129  0.00  0.00    +0.328 C 
BRANCH   9  10
ATOM     10  O   UNL     1      33.458 -16.368 -21.325  0.00  0.00    -0.480 OA
ATOM     11  H   UNL     1      33.590 -15.447 -21.218  0.00  0.00    +0.295 HD
ENDBRANCH   9  10
ENDBRANCH   1   9
BRANCH   1  13
ATOM     12  O   UNL     1      34.987 -19.475 -24.021  0.00  0.00    -0.249 OA
ATOM     13  C   UNL     1      35.179 -18.701 -23.095  0.00  0.00    +0.328 C 
BRANCH  13  14
ATOM     14  O   UNL     1      36.212 -17.817 -23.068  0.00  0.00    -0.480 OA
ATOM     15  H   UNL     1      37.041 -18.054 -23.434  0.00  0.00    +0.295 HD
ENDBRANCH  13  14
ENDBRANCH   1  13
TORSDOF 5
ENDMDL
MODEL 4
REMARK VINA RESULT:      -6.6      8.451     10.195
REMARK  Name = 75791
REMARK  5 active torsions:
REMARK  status: ('A' for Active; 'I' for Inactive)
REMARK    1  A    between atoms: C_1  and  C_2
REMARK    2  A    between atoms: C_1  and  C_9
REMARK    3  A    between atoms: C_1  and  C_13
REMARK    4  A    between atoms: C_9  and  O_10
REMARK    5  A    between atoms: C_13  and  O_14
REMARK                            x       y       z     vdW  Elec       q    Type
REMARK                         _______ _______ _______ _____ _____    ______ ____
ROOT
ATOM      1  C   UNL     1      38.532 -25.305 -14.343  0.00  0.00    +0.219 C 
ENDROOT
BRANCH   1   2
ATOM      2  C   UNL     1      37.638 -24.343 -15.051  0.00  0.00    -0.001 C 
ATOM      3  C   UNL     1      36.255 -24.523 -15.016  0.00  0.00    -0.003 C 
ATOM      4  C   UNL     1      38.184 -23.265 -15.746  0.00  0.00    -0.003 C 
ATOM      5  C   UNL     1      35.418 -23.624 -15.678  0.00  0.00    -0.000 C 
ATOM      6  C   UNL     1      37.348 -22.366 -16.407  0.00  0.00    -0.000 C 
ATOM      7  C   UNL     1      35.964 -22.545 -16.373  0.00  0.00    -0.000 C 
ENDBRANCH   1   2
BRANCH   1   9
ATOM      8  O   UNL     1      40.879 -24.605 -14.282  0.00  0.00    -0.249 OA
ATOM      9  C   UNL     1      39.977 -25.215 -14.842  0.00  0.00    +0.328 C 
BRANCH   9  10
ATOM     10  O   UNL     1      40.149 -25.871 -16.020  0.00  0.00    -0.480 OA
ATOM     11  H   UNL     1      40.978 -26.255 -16.226  0.00  0.00    +0.295 HD
ENDBRANCH   9  10
ENDBRANCH   1   9
BRANCH   1  13
ATOM     12  O   UNL     1      37.972 -26.060 -12.082  0.00  0.00    -0.249 OA
ATOM     13  C   UNL     1      38.423 -25.196 -12.820  0.00  0.00    +0.328 C 
BRANCH  13  14
ATOM     14  O   UNL     1      38.944 -24.027 -12.361  0.00  0.00    -0.480 OA
ATOM     15  H   UNL     1      39.872 -23.905 -12.337  0.00  0.00    +0.295 HD
ENDBRANCH  13  14
ENDBRANCH   1  13
TORSDOF 5
ENDMDL
MODEL 5
REMARK VINA RESULT:      -6.6      8.305     10.109
REMARK  Name = 75791
REMARK  5 active torsions:
REMARK  status: ('A' for Active; 'I' for Inactive)
REMARK    1  A    between atoms: C_1  and  C_2
REMARK    2  A    between atoms: C_1  and  C_9
REMARK    3  A    between atoms: C_1  and  C_13
REMARK    4  A    between atoms: C_9  and  O_10
REMARK    5  A    between atoms: C_13  and  O_14
REMARK                            x       y       z     vdW  Elec       q    Type
REMARK                         _______ _______ _______ _____ _____    ______ ____
ROOT
ATOM      1  C   UNL     1      36.471 -25.631 -14.305  0.00  0.00    +0.219 C 
ENDROOT
BRANCH   1   2
ATOM      2  C   UNL     1      36.471 -24.373 -15.107  0.00  0.00    -0.001 C 
ATOM      3  C   UNL     1      35.266 -23.842 -15.569  0.00  0.00    -0.003 C 
ATOM      4  C   UNL     1      37.674 -23.728 -15.394  0.00  0.00    -0.003 C 
ATOM      5  C   UNL     1      35.265 -22.665 -16.319  0.00  0.00    -0.000 C 
ATOM      6  C   UNL     1      37.672 -22.552 -16.144  0.00  0.00    -0.000 C 
ATOM      7  C   UNL     1      36.468 -22.020 -16.606  0.00  0.00    -0.000 C 
ENDBRANCH   1   2
BRANCH   1   9
ATOM      8  O   UNL     1      38.415 -27.111 -14.485  0.00  0.00    -0.249 OA
ATOM      9  C   UNL     1      37.350 -26.712 -14.939  0.00  0.00    +0.328 C 
BRANCH   9  10
ATOM     10  O   UNL     1      36.829 -27.169 -16.109  0.00  0.00    -0.480 OA
ATOM     11  H   UNL     1      36.457 -26.568 -16.723  0.00  0.00    +0.295 HD
ENDBRANCH   9  10
ENDBRANCH   1   9
BRANCH   1  13
ATOM     12  O   UNL     1      36.932 -24.289 -12.310  0.00  0.00    -0.249 OA
ATOM     13  C   UNL     1      36.803 -25.387 -12.830  0.00  0.00    +0.328 C 
BRANCH  13  14
ATOM     14  O   UNL     1      36.890 -26.552 -12.136  0.00  0.00    -0.480 OA
ATOM     15  H   UNL     1      36.211 -26.793 -11.538  0.00  0.00    +0.295 HD
ENDBRANCH  13  14
ENDBRANCH   1  13
TORSDOF 5
ENDMDL
MODEL 6
REMARK VINA RESULT:      -6.5      2.573      4.475
REMARK  Name = 75791
REMARK  5 active torsions:
REMARK  status: ('A' for Active; 'I' for Inactive)
REMARK    1  A    between atoms: C_1  and  C_2
REMARK    2  A    between atoms: C_1  and  C_9
REMARK    3  A    between atoms: C_1  and  C_13
REMARK    4  A    between atoms: C_9  and  O_10
REMARK    5  A    between atoms: C_13  and  O_14
REMARK                            x       y       z     vdW  Elec       q    Type
REMARK                         _______ _______ _______ _____ _____    ______ ____
ROOT
ATOM      1  C   UNL     1      34.501 -19.706 -20.393  0.00  0.00    +0.219 C 
ENDROOT
BRANCH   1   2
ATOM      2  C   UNL     1      34.630 -18.867 -21.620  0.00  0.00    -0.001 C 
ATOM      3  C   UNL     1      34.514 -17.480 -21.530  0.00  0.00    -0.003 C 
ATOM      4  C   UNL     1      34.865 -19.469 -22.856  0.00  0.00    -0.003 C 
ATOM      5  C   UNL     1      34.635 -16.694 -22.676  0.00  0.00    -0.000 C 
ATOM      6  C   UNL     1      34.986 -18.683 -24.002  0.00  0.00    -0.000 C 
ATOM      7  C   UNL     1      34.870 -17.295 -23.912  0.00  0.00    -0.000 C 
ENDBRANCH   1   2
BRANCH   1   9
ATOM      8  O   UNL     1      32.241 -20.295 -21.132  0.00  0.00    -0.249 OA
ATOM      9  C   UNL     1      33.177 -20.475 -20.364  0.00  0.00    +0.328 C 
BRANCH   9  10
ATOM     10  O   UNL     1      33.135 -21.377 -19.347  0.00  0.00    -0.480 OA
ATOM     11  H   UNL     1      32.503 -22.068 -19.359  0.00  0.00    +0.295 HD
ENDBRANCH   9  10
ENDBRANCH   1   9
BRANCH   1  13
ATOM     12  O   UNL     1      35.704 -21.832 -20.224  0.00  0.00    -0.249 OA
ATOM     13  C   UNL     1      35.716 -20.611 -20.170  0.00  0.00    +0.328 C 
BRANCH  13  14
ATOM     14  O   UNL     1      36.847 -19.889 -19.954  0.00  0.00    -0.480 OA
ATOM     15  H   UNL     1      37.335 -20.008 -19.163  0.00  0.00    +0.295 HD
ENDBRANCH  13  14
ENDBRANCH   1  13
TORSDOF 5
ENDMDL
MODEL 7
REMARK VINA RESULT:      -6.5      8.434     10.206
REMARK  Name = 75791
REMARK  5 active torsions:
REMARK  status: ('A' for Active; 'I' for Inactive)
REMARK    1  A    between atoms: C_1  and  C_2
REMARK    2  A    between atoms: C_1  and  C_9
REMARK    3  A    between atoms: C_1  and  C_13
REMARK    4  A    between atoms: C_9  and  O_10
REMARK    5  A    between atoms: C_13  and  O_14
REMARK                            x       y       z     vdW  Elec       q    Type
REMARK                         _______ _______ _______ _____ _____    ______ ____
ROOT
ATOM      1  C   UNL     1      38.277 -25.143 -14.136  0.00  0.00    +0.219 C 
ENDROOT
BRANCH   1   2
ATOM      2  C   UNL     1      37.427 -24.231 -14.955  0.00  0.00    -0.001 C 
ATOM      3  C   UNL     1      38.014 -23.187 -15.671  0.00  0.00    -0.003 C 
ATOM      4  C   UNL     1      36.046 -24.421 -15.005  0.00  0.00    -0.003 C 
ATOM      5  C   UNL     1      37.220 -22.334 -16.437  0.00  0.00    -0.000 C 
ATOM      6  C   UNL     1      35.253 -23.568 -15.771  0.00  0.00    -0.000 C 
ATOM      7  C   UNL     1      35.839 -22.524 -16.488  0.00  0.00    -0.000 C 
ENDBRANCH   1   2
BRANCH   1   9
ATOM      8  O   UNL     1      37.710 -27.439 -14.778  0.00  0.00    -0.249 OA
ATOM      9  C   UNL     1      37.636 -26.523 -13.968  0.00  0.00    +0.328 C 
BRANCH   9  10
ATOM     10  O   UNL     1      36.928 -26.617 -12.811  0.00  0.00    -0.480 OA
ATOM     11  H   UNL     1      37.132 -26.056 -12.090  0.00  0.00    +0.295 HD
ENDBRANCH   9  10
ENDBRANCH   1   9
BRANCH   1  13
ATOM     12  O   UNL     1      40.691 -24.741 -14.080  0.00  0.00    -0.249 OA
ATOM     13  C   UNL     1      39.719 -25.218 -14.646  0.00  0.00    +0.328 C 
BRANCH  13  14
ATOM     14  O   UNL     1      39.808 -25.935 -15.797  0.00  0.00    -0.480 OA
ATOM     15  H   UNL     1      40.438 -26.624 -15.873  0.00  0.00    +0.295 HD
ENDBRANCH  13  14
ENDBRANCH   1  13
TORSDOF 5
ENDMDL
MODEL 8
REMARK VINA RESULT:      -6.4      8.957     10.778
REMARK  Name = 75791
REMARK  5 active torsions:
REMARK  status: ('A' for Active; 'I' for Inactive)
REMARK    1  A    between atoms: C_1  and  C_2
REMARK    2  A    between atoms: C_1  and  C_9
REMARK    3  A    between atoms: C_1  and  C_13
REMARK    4  A    between atoms: C_9  and  O_10
REMARK    5  A    between atoms: C_13  and  O_14
REMARK                            x       y       z     vdW  Elec       q    Type
REMARK                         _______ _______ _______ _____ _____    ______ ____
ROOT
ATOM      1  C   UNL     1      37.734 -24.752 -13.225  0.00  0.00    +0.219 C 
ENDROOT
BRANCH   1   2
ATOM      2  C   UNL     1      36.867 -24.055 -14.219  0.00  0.00    -0.001 C 
ATOM      3  C   UNL     1      35.481 -24.201 -14.158  0.00  0.00    -0.003 C 
ATOM      4  C   UNL     1      37.442 -23.257 -15.208  0.00  0.00    -0.003 C 
ATOM      5  C   UNL     1      34.669 -23.549 -15.087  0.00  0.00    -0.000 C 
ATOM      6  C   UNL     1      36.631 -22.605 -16.136  0.00  0.00    -0.000 C 
ATOM      7  C   UNL     1      35.244 -22.751 -16.076  0.00  0.00    -0.000 C 
ENDBRANCH   1   2
BRANCH   1   9
ATOM      8  O   UNL     1      36.848 -24.081 -11.041  0.00  0.00    -0.249 OA
ATOM      9  C   UNL     1      37.745 -24.032 -11.873  0.00  0.00    +0.328 C 
BRANCH   9  10
ATOM     10  O   UNL     1      38.869 -23.286 -11.705  0.00  0.00    -0.480 OA
ATOM     11  H   UNL     1      38.989 -22.790 -10.919  0.00  0.00    +0.295 HD
ENDBRANCH   9  10
ENDBRANCH   1   9
BRANCH   1  13
ATOM     12  O   UNL     1      37.620 -27.086 -13.956  0.00  0.00    -0.249 OA
ATOM     13  C   UNL     1      37.402 -26.241 -13.099  0.00  0.00    +0.328 C 
BRANCH  13  14
ATOM     14  O   UNL     1      36.876 -26.539 -11.882  0.00  0.00    -0.480 OA
ATOM     15  H   UNL     1      36.508 -27.386 -11.724  0.00  0.00    +0.295 HD
ENDBRANCH  13  14
ENDBRANCH   1  13
TORSDOF 5
ENDMDL
MODEL 9
REMARK VINA RESULT:      -6.3      3.153      4.264
REMARK  Name = 75791
REMARK  5 active torsions:
REMARK  status: ('A' for Active; 'I' for Inactive)
REMARK    1  A    between atoms: C_1  and  C_2
REMARK    2  A    between atoms: C_1  and  C_9
REMARK    3  A    between atoms: C_1  and  C_13
REMARK    4  A    between atoms: C_9  and  O_10
REMARK    5  A    between atoms: C_13  and  O_14
REMARK                            x       y       z     vdW  Elec       q    Type
REMARK                         _______ _______ _______ _____ _____    ______ ____
ROOT
ATOM      1  C   UNL     1      34.488 -15.175 -22.368  0.00  0.00    +0.219 C 
ENDROOT
BRANCH   1   2
ATOM      2  C   UNL     1      34.551 -16.470 -23.105  0.00  0.00    -0.001 C 
ATOM      3  C   UNL     1      34.463 -16.485 -24.497  0.00  0.00    -0.003 C 
ATOM      4  C   UNL     1      34.699 -17.666 -22.402  0.00  0.00    -0.003 C 
ATOM      5  C   UNL     1      34.522 -17.697 -25.187  0.00  0.00    -0.000 C 
ATOM      6  C   UNL     1      34.758 -18.877 -23.092  0.00  0.00    -0.000 C 
ATOM      7  C   UNL     1      34.670 -18.892 -24.484  0.00  0.00    -0.000 C 
ENDBRANCH   1   2
BRANCH   1   9
ATOM      8  O   UNL     1      32.330 -14.284 -23.111  0.00  0.00    -0.249 OA
ATOM      9  C   UNL     1      33.548 -14.176 -23.050  0.00  0.00    +0.328 C 
BRANCH   9  10
ATOM     10  O   UNL     1      34.229 -13.149 -23.624  0.00  0.00    -0.480 OA
ATOM     11  H   UNL     1      34.452 -12.393 -23.118  0.00  0.00    +0.295 HD
ENDBRANCH   9  10
ENDBRANCH   1   9
BRANCH   1  13
ATOM     12  O   UNL     1      35.013 -15.415 -19.989  0.00  0.00    -0.249 OA
ATOM     13  C   UNL     1      34.179 -15.359 -20.881  0.00  0.00    +0.328 C 
BRANCH  13  14
ATOM     14  O   UNL     1      32.840 -15.403 -20.647  0.00  0.00    -0.480 OA
ATOM     15  H   UNL     1      32.383 -16.219 -20.693  0.00  0.00    +0.295 HD
ENDBRANCH  13  14
ENDBRANCH   1  13
TORSDOF 5
ENDMDL
