MODEL 1
REMARK VINA RESULT:      -6.1      0.000      0.000
REMARK  Name = 447600
REMARK  6 active torsions:
REMARK  status: ('A' for Active; 'I' for Inactive)
REMARK    1  A    between atoms: C_2  and  S_7
REMARK    2  A    between atoms: C_3  and  O_9
REMARK    3  A    between atoms: C_4  and  C_15
REMARK    4  A    between atoms: C_5  and  O_11
REMARK    5  A    between atoms: C_6  and  O_13
REMARK    6  A    between atoms: C_15  and  O_16
REMARK                            x       y       z     vdW  Elec       q    Type
REMARK                         _______ _______ _______ _____ _____    ______ ____
ROOT
ATOM      1  O   UNL     1      33.230 -13.944 -24.906  0.00  0.00    -0.328 OA
ATOM      2  C   UNL     1      34.342 -14.825 -22.934  0.00  0.00    +0.103 C 
ATOM      3  C   UNL     1      34.619 -16.139 -23.680  0.00  0.00    +0.154 C 
ATOM      4  C   UNL     1      33.086 -14.132 -23.492  0.00  0.00    +0.159 C 
ATOM      5  C   UNL     1      34.577 -15.930 -25.196  0.00  0.00    +0.195 C 
ATOM      6  C   UNL     1      33.324 -15.171 -25.623  0.00  0.00    +0.266 C 
ENDROOT
BRANCH   2   7
ATOM      7  S   UNL     1      34.182 -15.163 -21.139  0.00  0.00    -0.164 S 
ATOM      8  H   UNL     1      33.042 -14.590 -20.671  0.00  0.00    +0.102 HD
ENDBRANCH   2   7
BRANCH   3   9
ATOM      9  O   UNL     1      35.919 -16.618 -23.327  0.00  0.00    -0.381 OA
ATOM     10  H   UNL     1      35.881 -17.044 -22.456  0.00  0.00    +0.210 HD
ENDBRANCH   3   9
BRANCH   5  11
ATOM     11  O   UNL     1      34.611 -17.201 -25.845  0.00  0.00    -0.378 OA
ATOM     12  H   UNL     1      34.989 -17.103 -26.732  0.00  0.00    +0.211 HD
ENDBRANCH   5  11
BRANCH   6  13
ATOM     13  O   UNL     1      33.424 -14.908 -27.021  0.00  0.00    -0.326 OA
ATOM     14  C   UNL     1      33.371 -13.515 -27.289  0.00  0.00    +0.177 C 
ENDBRANCH   6  13
BRANCH   4  15
ATOM     15  C   UNL     1      32.852 -12.742 -22.903  0.00  0.00    +0.168 C 
BRANCH  15  16
ATOM     16  O   UNL     1      31.583 -12.729 -22.274  0.00  0.00    -0.379 OA
ATOM     17  H   UNL     1      31.678 -12.414 -21.363  0.00  0.00    +0.211 HD
ENDBRANCH  15  16
ENDBRANCH   4  15
TORSDOF 6
ENDMDL
MODEL 2
REMARK VINA RESULT:      -5.8     12.542     14.626
REMARK  Name = 447600
REMARK  6 active torsions:
REMARK  status: ('A' for Active; 'I' for Inactive)
REMARK    1  A    between atoms: C_2  and  S_7
REMARK    2  A    between atoms: C_3  and  O_9
REMARK    3  A    between atoms: C_4  and  C_15
REMARK    4  A    between atoms: C_5  and  O_11
REMARK    5  A    between atoms: C_6  and  O_13
REMARK    6  A    between atoms: C_15  and  O_16
REMARK                            x       y       z     vdW  Elec       q    Type
REMARK                         _______ _______ _______ _____ _____    ______ ____
ROOT
ATOM      1  O   UNL     1      38.099 -23.872 -14.627  0.00  0.00    -0.328 OA
ATOM      2  C   UNL     1      35.702 -23.538 -14.410  0.00  0.00    +0.103 C 
ATOM      3  C   UNL     1      35.594 -24.846 -13.612  0.00  0.00    +0.154 C 
ATOM      4  C   UNL     1      36.906 -23.578 -15.368  0.00  0.00    +0.159 C 
ATOM      5  C   UNL     1      36.941 -25.224 -12.991  0.00  0.00    +0.195 C 
ATOM      6  C   UNL     1      38.069 -25.158 -14.016  0.00  0.00    +0.266 C 
ENDROOT
BRANCH   2   7
ATOM      7  S   UNL     1      34.134 -23.243 -15.314  0.00  0.00    -0.164 S 
ATOM      8  H   UNL     1      34.179 -23.876 -16.517  0.00  0.00    +0.102 HD
ENDBRANCH   2   7
BRANCH   3   9
ATOM      9  O   UNL     1      34.643 -24.680 -12.559  0.00  0.00    -0.381 OA
ATOM     10  H   UNL     1      33.909 -25.302 -12.684  0.00  0.00    +0.210 HD
ENDBRANCH   3   9
BRANCH   5  11
ATOM     11  O   UNL     1      36.856 -26.545 -12.458  0.00  0.00    -0.378 OA
ATOM     12  H   UNL     1      36.063 -26.983 -12.801  0.00  0.00    +0.211 HD
ENDBRANCH   5  11
BRANCH   6  13
ATOM     13  O   UNL     1      39.298 -25.398 -13.333  0.00  0.00    -0.326 OA
ATOM     14  C   UNL     1      40.326 -25.774 -14.237  0.00  0.00    +0.177 C 
ENDBRANCH   6  13
BRANCH   4  15
ATOM     15  C   UNL     1      37.164 -22.245 -16.069  0.00  0.00    +0.168 C 
BRANCH  15  16
ATOM     16  O   UNL     1      37.029 -22.440 -17.465  0.00  0.00    -0.379 OA
ATOM     17  H   UNL     1      37.422 -23.291 -17.712  0.00  0.00    +0.211 HD
ENDBRANCH  15  16
ENDBRANCH   4  15
TORSDOF 6
ENDMDL
MODEL 3
REMARK VINA RESULT:      -5.7      2.095      3.470
REMARK  Name = 447600
REMARK  6 active torsions:
REMARK  status: ('A' for Active; 'I' for Inactive)
REMARK    1  A    between atoms: C_2  and  S_7
REMARK    2  A    between atoms: C_3  and  O_9
REMARK    3  A    between atoms: C_4  and  C_15
REMARK    4  A    between atoms: C_5  and  O_11
REMARK    5  A    between atoms: C_6  and  O_13
REMARK    6  A    between atoms: C_15  and  O_16
REMARK                            x       y       z     vdW  Elec       q    Type
REMARK                         _______ _______ _______ _____ _____    ______ ____
ROOT
ATOM      1  O   UNL     1      33.904 -14.908 -22.270  0.00  0.00    -0.328 OA
ATOM      2  C   UNL     1      34.853 -16.792 -23.476  0.00  0.00    +0.103 C 
ATOM      3  C   UNL     1      34.070 -16.380 -24.731  0.00  0.00    +0.154 C 
ATOM      4  C   UNL     1      34.130 -16.323 -22.200  0.00  0.00    +0.159 C 
ATOM      5  C   UNL     1      33.682 -14.900 -24.677  0.00  0.00    +0.195 C 
ATOM      6  C   UNL     1      33.041 -14.537 -23.341  0.00  0.00    +0.266 C 
ENDROOT
BRANCH   2   7
ATOM      7  S   UNL     1      35.101 -18.609 -23.478  0.00  0.00    -0.164 S 
ATOM      8  H   UNL     1      36.366 -18.893 -23.070  0.00  0.00    +0.102 HD
ENDBRANCH   2   7
BRANCH   3   9
ATOM      9  O   UNL     1      34.884 -16.591 -25.887  0.00  0.00    -0.381 OA
ATOM     10  H   UNL     1      34.325 -16.594 -26.680  0.00  0.00    +0.210 HD
ENDBRANCH   3   9
BRANCH   5  11
ATOM     11  O   UNL     1      32.770 -14.616 -25.738  0.00  0.00    -0.378 OA
ATOM     12  H   UNL     1      32.512 -13.682 -25.702  0.00  0.00    +0.211 HD
ENDBRANCH   5  11
BRANCH   6  13
ATOM     13  O   UNL     1      32.829 -13.126 -23.325  0.00  0.00    -0.326 OA
ATOM     14  C   UNL     1      32.141 -12.722 -22.151  0.00  0.00    +0.177 C 
ENDBRANCH   6  13
BRANCH   4  15
ATOM     15  C   UNL     1      34.941 -16.557 -20.926  0.00  0.00    +0.168 C 
BRANCH  15  16
ATOM     16  O   UNL     1      34.884 -15.384 -20.137  0.00  0.00    -0.379 OA
ATOM     17  H   UNL     1      33.963 -15.094 -20.054  0.00  0.00    +0.211 HD
ENDBRANCH  15  16
ENDBRANCH   4  15
TORSDOF 6
ENDMDL
MODEL 4
REMARK VINA RESULT:      -5.7     12.700     14.834
REMARK  Name = 447600
REMARK  6 active torsions:
REMARK  status: ('A' for Active; 'I' for Inactive)
REMARK    1  A    between atoms: C_2  and  S_7
REMARK    2  A    between atoms: C_3  and  O_9
REMARK    3  A    between atoms: C_4  and  C_15
REMARK    4  A    between atoms: C_5  and  O_11
REMARK    5  A    between atoms: C_6  and  O_13
REMARK    6  A    between atoms: C_15  and  O_16
REMARK                            x       y       z     vdW  Elec       q    Type
REMARK                         _______ _______ _______ _____ _____    ______ ____
ROOT
ATOM      1  O   UNL     1      37.243 -23.823 -13.733  0.00  0.00    -0.328 OA
ATOM      2  C   UNL     1      35.025 -23.323 -14.592  0.00  0.00    +0.103 C 
ATOM      3  C   UNL     1      34.401 -24.117 -13.435  0.00  0.00    +0.154 C 
ATOM      4  C   UNL     1      36.436 -23.848 -14.918  0.00  0.00    +0.159 C 
ATOM      5  C   UNL     1      35.373 -24.229 -12.257  0.00  0.00    +0.195 C 
ATOM      6  C   UNL     1      36.755 -24.687 -12.712  0.00  0.00    +0.266 C 
ENDROOT
BRANCH   2   7
ATOM      7  S   UNL     1      33.923 -23.405 -16.055  0.00  0.00    -0.164 S 
ATOM      8  H   UNL     1      33.742 -22.154 -16.555  0.00  0.00    +0.102 HD
ENDBRANCH   2   7
BRANCH   3   9
ATOM      9  O   UNL     1      33.222 -23.448 -12.984  0.00  0.00    -0.381 OA
ATOM     10  H   UNL     1      32.938 -22.807 -13.655  0.00  0.00    +0.210 HD
ENDBRANCH   3   9
BRANCH   5  11
ATOM     11  O   UNL     1      34.850 -25.157 -11.306  0.00  0.00    -0.378 OA
ATOM     12  H   UNL     1      33.883 -25.102 -11.297  0.00  0.00    +0.211 HD
ENDBRANCH   5  11
BRANCH   6  13
ATOM     13  O   UNL     1      37.626 -24.642 -11.583  0.00  0.00    -0.326 OA
ATOM     14  C   UNL     1      38.651 -23.676 -11.761  0.00  0.00    +0.177 C 
ENDBRANCH   6  13
BRANCH   4  15
ATOM     15  C   UNL     1      37.173 -22.994 -15.949  0.00  0.00    +0.168 C 
BRANCH  15  16
ATOM     16  O   UNL     1      38.543 -23.348 -15.926  0.00  0.00    -0.379 OA
ATOM     17  H   UNL     1      38.838 -23.441 -15.007  0.00  0.00    +0.211 HD
ENDBRANCH  15  16
ENDBRANCH   4  15
TORSDOF 6
ENDMDL
MODEL 5
REMARK VINA RESULT:      -5.7      2.123      3.575
REMARK  Name = 447600
REMARK  6 active torsions:
REMARK  status: ('A' for Active; 'I' for Inactive)
REMARK    1  A    between atoms: C_2  and  S_7
REMARK    2  A    between atoms: C_3  and  O_9
REMARK    3  A    between atoms: C_4  and  C_15
REMARK    4  A    between atoms: C_5  and  O_11
REMARK    5  A    between atoms: C_6  and  O_13
REMARK    6  A    between atoms: C_15  and  O_16
REMARK                            x       y       z     vdW  Elec       q    Type
REMARK                         _______ _______ _______ _____ _____    ______ ____
ROOT
ATOM      1  O   UNL     1      34.069 -14.696 -22.671  0.00  0.00    -0.328 OA
ATOM      2  C   UNL     1      33.303 -14.829 -24.973  0.00  0.00    +0.103 C 
ATOM      3  C   UNL     1      34.169 -16.079 -25.186  0.00  0.00    +0.154 C 
ATOM      4  C   UNL     1      33.897 -13.932 -23.872  0.00  0.00    +0.159 C 
ATOM      5  C   UNL     1      34.488 -16.762 -23.854  0.00  0.00    +0.195 C 
ATOM      6  C   UNL     1      35.001 -15.763 -22.821  0.00  0.00    +0.266 C 
ENDROOT
BRANCH   2   7
ATOM      7  S   UNL     1      33.133 -13.925 -26.558  0.00  0.00    -0.164 S 
ATOM      8  H   UNL     1      34.137 -14.291 -27.398  0.00  0.00    +0.102 HD
ENDBRANCH   2   7
BRANCH   3   9
ATOM      9  O   UNL     1      33.463 -17.008 -26.011  0.00  0.00    -0.381 OA
ATOM     10  H   UNL     1      33.122 -16.551 -26.796  0.00  0.00    +0.210 HD
ENDBRANCH   3   9
BRANCH   5  11
ATOM     11  O   UNL     1      35.472 -17.774 -24.070  0.00  0.00    -0.378 OA
ATOM     12  H   UNL     1      35.525 -17.977 -25.016  0.00  0.00    +0.211 HD
ENDBRANCH   5  11
BRANCH   6  13
ATOM     13  O   UNL     1      35.152 -16.452 -21.581  0.00  0.00    -0.326 OA
ATOM     14  C   UNL     1      34.573 -15.720 -20.511  0.00  0.00    +0.177 C 
ENDBRANCH   6  13
BRANCH   4  15
ATOM     15  C   UNL     1      32.995 -12.757 -23.498  0.00  0.00    +0.168 C 
BRANCH  15  16
ATOM     16  O   UNL     1      31.880 -13.257 -22.785  0.00  0.00    -0.379 OA
ATOM     17  H   UNL     1      32.187 -13.748 -22.007  0.00  0.00    +0.211 HD
ENDBRANCH  15  16
ENDBRANCH   4  15
TORSDOF 6
ENDMDL
MODEL 6
REMARK VINA RESULT:      -5.7      2.077      3.794
REMARK  Name = 447600
REMARK  6 active torsions:
REMARK  status: ('A' for Active; 'I' for Inactive)
REMARK    1  A    between atoms: C_2  and  S_7
REMARK    2  A    between atoms: C_3  and  O_9
REMARK    3  A    between atoms: C_4  and  C_15
REMARK    4  A    between atoms: C_5  and  O_11
REMARK    5  A    between atoms: C_6  and  O_13
REMARK    6  A    between atoms: C_15  and  O_16
REMARK                            x       y       z     vdW  Elec       q    Type
REMARK                         _______ _______ _______ _____ _____    ______ ____
ROOT
ATOM      1  O   UNL     1      34.741 -16.738 -22.355  0.00  0.00    -0.328 OA
ATOM      2  C   UNL     1      33.561 -14.854 -23.337  0.00  0.00    +0.103 C 
ATOM      3  C   UNL     1      33.954 -15.342 -24.739  0.00  0.00    +0.154 C 
ATOM      4  C   UNL     1      34.590 -15.313 -22.288  0.00  0.00    +0.159 C 
ATOM      5  C   UNL     1      34.291 -16.835 -24.727  0.00  0.00    +0.195 C 
ATOM      6  C   UNL     1      35.262 -17.182 -23.603  0.00  0.00    +0.266 C 
ENDROOT
BRANCH   2   7
ATOM      7  S   UNL     1      33.384 -13.029 -23.351  0.00  0.00    -0.164 S 
ATOM      8  H   UNL     1      32.632 -12.656 -24.421  0.00  0.00    +0.102 HD
ENDBRANCH   2   7
BRANCH   3   9
ATOM      9  O   UNL     1      32.862 -15.133 -25.636  0.00  0.00    -0.381 OA
ATOM     10  H   UNL     1      32.610 -14.196 -25.628  0.00  0.00    +0.210 HD
ENDBRANCH   3   9
BRANCH   5  11
ATOM     11  O   UNL     1      34.866 -17.195 -25.984  0.00  0.00    -0.378 OA
ATOM     12  H   UNL     1      35.809 -17.386 -25.866  0.00  0.00    +0.211 HD
ENDBRANCH   5  11
BRANCH   6  13
ATOM     13  O   UNL     1      35.422 -18.600 -23.583  0.00  0.00    -0.326 OA
ATOM     14  C   UNL     1      34.608 -19.197 -22.585  0.00  0.00    +0.177 C 
ENDBRANCH   6  13
BRANCH   4  15
ATOM     15  C   UNL     1      34.170 -15.000 -20.853  0.00  0.00    +0.168 C 
BRANCH  15  16
ATOM     16  O   UNL     1      34.929 -15.812 -19.976  0.00  0.00    -0.379 OA
ATOM     17  H   UNL     1      35.854 -15.520 -19.985  0.00  0.00    +0.211 HD
ENDBRANCH  15  16
ENDBRANCH   4  15
TORSDOF 6
ENDMDL
MODEL 7
REMARK VINA RESULT:      -5.7     12.265     14.104
REMARK  Name = 447600
REMARK  6 active torsions:
REMARK  status: ('A' for Active; 'I' for Inactive)
REMARK    1  A    between atoms: C_2  and  S_7
REMARK    2  A    between atoms: C_3  and  O_9
REMARK    3  A    between atoms: C_4  and  C_15
REMARK    4  A    between atoms: C_5  and  O_11
REMARK    5  A    between atoms: C_6  and  O_13
REMARK    6  A    between atoms: C_15  and  O_16
REMARK                            x       y       z     vdW  Elec       q    Type
REMARK                         _______ _______ _______ _____ _____    ______ ____
ROOT
ATOM      1  O   UNL     1      35.742 -24.252 -15.500  0.00  0.00    -0.328 OA
ATOM      2  C   UNL     1      36.509 -24.702 -13.238  0.00  0.00    +0.103 C 
ATOM      3  C   UNL     1      35.187 -24.150 -12.683  0.00  0.00    +0.154 C 
ATOM      4  C   UNL     1      36.841 -24.062 -14.598  0.00  0.00    +0.159 C 
ATOM      5  C   UNL     1      34.083 -24.197 -13.743  0.00  0.00    +0.195 C 
ATOM      6  C   UNL     1      34.551 -23.601 -15.067  0.00  0.00    +0.266 C 
ENDROOT
BRANCH   2   7
ATOM      7  S   UNL     1      37.849 -24.422 -12.018  0.00  0.00    -0.164 S 
ATOM      8  H   UNL     1      38.415 -25.613 -11.688  0.00  0.00    +0.102 HD
ENDBRANCH   2   7
BRANCH   3   9
ATOM      9  O   UNL     1      34.775 -24.943 -11.568  0.00  0.00    -0.381 OA
ATOM     10  H   UNL     1      35.295 -25.762 -11.543  0.00  0.00    +0.210 HD
ENDBRANCH   3   9
BRANCH   5  11
ATOM     11  O   UNL     1      32.948 -23.473 -13.268  0.00  0.00    -0.378 OA
ATOM     12  H   UNL     1      33.140 -22.523 -13.280  0.00  0.00    +0.211 HD
ENDBRANCH   5  11
BRANCH   6  13
ATOM     13  O   UNL     1      33.516 -23.799 -16.028  0.00  0.00    -0.326 OA
ATOM     14  C   UNL     1      33.800 -23.117 -17.240  0.00  0.00    +0.177 C 
ENDBRANCH   6  13
BRANCH   4  15
ATOM     15  C   UNL     1      38.058 -24.689 -15.279  0.00  0.00    +0.168 C 
BRANCH  15  16
ATOM     16  O   UNL     1      38.882 -23.649 -15.771  0.00  0.00    -0.379 OA
ATOM     17  H   UNL     1      38.331 -22.977 -16.202  0.00  0.00    +0.211 HD
ENDBRANCH  15  16
ENDBRANCH   4  15
TORSDOF 6
ENDMDL
MODEL 8
REMARK VINA RESULT:      -5.6     11.186     13.091
REMARK  Name = 447600
REMARK  6 active torsions:
REMARK  status: ('A' for Active; 'I' for Inactive)
REMARK    1  A    between atoms: C_2  and  S_7
REMARK    2  A    between atoms: C_3  and  O_9
REMARK    3  A    between atoms: C_4  and  C_15
REMARK    4  A    between atoms: C_5  and  O_11
REMARK    5  A    between atoms: C_6  and  O_13
REMARK    6  A    between atoms: C_15  and  O_16
REMARK                            x       y       z     vdW  Elec       q    Type
REMARK                         _______ _______ _______ _____ _____    ______ ____
ROOT
ATOM      1  O   UNL     1      35.033 -23.655 -16.376  0.00  0.00    -0.328 OA
ATOM      2  C   UNL     1      32.846 -23.159 -15.441  0.00  0.00    +0.103 C 
ATOM      3  C   UNL     1      33.218 -23.931 -14.167  0.00  0.00    +0.154 C 
ATOM      4  C   UNL     1      33.626 -23.695 -16.654  0.00  0.00    +0.159 C 
ATOM      5  C   UNL     1      34.737 -24.029 -14.006  0.00  0.00    +0.195 C 
ATOM      6  C   UNL     1      35.407 -24.501 -15.292  0.00  0.00    +0.266 C 
ENDROOT
BRANCH   2   7
ATOM      7  S   UNL     1      31.035 -23.258 -15.709  0.00  0.00    -0.164 S 
ATOM      8  H   UNL     1      30.788 -23.815 -16.925  0.00  0.00    +0.102 HD
ENDBRANCH   2   7
BRANCH   3   9
ATOM      9  O   UNL     1      32.687 -23.250 -13.028  0.00  0.00    -0.381 OA
ATOM     10  H   UNL     1      31.798 -23.586 -12.834  0.00  0.00    +0.210 HD
ENDBRANCH   3   9
BRANCH   5  11
ATOM     11  O   UNL     1      35.039 -24.939 -12.948  0.00  0.00    -0.378 OA
ATOM     12  H   UNL     1      35.765 -25.521 -13.218  0.00  0.00    +0.211 HD
ENDBRANCH   5  11
BRANCH   6  13
ATOM     13  O   UNL     1      36.820 -24.442 -15.099  0.00  0.00    -0.326 OA
ATOM     14  C   UNL     1      37.321 -23.138 -15.352  0.00  0.00    +0.177 C 
ENDBRANCH   6  13
BRANCH   4  15
ATOM     15  C   UNL     1      33.424 -22.861 -17.919  0.00  0.00    +0.168 C 
BRANCH  15  16
ATOM     16  O   UNL     1      33.834 -23.631 -19.033  0.00  0.00    -0.379 OA
ATOM     17  H   UNL     1      33.191 -23.527 -19.752  0.00  0.00    +0.211 HD
ENDBRANCH  15  16
ENDBRANCH   4  15
TORSDOF 6
ENDMDL
MODEL 9
REMARK VINA RESULT:      -5.6     11.885     13.324
REMARK  Name = 447600
REMARK  6 active torsions:
REMARK  status: ('A' for Active; 'I' for Inactive)
REMARK    1  A    between atoms: C_2  and  S_7
REMARK    2  A    between atoms: C_3  and  O_9
REMARK    3  A    between atoms: C_4  and  C_15
REMARK    4  A    between atoms: C_5  and  O_11
REMARK    5  A    between atoms: C_6  and  O_13
REMARK    6  A    between atoms: C_15  and  O_16
REMARK                            x       y       z     vdW  Elec       q    Type
REMARK                         _______ _______ _______ _____ _____    ______ ____
ROOT
ATOM      1  O   UNL     1      31.350 -23.936 -16.292  0.00  0.00    -0.328 OA
ATOM      2  C   UNL     1      33.480 -23.941 -15.122  0.00  0.00    +0.103 C 
ATOM      3  C   UNL     1      32.742 -24.098 -13.784  0.00  0.00    +0.154 C 
ATOM      4  C   UNL     1      32.591 -23.229 -16.158  0.00  0.00    +0.159 C 
ATOM      5  C   UNL     1      31.343 -24.684 -13.993  0.00  0.00    +0.195 C 
ATOM      6  C   UNL     1      30.584 -23.944 -15.091  0.00  0.00    +0.266 C 
ENDROOT
BRANCH   2   7
ATOM      7  S   UNL     1      35.052 -23.037 -14.851  0.00  0.00    -0.164 S 
ATOM      8  H   UNL     1      36.099 -23.860 -15.120  0.00  0.00    +0.102 HD
ENDBRANCH   2   7
BRANCH   3   9
ATOM      9  O   UNL     1      33.479 -24.984 -12.939  0.00  0.00    -0.381 OA
ATOM     10  H   UNL     1      32.956 -25.785 -12.775  0.00  0.00    +0.210 HD
ENDBRANCH   3   9
BRANCH   5  11
ATOM     11  O   UNL     1      30.613 -24.601 -12.769  0.00  0.00    -0.378 OA
ATOM     12  H   UNL     1      29.759 -25.048 -12.869  0.00  0.00    +0.211 HD
ENDBRANCH   5  11
BRANCH   6  13
ATOM     13  O   UNL     1      29.351 -24.627 -15.309  0.00  0.00    -0.326 OA
ATOM     14  C   UNL     1      28.586 -23.999 -16.326  0.00  0.00    +0.177 C 
ENDBRANCH   6  13
BRANCH   4  15
ATOM     15  C   UNL     1      33.206 -23.189 -17.556  0.00  0.00    +0.168 C 
BRANCH  15  16
ATOM     16  O   UNL     1      32.402 -22.363 -18.376  0.00  0.00    -0.379 OA
ATOM     17  H   UNL     1      32.647 -22.493 -19.305  0.00  0.00    +0.211 HD
ENDBRANCH  15  16
ENDBRANCH   4  15
TORSDOF 6
ENDMDL
