MODEL 1
REMARK VINA RESULT:     -11.1      0.000      0.000
REMARK  Name = 4823
REMARK  3 active torsions:
REMARK  status: ('A' for Active; 'I' for Inactive)
REMARK    1  A    between atoms: C_3  and  C_16
REMARK    2  A    between atoms: C_9  and  C_21
REMARK    3  A    between atoms: C_26  and  O_27
REMARK                            x       y       z     vdW  Elec       q    Type
REMARK                         _______ _______ _______ _____ _____    ______ ____
ROOT
ATOM      1  N   UNL     1      35.682 -19.945 -20.664  0.00  0.00    -0.315 N 
ATOM      2  N   UNL     1      33.520 -20.352 -20.971  0.00  0.00    -0.315 N 
ATOM      3  C   UNL     1      35.365 -22.291 -17.805  0.00  0.00    +0.016 C 
ATOM      4  C   UNL     1      35.333 -20.828 -19.676  0.00  0.00    +0.059 C 
ATOM      5  C   UNL     1      36.063 -21.421 -18.645  0.00  0.00    +0.017 C 
ATOM      6  C   UNL     1      33.978 -21.068 -19.888  0.00  0.00    +0.059 C 
ATOM      7  C   UNL     1      34.009 -22.554 -17.989  0.00  0.00    +0.003 C 
ATOM      8  C   UNL     1      33.296 -21.947 -19.031  0.00  0.00    +0.016 C 
ATOM      9  C   UNL     1      34.566 -19.692 -21.411  0.00  0.00    +0.168 C 
ATOM     10  H   UNL     1      36.578 -19.562 -20.810  0.00  0.00    +0.149 HD
ATOM     11  H   UNL     1      32.605 -20.340 -21.336  0.00  0.00    +0.149 HD
ENDROOT
BRANCH   3  16
ATOM     12  O   UNL     1      38.239 -25.031 -13.977  0.00  0.00    -0.273 OA
ATOM     13  N   UNL     1      37.376 -22.771 -16.568  0.00  0.00    -0.184 NA
ATOM     14  N   UNL     1      38.050 -23.406 -15.582  0.00  0.00    -0.206 N 
ATOM     15  C   UNL     1      35.321 -23.811 -15.680  0.00  0.00    +0.051 C 
ATOM     16  C   UNL     1      36.095 -22.961 -16.679  0.00  0.00    +0.076 C 
ATOM     17  C   UNL     1      36.211 -24.962 -15.240  0.00  0.00    +0.093 C 
ATOM     18  C   UNL     1      34.876 -22.955 -14.492  0.00  0.00    +0.007 C 
ATOM     19  C   UNL     1      37.577 -24.469 -14.849  0.00  0.00    +0.241 C 
ATOM     20  H   UNL     1      38.955 -23.079 -15.372  0.00  0.00    +0.177 HD
ENDBRANCH   3  16
BRANCH   9  21
ATOM     21  C   UNL     1      34.590 -18.796 -22.542  0.00  0.00    +0.015 C 
ATOM     22  C   UNL     1      34.696 -17.421 -22.340  0.00  0.00    +0.002 C 
ATOM     23  C   UNL     1      34.505 -19.306 -23.838  0.00  0.00    +0.002 C 
ATOM     24  C   UNL     1      34.720 -16.554 -23.433  0.00  0.00    +0.037 C 
ATOM     25  C   UNL     1      34.528 -18.440 -24.931  0.00  0.00    +0.037 C 
ATOM     26  C   UNL     1      34.636 -17.064 -24.728  0.00  0.00    +0.139 C 
BRANCH  26  27
ATOM     27  O   UNL     1      34.659 -16.219 -25.795  0.00  0.00    -0.471 OA
ATOM     28  C   UNL     1      33.570 -15.305 -25.923  0.00  0.00    +0.252 C 
ENDBRANCH  26  27
ENDBRANCH   9  21
TORSDOF 3
ENDMDL
MODEL 2
REMARK VINA RESULT:     -10.8      1.392      1.872
REMARK  Name = 4823
REMARK  3 active torsions:
REMARK  status: ('A' for Active; 'I' for Inactive)
REMARK    1  A    between atoms: C_3  and  C_16
REMARK    2  A    between atoms: C_9  and  C_21
REMARK    3  A    between atoms: C_26  and  O_27
REMARK                            x       y       z     vdW  Elec       q    Type
REMARK                         _______ _______ _______ _____ _____    ______ ____
ROOT
ATOM      1  N   UNL     1      35.602 -20.479 -19.802  0.00  0.00    -0.315 N 
ATOM      2  N   UNL     1      33.449 -20.776 -20.263  0.00  0.00    -0.315 N 
ATOM      3  C   UNL     1      34.999 -22.923 -17.074  0.00  0.00    +0.016 C 
ATOM      4  C   UNL     1      35.152 -21.385 -18.877  0.00  0.00    +0.059 C 
ATOM      5  C   UNL     1      35.787 -22.051 -17.829  0.00  0.00    +0.017 C 
ATOM      6  C   UNL     1      33.805 -21.554 -19.186  0.00  0.00    +0.059 C 
ATOM      7  C   UNL     1      33.648 -23.117 -17.356  0.00  0.00    +0.003 C 
ATOM      8  C   UNL     1      33.031 -22.437 -18.414  0.00  0.00    +0.016 C 
ATOM      9  C   UNL     1      34.549 -20.145 -20.607  0.00  0.00    +0.168 C 
ATOM     10  H   UNL     1      36.521 -20.130 -19.873  0.00  0.00    +0.149 HD
ATOM     11  H   UNL     1      32.562 -20.707 -20.685  0.00  0.00    +0.149 HD
ENDROOT
BRANCH   3  16
ATOM     12  O   UNL     1      36.899 -25.628 -12.659  0.00  0.00    -0.273 OA
ATOM     13  N   UNL     1      35.240 -24.889 -15.703  0.00  0.00    -0.184 NA
ATOM     14  N   UNL     1      35.766 -25.556 -14.651  0.00  0.00    -0.206 N 
ATOM     15  C   UNL     1      36.712 -23.002 -15.102  0.00  0.00    +0.051 C 
ATOM     16  C   UNL     1      35.625 -23.670 -15.934  0.00  0.00    +0.076 C 
ATOM     17  C   UNL     1      36.581 -23.485 -13.667  0.00  0.00    +0.093 C 
ATOM     18  C   UNL     1      38.091 -23.321 -15.682  0.00  0.00    +0.007 C 
ATOM     19  C   UNL     1      36.460 -24.983 -13.610  0.00  0.00    +0.241 C 
ATOM     20  H   UNL     1      35.642 -26.532 -14.627  0.00  0.00    +0.177 HD
ENDBRANCH   3  16
BRANCH   9  21
ATOM     21  C   UNL     1      34.685 -19.206 -21.694  0.00  0.00    +0.015 C 
ATOM     22  C   UNL     1      34.749 -19.666 -23.008  0.00  0.00    +0.002 C 
ATOM     23  C   UNL     1      34.755 -17.838 -21.429  0.00  0.00    +0.002 C 
ATOM     24  C   UNL     1      34.880 -18.757 -24.060  0.00  0.00    +0.037 C 
ATOM     25  C   UNL     1      34.886 -16.930 -22.479  0.00  0.00    +0.037 C 
ATOM     26  C   UNL     1      34.948 -17.390 -23.795  0.00  0.00    +0.139 C 
BRANCH  26  27
ATOM     27  O   UNL     1      35.077 -16.504 -24.820  0.00  0.00    -0.471 OA
ATOM     28  C   UNL     1      33.873 -15.983 -25.383  0.00  0.00    +0.252 C 
ENDBRANCH  26  27
ENDBRANCH   9  21
TORSDOF 3
ENDMDL
MODEL 3
REMARK VINA RESULT:     -10.6      2.278      3.043
REMARK  Name = 4823
REMARK  3 active torsions:
REMARK  status: ('A' for Active; 'I' for Inactive)
REMARK    1  A    between atoms: C_3  and  C_16
REMARK    2  A    between atoms: C_9  and  C_21
REMARK    3  A    between atoms: C_26  and  O_27
REMARK                            x       y       z     vdW  Elec       q    Type
REMARK                         _______ _______ _______ _____ _____    ______ ____
ROOT
ATOM      1  N   UNL     1      33.683 -20.169 -20.828  0.00  0.00    -0.315 N 
ATOM      2  N   UNL     1      35.903 -20.111 -20.884  0.00  0.00    -0.315 N 
ATOM      3  C   UNL     1      34.158 -22.343 -17.858  0.00  0.00    +0.016 C 
ATOM      4  C   UNL     1      34.094 -20.940 -19.773  0.00  0.00    +0.059 C 
ATOM      5  C   UNL     1      33.393 -21.656 -18.803  0.00  0.00    +0.017 C 
ATOM      6  C   UNL     1      35.485 -20.888 -19.828  0.00  0.00    +0.059 C 
ATOM      7  C   UNL     1      35.551 -22.314 -17.884  0.00  0.00    +0.003 C 
ATOM      8  C   UNL     1      36.235 -21.587 -18.867  0.00  0.00    +0.016 C 
ATOM      9  C   UNL     1      34.799 -19.697 -21.461  0.00  0.00    +0.168 C 
ATOM     10  H   UNL     1      32.749 -19.988 -21.085  0.00  0.00    +0.149 HD
ATOM     11  H   UNL     1      36.830 -19.910 -21.148  0.00  0.00    +0.149 HD
ENDROOT
BRANCH   3  16
ATOM     12  O   UNL     1      31.322 -24.876 -13.862  0.00  0.00    -0.273 OA
ATOM     13  N   UNL     1      32.261 -23.570 -17.021  0.00  0.00    -0.184 NA
ATOM     14  N   UNL     1      31.608 -24.244 -16.047  0.00  0.00    -0.206 N 
ATOM     15  C   UNL     1      34.182 -23.426 -15.479  0.00  0.00    +0.051 C 
ATOM     16  C   UNL     1      33.461 -23.131 -16.788  0.00  0.00    +0.076 C 
ATOM     17  C   UNL     1      33.157 -23.428 -14.358  0.00  0.00    +0.093 C 
ATOM     18  C   UNL     1      34.920 -24.763 -15.572  0.00  0.00    +0.007 C 
ATOM     19  C   UNL     1      31.963 -24.268 -14.719  0.00  0.00    +0.241 C 
ATOM     20  H   UNL     1      30.811 -24.759 -16.311  0.00  0.00    +0.177 HD
ENDBRANCH   3  16
BRANCH   9  21
ATOM     21  C   UNL     1      34.716 -18.844 -22.622  0.00  0.00    +0.015 C 
ATOM     22  C   UNL     1      34.630 -19.407 -23.895  0.00  0.00    +0.002 C 
ATOM     23  C   UNL     1      34.724 -17.457 -22.471  0.00  0.00    +0.002 C 
ATOM     24  C   UNL     1      34.550 -18.582 -25.018  0.00  0.00    +0.037 C 
ATOM     25  C   UNL     1      34.644 -16.633 -23.593  0.00  0.00    +0.037 C 
ATOM     26  C   UNL     1      34.557 -17.196 -24.867  0.00  0.00    +0.139 C 
BRANCH  26  27
ATOM     27  O   UNL     1      34.479 -16.392 -25.962  0.00  0.00    -0.471 OA
ATOM     28  C   UNL     1      33.433 -15.421 -25.983  0.00  0.00    +0.252 C 
ENDBRANCH  26  27
ENDBRANCH   9  21
TORSDOF 3
ENDMDL
MODEL 4
REMARK VINA RESULT:     -10.5      5.237     10.740
REMARK  Name = 4823
REMARK  3 active torsions:
REMARK  status: ('A' for Active; 'I' for Inactive)
REMARK    1  A    between atoms: C_3  and  C_16
REMARK    2  A    between atoms: C_9  and  C_21
REMARK    3  A    between atoms: C_26  and  O_27
REMARK                            x       y       z     vdW  Elec       q    Type
REMARK                         _______ _______ _______ _____ _____    ______ ____
ROOT
ATOM      1  N   UNL     1      33.411 -16.360 -20.915  0.00  0.00    -0.315 N 
ATOM      2  N   UNL     1      34.371 -16.976 -22.822  0.00  0.00    -0.315 N 
ATOM      3  C   UNL     1      33.018 -13.065 -22.579  0.00  0.00    +0.016 C 
ATOM      4  C   UNL     1      33.375 -15.249 -21.717  0.00  0.00    +0.059 C 
ATOM      5  C   UNL     1      32.881 -13.960 -21.516  0.00  0.00    +0.017 C 
ATOM      6  C   UNL     1      33.980 -15.659 -22.903  0.00  0.00    +0.059 C 
ATOM      7  C   UNL     1      33.619 -13.441 -23.779  0.00  0.00    +0.003 C 
ATOM      8  C   UNL     1      34.108 -14.742 -23.959  0.00  0.00    +0.016 C 
ATOM      9  C   UNL     1      34.015 -17.364 -21.618  0.00  0.00    +0.168 C 
ATOM     10  H   UNL     1      33.064 -16.422 -19.995  0.00  0.00    +0.149 HD
ATOM     11  H   UNL     1      34.820 -17.511 -23.516  0.00  0.00    +0.149 HD
ENDROOT
BRANCH   3  16
ATOM     12  O   UNL     1      31.571  -7.776 -21.986  0.00  0.00    -0.273 OA
ATOM     13  N   UNL     1      32.650 -10.836 -23.415  0.00  0.00    -0.184 NA
ATOM     14  N   UNL     1      32.230  -9.558 -23.268  0.00  0.00    -0.206 N 
ATOM     15  C   UNL     1      31.803 -11.257 -21.135  0.00  0.00    +0.051 C 
ATOM     16  C   UNL     1      32.505 -11.663 -22.424  0.00  0.00    +0.076 C 
ATOM     17  C   UNL     1      32.131  -9.801 -20.850  0.00  0.00    +0.093 C 
ATOM     18  C   UNL     1      30.295 -11.481 -21.263  0.00  0.00    +0.007 C 
ATOM     19  C   UNL     1      31.925  -8.951 -22.073  0.00  0.00    +0.241 C 
ATOM     20  H   UNL     1      32.136  -9.018 -24.086  0.00  0.00    +0.177 HD
ENDBRANCH   3  16
BRANCH   9  21
ATOM     21  C   UNL     1      34.211 -18.679 -21.057  0.00  0.00    +0.015 C 
ATOM     22  C   UNL     1      35.500 -19.196 -20.928  0.00  0.00    +0.002 C 
ATOM     23  C   UNL     1      33.112 -19.434 -20.647  0.00  0.00    +0.002 C 
ATOM     24  C   UNL     1      35.690 -20.467 -20.386  0.00  0.00    +0.037 C 
ATOM     25  C   UNL     1      33.302 -20.704 -20.105  0.00  0.00    +0.037 C 
ATOM     26  C   UNL     1      34.591 -21.221 -19.974  0.00  0.00    +0.139 C 
BRANCH  26  27
ATOM     27  O   UNL     1      34.776 -22.461 -19.445  0.00  0.00    -0.471 OA
ATOM     28  C   UNL     1      33.834 -22.898 -18.466  0.00  0.00    +0.252 C 
ENDBRANCH  26  27
ENDBRANCH   9  21
TORSDOF 3
ENDMDL
MODEL 5
REMARK VINA RESULT:     -10.5      3.295     10.167
REMARK  Name = 4823
REMARK  3 active torsions:
REMARK  status: ('A' for Active; 'I' for Inactive)
REMARK    1  A    between atoms: C_3  and  C_16
REMARK    2  A    between atoms: C_9  and  C_21
REMARK    3  A    between atoms: C_26  and  O_27
REMARK                            x       y       z     vdW  Elec       q    Type
REMARK                         _______ _______ _______ _____ _____    ______ ____
ROOT
ATOM      1  N   UNL     1      34.240 -18.226 -21.049  0.00  0.00    -0.315 N 
ATOM      2  N   UNL     1      34.851 -19.725 -22.572  0.00  0.00    -0.315 N 
ATOM      3  C   UNL     1      34.103 -15.876 -23.919  0.00  0.00    +0.016 C 
ATOM      4  C   UNL     1      34.258 -17.549 -22.241  0.00  0.00    +0.059 C 
ATOM      5  C   UNL     1      33.980 -16.223 -22.572  0.00  0.00    +0.017 C 
ATOM      6  C   UNL     1      34.641 -18.506 -23.177  0.00  0.00    +0.059 C 
ATOM      7  C   UNL     1      34.485 -16.809 -24.882  0.00  0.00    +0.003 C 
ATOM      8  C   UNL     1      34.760 -18.135 -24.526  0.00  0.00    +0.016 C 
ATOM      9  C   UNL     1      34.601 -19.520 -21.299  0.00  0.00    +0.168 C 
ATOM     10  H   UNL     1      34.009 -17.846 -20.170  0.00  0.00    +0.149 HD
ATOM     11  H   UNL     1      35.127 -20.567 -23.001  0.00  0.00    +0.149 HD
ENDROOT
BRANCH   3  16
ATOM     12  O   UNL     1      33.473 -10.674 -25.640  0.00  0.00    -0.273 OA
ATOM     13  N   UNL     1      33.643 -14.215 -25.602  0.00  0.00    -0.184 NA
ATOM     14  N   UNL     1      33.428 -12.939 -25.995  0.00  0.00    -0.206 N 
ATOM     15  C   UNL     1      33.702 -13.374 -23.282  0.00  0.00    +0.051 C 
ATOM     16  C   UNL     1      33.816 -14.464 -24.339  0.00  0.00    +0.076 C 
ATOM     17  C   UNL     1      34.243 -12.080 -23.869  0.00  0.00    +0.093 C 
ATOM     18  C   UNL     1      32.246 -13.224 -22.834  0.00  0.00    +0.007 C 
ATOM     19  C   UNL     1      33.661 -11.819 -25.230  0.00  0.00    +0.241 C 
ATOM     20  H   UNL     1      33.075 -12.799 -26.904  0.00  0.00    +0.177 HD
ENDBRANCH   3  16
BRANCH   9  21
ATOM     21  C   UNL     1      34.681 -20.507 -20.248  0.00  0.00    +0.015 C 
ATOM     22  C   UNL     1      35.919 -20.841 -19.699  0.00  0.00    +0.002 C 
ATOM     23  C   UNL     1      33.521 -21.129 -19.785  0.00  0.00    +0.002 C 
ATOM     24  C   UNL     1      35.996 -21.795 -18.684  0.00  0.00    +0.037 C 
ATOM     25  C   UNL     1      33.599 -22.082 -18.771  0.00  0.00    +0.037 C 
ATOM     26  C   UNL     1      34.837 -22.415 -18.220  0.00  0.00    +0.139 C 
BRANCH  26  27
ATOM     27  O   UNL     1      34.913 -23.346 -17.230  0.00  0.00    -0.471 OA
ATOM     28  C   UNL     1      33.846 -23.376 -16.283  0.00  0.00    +0.252 C 
ENDBRANCH  26  27
ENDBRANCH   9  21
TORSDOF 3
ENDMDL
MODEL 6
REMARK VINA RESULT:     -10.4      7.697     13.432
REMARK  Name = 4823
REMARK  3 active torsions:
REMARK  status: ('A' for Active; 'I' for Inactive)
REMARK    1  A    between atoms: C_3  and  C_16
REMARK    2  A    between atoms: C_9  and  C_21
REMARK    3  A    between atoms: C_26  and  O_27
REMARK                            x       y       z     vdW  Elec       q    Type
REMARK                         _______ _______ _______ _____ _____    ______ ____
ROOT
ATOM      1  N   UNL     1      33.375 -12.062 -23.913  0.00  0.00    -0.315 N 
ATOM      2  N   UNL     1      32.400 -13.002 -22.151  0.00  0.00    -0.315 N 
ATOM      3  C   UNL     1      32.074  -8.884 -22.503  0.00  0.00    +0.016 C 
ATOM      4  C   UNL     1      32.804 -11.029 -23.217  0.00  0.00    +0.059 C 
ATOM      5  C   UNL     1      32.763  -9.653 -23.444  0.00  0.00    +0.017 C 
ATOM      6  C   UNL     1      32.202 -11.641 -22.121  0.00  0.00    +0.059 C 
ATOM      7  C   UNL     1      31.459  -9.464 -21.394  0.00  0.00    +0.003 C 
ATOM      8  C   UNL     1      31.514 -10.848 -21.187  0.00  0.00    +0.016 C 
ATOM      9  C   UNL     1      33.107 -13.219 -23.237  0.00  0.00    +0.168 C 
ATOM     10  H   UNL     1      33.887 -11.984 -24.751  0.00  0.00    +0.149 HD
ATOM     11  H   UNL     1      32.082 -13.668 -21.500  0.00  0.00    +0.149 HD
ENDROOT
BRANCH   3  16
ATOM     12  O   UNL     1      31.343  -3.447 -23.073  0.00  0.00    -0.273 OA
ATOM     13  N   UNL     1      31.886  -6.644 -21.639  0.00  0.00    -0.184 NA
ATOM     14  N   UNL     1      31.770  -5.306 -21.800  0.00  0.00    -0.206 N 
ATOM     15  C   UNL     1      32.081  -6.811 -24.093  0.00  0.00    +0.051 C 
ATOM     16  C   UNL     1      31.996  -7.398 -22.691  0.00  0.00    +0.076 C 
ATOM     17  C   UNL     1      31.197  -5.576 -24.149  0.00  0.00    +0.093 C 
ATOM     18  C   UNL     1      33.534  -6.482 -24.441  0.00  0.00    +0.007 C 
ATOM     19  C   UNL     1      31.462  -4.669 -22.979  0.00  0.00    +0.241 C 
ATOM     20  H   UNL     1      31.919  -4.741 -21.007  0.00  0.00    +0.177 HD
ENDBRANCH   3  16
BRANCH   9  21
ATOM     21  C   UNL     1      33.571 -14.503 -23.706  0.00  0.00    +0.015 C 
ATOM     22  C   UNL     1      34.272 -15.347 -22.845  0.00  0.00    +0.002 C 
ATOM     23  C   UNL     1      33.319 -14.899 -25.020  0.00  0.00    +0.002 C 
ATOM     24  C   UNL     1      34.720 -16.588 -23.298  0.00  0.00    +0.037 C 
ATOM     25  C   UNL     1      33.768 -16.139 -25.472  0.00  0.00    +0.037 C 
ATOM     26  C   UNL     1      34.468 -16.984 -24.611  0.00  0.00    +0.139 C 
BRANCH  26  27
ATOM     27  O   UNL     1      34.906 -18.195 -25.052  0.00  0.00    -0.471 OA
ATOM     28  C   UNL     1      34.943 -19.259 -24.102  0.00  0.00    +0.252 C 
ENDBRANCH  26  27
ENDBRANCH   9  21
TORSDOF 3
ENDMDL
MODEL 7
REMARK VINA RESULT:     -10.3      4.609      7.218
REMARK  Name = 4823
REMARK  3 active torsions:
REMARK  status: ('A' for Active; 'I' for Inactive)
REMARK    1  A    between atoms: C_3  and  C_16
REMARK    2  A    between atoms: C_9  and  C_21
REMARK    3  A    between atoms: C_26  and  O_27
REMARK                            x       y       z     vdW  Elec       q    Type
REMARK                         _______ _______ _______ _____ _____    ______ ____
ROOT
ATOM      1  N   UNL     1      33.607 -13.925 -21.982  0.00  0.00    -0.315 N 
ATOM      2  N   UNL     1      33.818 -13.975 -24.193  0.00  0.00    -0.315 N 
ATOM      3  C   UNL     1      34.813 -17.432 -22.132  0.00  0.00    +0.016 C 
ATOM      4  C   UNL     1      34.061 -15.184 -22.276  0.00  0.00    +0.059 C 
ATOM      5  C   UNL     1      34.365 -16.284 -21.475  0.00  0.00    +0.017 C 
ATOM      6  C   UNL     1      34.185 -15.191 -23.663  0.00  0.00    +0.059 C 
ATOM      7  C   UNL     1      34.949 -17.474 -23.519  0.00  0.00    +0.003 C 
ATOM      8  C   UNL     1      34.638 -16.357 -24.304  0.00  0.00    +0.016 C 
ATOM      9  C   UNL     1      33.477 -13.241 -23.158  0.00  0.00    +0.168 C 
ATOM     10  H   UNL     1      33.408 -13.575 -21.082  0.00  0.00    +0.149 HD
ATOM     11  H   UNL     1      33.812 -13.713 -25.142  0.00  0.00    +0.149 HD
ENDROOT
BRANCH   3  16
ATOM     12  O   UNL     1      36.438 -21.966 -19.444  0.00  0.00    -0.273 OA
ATOM     13  N   UNL     1      36.201 -18.607 -20.552  0.00  0.00    -0.184 NA
ATOM     14  N   UNL     1      36.545 -19.713 -19.854  0.00  0.00    -0.206 N 
ATOM     15  C   UNL     1      34.265 -19.880 -21.401  0.00  0.00    +0.051 C 
ATOM     16  C   UNL     1      35.157 -18.649 -21.325  0.00  0.00    +0.076 C 
ATOM     17  C   UNL     1      35.140 -21.115 -21.261  0.00  0.00    +0.093 C 
ATOM     18  C   UNL     1      33.192 -19.822 -20.312  0.00  0.00    +0.007 C 
ATOM     19  C   UNL     1      36.076 -20.984 -20.092  0.00  0.00    +0.241 C 
ATOM     20  H   UNL     1      37.185 -19.599 -19.114  0.00  0.00    +0.177 HD
ENDBRANCH   3  16
BRANCH   9  21
ATOM     21  C   UNL     1      33.017 -11.874 -23.202  0.00  0.00    +0.015 C 
ATOM     22  C   UNL     1      31.905 -11.489 -22.455  0.00  0.00    +0.002 C 
ATOM     23  C   UNL     1      33.685 -10.938 -23.993  0.00  0.00    +0.002 C 
ATOM     24  C   UNL     1      31.460 -10.167 -22.497  0.00  0.00    +0.037 C 
ATOM     25  C   UNL     1      33.241  -9.617 -24.034  0.00  0.00    +0.037 C 
ATOM     26  C   UNL     1      32.128  -9.232 -23.286  0.00  0.00    +0.139 C 
BRANCH  26  27
ATOM     27  O   UNL     1      31.694  -7.943 -23.327  0.00  0.00    -0.471 OA
ATOM     28  C   UNL     1      31.630  -7.239 -22.087  0.00  0.00    +0.252 C 
ENDBRANCH  26  27
ENDBRANCH   9  21
TORSDOF 3
ENDMDL
MODEL 8
REMARK VINA RESULT:     -10.3      3.701      5.754
REMARK  Name = 4823
REMARK  3 active torsions:
REMARK  status: ('A' for Active; 'I' for Inactive)
REMARK    1  A    between atoms: C_3  and  C_16
REMARK    2  A    between atoms: C_9  and  C_21
REMARK    3  A    between atoms: C_26  and  O_27
REMARK                            x       y       z     vdW  Elec       q    Type
REMARK                         _______ _______ _______ _____ _____    ______ ____
ROOT
ATOM      1  N   UNL     1      33.205 -15.718 -21.516  0.00  0.00    -0.315 N 
ATOM      2  N   UNL     1      34.569 -15.638 -23.268  0.00  0.00    -0.315 N 
ATOM      3  C   UNL     1      34.398 -19.217 -21.184  0.00  0.00    +0.016 C 
ATOM      4  C   UNL     1      33.779 -16.960 -21.589  0.00  0.00    +0.059 C 
ATOM      5  C   UNL     1      33.636 -18.108 -20.809  0.00  0.00    +0.017 C 
ATOM      6  C   UNL     1      34.628 -16.885 -22.690  0.00  0.00    +0.059 C 
ATOM      7  C   UNL     1      35.257 -19.177 -22.281  0.00  0.00    +0.003 C 
ATOM      8  C   UNL     1      35.385 -18.013 -23.049  0.00  0.00    +0.016 C 
ATOM      9  C   UNL     1      33.708 -14.965 -22.540  0.00  0.00    +0.168 C 
ATOM     10  H   UNL     1      32.546 -15.422 -20.847  0.00  0.00    +0.149 HD
ATOM     11  H   UNL     1      35.066 -15.320 -24.057  0.00  0.00    +0.149 HD
ENDROOT
BRANCH   3  16
ATOM     12  O   UNL     1      33.755 -23.626 -17.933  0.00  0.00    -0.273 OA
ATOM     13  N   UNL     1      33.135 -21.076 -20.316  0.00  0.00    -0.184 NA
ATOM     14  N   UNL     1      33.016 -22.192 -19.562  0.00  0.00    -0.206 N 
ATOM     15  C   UNL     1      35.526 -21.053 -19.706  0.00  0.00    +0.051 C 
ATOM     16  C   UNL     1      34.288 -20.482 -20.384  0.00  0.00    +0.076 C 
ATOM     17  C   UNL     1      35.099 -21.707 -18.402  0.00  0.00    +0.093 C 
ATOM     18  C   UNL     1      36.225 -22.049 -20.634  0.00  0.00    +0.007 C 
ATOM     19  C   UNL     1      33.919 -22.614 -18.614  0.00  0.00    +0.241 C 
ATOM     20  H   UNL     1      32.216 -22.749 -19.703  0.00  0.00    +0.177 HD
ENDBRANCH   3  16
BRANCH   9  21
ATOM     21  C   UNL     1      33.306 -13.594 -22.750  0.00  0.00    +0.015 C 
ATOM     22  C   UNL     1      32.296 -13.037 -21.967  0.00  0.00    +0.002 C 
ATOM     23  C   UNL     1      33.926 -12.830 -23.738  0.00  0.00    +0.002 C 
ATOM     24  C   UNL     1      31.908 -11.712 -22.170  0.00  0.00    +0.037 C 
ATOM     25  C   UNL     1      33.538 -11.506 -23.941  0.00  0.00    +0.037 C 
ATOM     26  C   UNL     1      32.529 -10.947 -23.157  0.00  0.00    +0.139 C 
BRANCH  26  27
ATOM     27  O   UNL     1      32.150  -9.655 -23.355  0.00  0.00    -0.471 OA
ATOM     28  C   UNL     1      31.807  -8.893 -22.197  0.00  0.00    +0.252 C 
ENDBRANCH  26  27
ENDBRANCH   9  21
TORSDOF 3
ENDMDL
MODEL 9
REMARK VINA RESULT:     -10.2      1.614      9.430
REMARK  Name = 4823
REMARK  3 active torsions:
REMARK  status: ('A' for Active; 'I' for Inactive)
REMARK    1  A    between atoms: C_3  and  C_16
REMARK    2  A    between atoms: C_9  and  C_21
REMARK    3  A    between atoms: C_26  and  O_27
REMARK                            x       y       z     vdW  Elec       q    Type
REMARK                         _______ _______ _______ _____ _____    ______ ____
ROOT
ATOM      1  N   UNL     1      36.206 -21.325 -18.798  0.00  0.00    -0.315 N 
ATOM      2  N   UNL     1      34.152 -21.968 -18.248  0.00  0.00    -0.315 N 
ATOM      3  C   UNL     1      34.540 -19.638 -21.654  0.00  0.00    +0.016 C 
ATOM      4  C   UNL     1      35.387 -20.792 -19.759  0.00  0.00    +0.059 C 
ATOM      5  C   UNL     1      35.645 -20.006 -20.883  0.00  0.00    +0.017 C 
ATOM      6  C   UNL     1      34.109 -21.207 -19.393  0.00  0.00    +0.059 C 
ATOM      7  C   UNL     1      33.248 -20.036 -21.317  0.00  0.00    +0.003 C 
ATOM      8  C   UNL     1      33.013 -20.825 -20.184  0.00  0.00    +0.016 C 
ATOM      9  C   UNL     1      35.423 -22.018 -17.919  0.00  0.00    +0.168 C 
ATOM     10  H   UNL     1      37.185 -21.226 -18.751  0.00  0.00    +0.149 HD
ATOM     11  H   UNL     1      33.394 -22.384 -17.777  0.00  0.00    +0.149 HD
ENDROOT
BRANCH   3  16
ATOM     12  O   UNL     1      35.016 -16.230 -25.965  0.00  0.00    -0.273 OA
ATOM     13  N   UNL     1      35.404 -17.674 -22.751  0.00  0.00    -0.184 NA
ATOM     14  N   UNL     1      35.562 -16.883 -23.836  0.00  0.00    -0.206 N 
ATOM     15  C   UNL     1      34.234 -19.272 -24.223  0.00  0.00    +0.051 C 
ATOM     16  C   UNL     1      34.752 -18.791 -22.875  0.00  0.00    +0.076 C 
ATOM     17  C   UNL     1      33.797 -18.059 -25.028  0.00  0.00    +0.093 C 
ATOM     18  C   UNL     1      35.318 -20.072 -24.950  0.00  0.00    +0.007 C 
ATOM     19  C   UNL     1      34.854 -16.990 -25.010  0.00  0.00    +0.241 C 
ATOM     20  H   UNL     1      36.241 -16.172 -23.782  0.00  0.00    +0.177 HD
ENDBRANCH   3  16
BRANCH   9  21
ATOM     21  C   UNL     1      35.978 -22.706 -16.778  0.00  0.00    +0.015 C 
ATOM     22  C   UNL     1      35.159 -23.503 -15.979  0.00  0.00    +0.002 C 
ATOM     23  C   UNL     1      37.333 -22.571 -16.473  0.00  0.00    +0.002 C 
ATOM     24  C   UNL     1      35.696 -24.167 -14.875  0.00  0.00    +0.037 C 
ATOM     25  C   UNL     1      37.869 -23.235 -15.371  0.00  0.00    +0.037 C 
ATOM     26  C   UNL     1      37.050 -24.033 -14.572  0.00  0.00    +0.139 C 
BRANCH  26  27
ATOM     27  O   UNL     1      37.574 -24.682 -13.496  0.00  0.00    -0.471 OA
ATOM     28  C   UNL     1      37.147 -26.026 -13.276  0.00  0.00    +0.252 C 
ENDBRANCH  26  27
ENDBRANCH   9  21
TORSDOF 3
ENDMDL
