MODEL 1
REMARK VINA RESULT:      -9.2      0.000      0.000
REMARK  Name = 16739331
REMARK  6 active torsions:
REMARK  status: ('A' for Active; 'I' for Inactive)
REMARK    1  A    between atoms: C_10  and  C_18
REMARK    2  A    between atoms: C_11  and  C_12
REMARK    3  A    between atoms: C_18  and  C_19
REMARK    4  A    between atoms: C_19  and  N_20
REMARK    5  A    between atoms: C_19  and  C_24
REMARK    6  A    between atoms: C_24  and  C_28
REMARK                            x       y       z     vdW  Elec       q    Type
REMARK                         _______ _______ _______ _____ _____    ______ ____
ROOT
ATOM      1  O   UNL     1      35.217 -15.512 -20.930  0.00  0.00    -0.273 OA
ATOM      2  O   UNL     1      36.664 -18.792 -23.289  0.00  0.00    -0.268 OA
ATOM      3  N   UNL     1      34.045 -17.495 -21.209  0.00  0.00    -0.205 N 
ATOM      4  N   UNL     1      35.203 -18.173 -21.589  0.00  0.00    -0.202 N 
ATOM      5  C   UNL     1      32.973 -19.825 -21.237  0.00  0.00    +0.023 C 
ATOM      6  C   UNL     1      33.828 -20.423 -20.118  0.00  0.00    +0.004 C 
ATOM      7  C   UNL     1      32.826 -18.302 -21.159  0.00  0.00    +0.115 C 
ATOM      8  C   UNL     1      35.331 -20.322 -20.382  0.00  0.00    +0.023 C 
ATOM      9  C   UNL     1      35.837 -18.889 -20.490  0.00  0.00    +0.115 C 
ATOM     10  C   UNL     1      34.166 -16.153 -20.871  0.00  0.00    +0.239 C 
ATOM     11  C   UNL     1      35.670 -18.183 -22.897  0.00  0.00    +0.265 C 
ENDROOT
BRANCH  11  12
ATOM     12  C   UNL     1      34.928 -17.407 -23.900  0.00  0.00    +0.055 C 
ATOM     13  C   UNL     1      34.945 -16.017 -23.847  0.00  0.00    +0.005 C 
ATOM     14  C   UNL     1      34.215 -18.068 -24.895  0.00  0.00    +0.005 C 
ATOM     15  C   UNL     1      34.240 -15.280 -24.799  0.00  0.00    +0.000 C 
ATOM     16  C   UNL     1      33.511 -17.331 -25.846  0.00  0.00    +0.000 C 
ATOM     17  C   UNL     1      33.523 -15.937 -25.798  0.00  0.00    +0.000 C 
ENDBRANCH  11  12
BRANCH  10  18
ATOM     18  C   UNL     1      32.898 -15.485 -20.402  0.00  0.00    +0.065 C 
BRANCH  18  19
ATOM     19  C   UNL     1      32.880 -13.997 -20.754  0.00  0.00    -0.052 C 
BRANCH  19  20
ATOM     20  N   UNL     1      32.191 -13.302 -19.660  0.00  0.00    +0.382 N 
ATOM     21  H   UNL     1      31.551 -13.947 -19.197  0.00  0.00    -0.089 HD
ATOM     22  H   UNL     1      31.666 -12.513 -20.035  0.00  0.00    -0.089 HD
ATOM     23  H   UNL     1      32.879 -12.964 -18.986  0.00  0.00    -0.089 HD
ENDBRANCH  19  20
BRANCH  19  24
ATOM     24  C   UNL     1      32.137 -13.687 -22.073  0.00  0.00    +0.007 C 
BRANCH  24  28
ATOM     25  F   UNL     1      30.452 -11.544 -21.331  0.00  0.00    -0.204 F 
ATOM     26  F   UNL     1      34.555 -10.443 -24.776  0.00  0.00    -0.202 F 
ATOM     27  F   UNL     1      32.857  -8.451 -23.985  0.00  0.00    -0.202 F 
ATOM     28  C   UNL     1      32.328 -12.280 -22.586  0.00  0.00    +0.006 C 
ATOM     29  C   UNL     1      31.459 -11.281 -22.175  0.00  0.00    +0.138 C 
ATOM     30  C   UNL     1      33.371 -12.014 -23.458  0.00  0.00    +0.030 C 
ATOM     31  C   UNL     1      33.550 -10.715 -23.932  0.00  0.00    +0.167 C 
ATOM     32  C   UNL     1      31.639  -9.981 -22.650  0.00  0.00    +0.061 C 
ATOM     33  C   UNL     1      32.685  -9.698 -23.528  0.00  0.00    +0.170 C 
ENDBRANCH  24  28
ENDBRANCH  19  24
ENDBRANCH  18  19
ENDBRANCH  10  18
TORSDOF 6
ENDMDL
MODEL 2
REMARK VINA RESULT:      -8.8      4.787      9.279
REMARK  Name = 16739331
REMARK  6 active torsions:
REMARK  status: ('A' for Active; 'I' for Inactive)
REMARK    1  A    between atoms: C_10  and  C_18
REMARK    2  A    between atoms: C_11  and  C_12
REMARK    3  A    between atoms: C_18  and  C_19
REMARK    4  A    between atoms: C_19  and  N_20
REMARK    5  A    between atoms: C_19  and  C_24
REMARK    6  A    between atoms: C_24  and  C_28
REMARK                            x       y       z     vdW  Elec       q    Type
REMARK                         _______ _______ _______ _____ _____    ______ ____
ROOT
ATOM      1  O   UNL     1      34.851  -7.771 -22.484  0.00  0.00    -0.273 OA
ATOM      2  O   UNL     1      31.420  -6.614 -20.181  0.00  0.00    -0.268 OA
ATOM      3  N   UNL     1      32.751  -7.430 -23.411  0.00  0.00    -0.205 N 
ATOM      4  N   UNL     1      32.347  -6.670 -22.314  0.00  0.00    -0.202 N 
ATOM      5  C   UNL     1      30.523  -6.678 -24.435  0.00  0.00    +0.023 C 
ATOM      6  C   UNL     1      30.843  -5.183 -24.469  0.00  0.00    +0.004 C 
ATOM      7  C   UNL     1      31.762  -7.579 -24.478  0.00  0.00    +0.115 C 
ATOM      8  C   UNL     1      31.231  -4.614 -23.103  0.00  0.00    +0.023 C 
ATOM      9  C   UNL     1      32.495  -5.236 -22.521  0.00  0.00    +0.115 C 
ATOM     10  C   UNL     1      34.050  -7.921 -23.409  0.00  0.00    +0.239 C 
ATOM     11  C   UNL     1      31.822  -7.240 -21.161  0.00  0.00    +0.265 C 
ENDROOT
BRANCH  11  12
ATOM     12  C   UNL     1      31.739  -8.706 -21.092  0.00  0.00    +0.055 C 
ATOM     13  C   UNL     1      31.174  -9.415 -22.147  0.00  0.00    +0.005 C 
ATOM     14  C   UNL     1      32.228  -9.372 -19.973  0.00  0.00    +0.005 C 
ATOM     15  C   UNL     1      31.096 -10.806 -22.081  0.00  0.00    +0.000 C 
ATOM     16  C   UNL     1      32.149 -10.763 -19.908  0.00  0.00    +0.000 C 
ATOM     17  C   UNL     1      31.584 -11.480 -20.962  0.00  0.00    +0.000 C 
ENDBRANCH  11  12
BRANCH  10  18
ATOM     18  C   UNL     1      34.460  -8.677 -24.649  0.00  0.00    +0.065 C 
BRANCH  18  19
ATOM     19  C   UNL     1      34.642 -10.169 -24.366  0.00  0.00    -0.052 C 
BRANCH  19  20
ATOM     20  N   UNL     1      35.701 -10.652 -25.262  0.00  0.00    +0.382 N 
ATOM     21  H   UNL     1      35.283 -11.193 -26.020  0.00  0.00    -0.089 HD
ATOM     22  H   UNL     1      36.346 -11.242 -24.739  0.00  0.00    -0.089 HD
ATOM     23  H   UNL     1      36.206  -9.856 -25.651  0.00  0.00    -0.089 HD
ENDBRANCH  19  20
BRANCH  19  24
ATOM     24  C   UNL     1      33.368 -11.003 -24.622  0.00  0.00    +0.007 C 
BRANCH  24  28
ATOM     25  F   UNL     1      32.957 -12.805 -26.760  0.00  0.00    -0.204 F 
ATOM     26  F   UNL     1      34.499 -14.912 -21.954  0.00  0.00    -0.202 F 
ATOM     27  F   UNL     1      34.071 -16.554 -24.097  0.00  0.00    -0.202 F 
ATOM     28  C   UNL     1      33.555 -12.495 -24.484  0.00  0.00    +0.006 C 
ATOM     29  C   UNL     1      33.335 -13.314 -25.580  0.00  0.00    +0.138 C 
ATOM     30  C   UNL     1      33.946 -13.016 -23.261  0.00  0.00    +0.030 C 
ATOM     31  C   UNL     1      34.121 -14.394 -23.130  0.00  0.00    +0.167 C 
ATOM     32  C   UNL     1      33.510 -14.693 -25.449  0.00  0.00    +0.061 C 
ATOM     33  C   UNL     1      33.903 -15.232 -24.224  0.00  0.00    +0.170 C 
ENDBRANCH  24  28
ENDBRANCH  19  24
ENDBRANCH  18  19
ENDBRANCH  10  18
TORSDOF 6
ENDMDL
MODEL 3
REMARK VINA RESULT:      -8.8      0.753      1.540
REMARK  Name = 16739331
REMARK  6 active torsions:
REMARK  status: ('A' for Active; 'I' for Inactive)
REMARK    1  A    between atoms: C_10  and  C_18
REMARK    2  A    between atoms: C_11  and  C_12
REMARK    3  A    between atoms: C_18  and  C_19
REMARK    4  A    between atoms: C_19  and  N_20
REMARK    5  A    between atoms: C_19  and  C_24
REMARK    6  A    between atoms: C_24  and  C_28
REMARK                            x       y       z     vdW  Elec       q    Type
REMARK                         _______ _______ _______ _____ _____    ______ ____
ROOT
ATOM      1  O   UNL     1      35.253 -15.659 -21.104  0.00  0.00    -0.273 OA
ATOM      2  O   UNL     1      36.759 -19.053 -23.255  0.00  0.00    -0.268 OA
ATOM      3  N   UNL     1      34.124 -17.682 -21.243  0.00  0.00    -0.205 N 
ATOM      4  N   UNL     1      35.295 -18.357 -21.586  0.00  0.00    -0.202 N 
ATOM      5  C   UNL     1      33.107 -20.033 -21.108  0.00  0.00    +0.023 C 
ATOM      6  C   UNL     1      33.983 -20.536 -19.959  0.00  0.00    +0.004 C 
ATOM      7  C   UNL     1      32.925 -18.512 -21.130  0.00  0.00    +0.115 C 
ATOM      8  C   UNL     1      35.481 -20.420 -20.242  0.00  0.00    +0.023 C 
ATOM      9  C   UNL     1      35.953 -18.985 -20.448  0.00  0.00    +0.115 C 
ATOM     10  C   UNL     1      34.217 -16.319 -20.994  0.00  0.00    +0.239 C 
ATOM     11  C   UNL     1      35.754 -18.443 -22.895  0.00  0.00    +0.265 C 
ENDROOT
BRANCH  11  12
ATOM     12  C   UNL     1      34.987 -17.751 -23.941  0.00  0.00    +0.055 C 
ATOM     13  C   UNL     1      35.118 -16.375 -24.095  0.00  0.00    +0.005 C 
ATOM     14  C   UNL     1      34.137 -18.479 -24.768  0.00  0.00    +0.005 C 
ATOM     15  C   UNL     1      34.390 -15.719 -25.087  0.00  0.00    +0.000 C 
ATOM     16  C   UNL     1      33.410 -17.821 -25.759  0.00  0.00    +0.000 C 
ATOM     17  C   UNL     1      33.536 -16.442 -25.919  0.00  0.00    +0.000 C 
ENDBRANCH  11  12
BRANCH  10  18
ATOM     18  C   UNL     1      32.937 -15.650 -20.559  0.00  0.00    +0.065 C 
BRANCH  18  19
ATOM     19  C   UNL     1      32.946 -14.154 -20.875  0.00  0.00    -0.052 C 
BRANCH  19  20
ATOM     20  N   UNL     1      32.188 -13.483 -19.811  0.00  0.00    +0.382 N 
ATOM     21  H   UNL     1      31.188 -13.584 -19.991  0.00  0.00    -0.089 HD
ATOM     22  H   UNL     1      32.431 -12.494 -19.792  0.00  0.00    -0.089 HD
ATOM     23  H   UNL     1      32.415 -13.907 -18.912  0.00  0.00    -0.089 HD
ENDBRANCH  19  20
BRANCH  19  24
ATOM     24  C   UNL     1      32.293 -13.808 -22.231  0.00  0.00    +0.007 C 
BRANCH  24  28
ATOM     25  F   UNL     1      34.288 -13.117 -24.110  0.00  0.00    -0.204 F 
ATOM     26  F   UNL     1      31.179  -9.073 -22.138  0.00  0.00    -0.202 F 
ATOM     27  F   UNL     1      33.142  -8.529 -23.962  0.00  0.00    -0.202 F 
ATOM     28  C   UNL     1      32.524 -12.391 -22.697  0.00  0.00    +0.006 C 
ATOM     29  C   UNL     1      33.523 -12.131 -23.623  0.00  0.00    +0.138 C 
ATOM     30  C   UNL     1      31.730 -11.375 -22.190  0.00  0.00    +0.030 C 
ATOM     31  C   UNL     1      31.940 -10.065 -22.619  0.00  0.00    +0.167 C 
ATOM     32  C   UNL     1      33.732 -10.820 -24.052  0.00  0.00    +0.061 C 
ATOM     33  C   UNL     1      32.940  -9.787 -23.550  0.00  0.00    +0.170 C 
ENDBRANCH  24  28
ENDBRANCH  19  24
ENDBRANCH  18  19
ENDBRANCH  10  18
TORSDOF 6
ENDMDL
MODEL 4
REMARK VINA RESULT:      -8.6      4.356      8.983
REMARK  Name = 16739331
REMARK  6 active torsions:
REMARK  status: ('A' for Active; 'I' for Inactive)
REMARK    1  A    between atoms: C_10  and  C_18
REMARK    2  A    between atoms: C_11  and  C_12
REMARK    3  A    between atoms: C_18  and  C_19
REMARK    4  A    between atoms: C_19  and  N_20
REMARK    5  A    between atoms: C_19  and  C_24
REMARK    6  A    between atoms: C_24  and  C_28
REMARK                            x       y       z     vdW  Elec       q    Type
REMARK                         _______ _______ _______ _____ _____    ______ ____
ROOT
ATOM      1  O   UNL     1      34.603  -9.048 -23.028  0.00  0.00    -0.273 OA
ATOM      2  O   UNL     1      32.397  -7.055 -19.933  0.00  0.00    -0.268 OA
ATOM      3  N   UNL     1      32.445  -8.244 -23.317  0.00  0.00    -0.205 N 
ATOM      4  N   UNL     1      32.578  -7.382 -22.229  0.00  0.00    -0.202 N 
ATOM      5  C   UNL     1      30.228  -7.013 -23.701  0.00  0.00    +0.023 C 
ATOM      6  C   UNL     1      30.838  -5.637 -23.974  0.00  0.00    +0.004 C 
ATOM      7  C   UNL     1      31.165  -8.181 -24.022  0.00  0.00    +0.115 C 
ATOM      8  C   UNL     1      31.746  -5.142 -22.847  0.00  0.00    +0.023 C 
ATOM      9  C   UNL     1      32.962  -6.029 -22.609  0.00  0.00    +0.115 C 
ATOM     10  C   UNL     1      33.541  -9.028 -23.654  0.00  0.00    +0.239 C 
ATOM     11  C   UNL     1      32.328  -7.782 -20.922  0.00  0.00    +0.265 C 
ENDROOT
BRANCH  11  12
ATOM     12  C   UNL     1      31.954  -9.185 -20.690  0.00  0.00    +0.055 C 
ATOM     13  C   UNL     1      31.379  -9.925 -21.718  0.00  0.00    +0.005 C 
ATOM     14  C   UNL     1      32.180  -9.761 -19.444  0.00  0.00    +0.005 C 
ATOM     15  C   UNL     1      31.025 -11.255 -21.497  0.00  0.00    +0.000 C 
ATOM     16  C   UNL     1      31.826 -11.091 -19.224  0.00  0.00    +0.000 C 
ATOM     17  C   UNL     1      31.248 -11.839 -20.250  0.00  0.00    +0.000 C 
ENDBRANCH  11  12
BRANCH  10  18
ATOM     18  C   UNL     1      33.369  -9.890 -24.880  0.00  0.00    +0.065 C 
BRANCH  18  19
ATOM     19  C   UNL     1      34.335 -11.076 -24.875  0.00  0.00    -0.052 C 
BRANCH  19  20
ATOM     20  N   UNL     1      35.450 -10.728 -25.765  0.00  0.00    +0.382 N 
ATOM     21  H   UNL     1      35.475 -11.381 -26.549  0.00  0.00    -0.089 HD
ATOM     22  H   UNL     1      36.327 -10.783 -25.249  0.00  0.00    -0.089 HD
ATOM     23  H   UNL     1      35.321  -9.780 -26.118  0.00  0.00    -0.089 HD
ENDBRANCH  19  20
BRANCH  19  24
ATOM     24  C   UNL     1      33.699 -12.389 -25.381  0.00  0.00    +0.007 C 
BRANCH  24  28
ATOM     25  F   UNL     1      33.842 -15.099 -26.167  0.00  0.00    -0.204 F 
ATOM     26  F   UNL     1      33.704 -14.040 -20.804  0.00  0.00    -0.202 F 
ATOM     27  F   UNL     1      33.843 -16.623 -21.688  0.00  0.00    -0.202 F 
ATOM     28  C   UNL     1      33.736 -13.528 -24.391  0.00  0.00    +0.006 C 
ATOM     29  C   UNL     1      33.808 -14.833 -24.855  0.00  0.00    +0.138 C 
ATOM     30  C   UNL     1      33.701 -13.247 -23.035  0.00  0.00    +0.030 C 
ATOM     31  C   UNL     1      33.737 -14.297 -22.118  0.00  0.00    +0.167 C 
ATOM     32  C   UNL     1      33.844 -15.883 -23.937  0.00  0.00    +0.061 C 
ATOM     33  C   UNL     1      33.809 -15.615 -22.568  0.00  0.00    +0.170 C 
ENDBRANCH  24  28
ENDBRANCH  19  24
ENDBRANCH  18  19
ENDBRANCH  10  18
TORSDOF 6
ENDMDL
MODEL 5
REMARK VINA RESULT:      -8.5      3.901      8.805
REMARK  Name = 16739331
REMARK  6 active torsions:
REMARK  status: ('A' for Active; 'I' for Inactive)
REMARK    1  A    between atoms: C_10  and  C_18
REMARK    2  A    between atoms: C_11  and  C_12
REMARK    3  A    between atoms: C_18  and  C_19
REMARK    4  A    between atoms: C_19  and  N_20
REMARK    5  A    between atoms: C_19  and  C_24
REMARK    6  A    between atoms: C_24  and  C_28
REMARK                            x       y       z     vdW  Elec       q    Type
REMARK                         _______ _______ _______ _____ _____    ______ ____
ROOT
ATOM      1  O   UNL     1      34.566  -9.979 -23.167  0.00  0.00    -0.273 OA
ATOM      2  O   UNL     1      33.042  -6.945 -20.543  0.00  0.00    -0.268 OA
ATOM      3  N   UNL     1      32.569  -8.857 -23.541  0.00  0.00    -0.205 N 
ATOM      4  N   UNL     1      32.952  -7.813 -22.699  0.00  0.00    -0.202 N 
ATOM      5  C   UNL     1      30.582  -7.337 -24.106  0.00  0.00    +0.023 C 
ATOM      6  C   UNL     1      31.400  -6.204 -24.729  0.00  0.00    +0.004 C 
ATOM      7  C   UNL     1      31.262  -8.707 -24.181  0.00  0.00    +0.115 C 
ATOM      8  C   UNL     1      32.481  -5.653 -23.797  0.00  0.00    +0.023 C 
ATOM      9  C   UNL     1      33.535  -6.683 -23.409  0.00  0.00    +0.115 C 
ATOM     10  C   UNL     1      33.472  -9.895 -23.730  0.00  0.00    +0.239 C 
ATOM     11  C   UNL     1      32.755  -7.850 -21.324  0.00  0.00    +0.265 C 
ENDROOT
BRANCH  11  12
ATOM     12  C   UNL     1      32.160  -9.063 -20.745  0.00  0.00    +0.055 C 
ATOM     13  C   UNL     1      31.360  -9.883 -21.534  0.00  0.00    +0.005 C 
ATOM     14  C   UNL     1      32.403  -9.382 -19.413  0.00  0.00    +0.005 C 
ATOM     15  C   UNL     1      30.795 -11.033 -20.985  0.00  0.00    +0.000 C 
ATOM     16  C   UNL     1      31.837 -10.532 -18.864  0.00  0.00    +0.000 C 
ATOM     17  C   UNL     1      31.034 -11.358 -19.649  0.00  0.00    +0.000 C 
ENDBRANCH  11  12
BRANCH  10  18
ATOM     18  C   UNL     1      33.039 -10.962 -24.704  0.00  0.00    +0.065 C 
BRANCH  18  19
ATOM     19  C   UNL     1      33.636 -12.325 -24.350  0.00  0.00    -0.052 C 
BRANCH  19  20
ATOM     20  N   UNL     1      33.690 -13.109 -25.591  0.00  0.00    +0.382 N 
ATOM     21  H   UNL     1      32.966 -13.827 -25.570  0.00  0.00    -0.089 HD
ATOM     22  H   UNL     1      34.605 -13.550 -25.674  0.00  0.00    -0.089 HD
ATOM     23  H   UNL     1      33.534 -12.493 -26.389  0.00  0.00    -0.089 HD
ENDBRANCH  19  20
BRANCH  19  24
ATOM     24  C   UNL     1      32.802 -13.110 -23.313  0.00  0.00    +0.007 C 
BRANCH  24  28
ATOM     25  F   UNL     1      32.923 -13.452 -20.511  0.00  0.00    -0.204 F 
ATOM     26  F   UNL     1      35.474 -17.166 -23.612  0.00  0.00    -0.202 F 
ATOM     27  F   UNL     1      35.519 -17.390 -20.888  0.00  0.00    -0.202 F 
ATOM     28  C   UNL     1      33.532 -14.258 -22.659  0.00  0.00    +0.006 C 
ATOM     29  C   UNL     1      33.546 -14.358 -21.276  0.00  0.00    +0.138 C 
ATOM     30  C   UNL     1      34.175 -15.192 -23.455  0.00  0.00    +0.030 C 
ATOM     31  C   UNL     1      34.849 -16.255 -22.854  0.00  0.00    +0.167 C 
ATOM     32  C   UNL     1      34.220 -15.422 -20.675  0.00  0.00    +0.061 C 
ATOM     33  C   UNL     1      34.872 -16.370 -21.464  0.00  0.00    +0.170 C 
ENDBRANCH  24  28
ENDBRANCH  19  24
ENDBRANCH  18  19
ENDBRANCH  10  18
TORSDOF 6
ENDMDL
MODEL 6
REMARK VINA RESULT:      -8.1      3.845      7.249
REMARK  Name = 16739331
REMARK  6 active torsions:
REMARK  status: ('A' for Active; 'I' for Inactive)
REMARK    1  A    between atoms: C_10  and  C_18
REMARK    2  A    between atoms: C_11  and  C_12
REMARK    3  A    between atoms: C_18  and  C_19
REMARK    4  A    between atoms: C_19  and  N_20
REMARK    5  A    between atoms: C_19  and  C_24
REMARK    6  A    between atoms: C_24  and  C_28
REMARK                            x       y       z     vdW  Elec       q    Type
REMARK                         _______ _______ _______ _____ _____    ______ ____
ROOT
ATOM      1  O   UNL     1      32.694 -15.355 -25.104  0.00  0.00    -0.273 OA
ATOM      2  O   UNL     1      31.602 -12.073 -22.563  0.00  0.00    -0.268 OA
ATOM      3  N   UNL     1      33.903 -14.746 -23.218  0.00  0.00    -0.205 N 
ATOM      4  N   UNL     1      32.812 -14.056 -22.692  0.00  0.00    -0.202 N 
ATOM      5  C   UNL     1      34.979 -14.278 -20.938  0.00  0.00    +0.023 C 
ATOM      6  C   UNL     1      33.981 -15.085 -20.105  0.00  0.00    +0.004 C 
ATOM      7  C   UNL     1      35.107 -14.756 -22.388  0.00  0.00    +0.115 C 
ATOM      8  C   UNL     1      32.528 -14.654 -20.314  0.00  0.00    +0.023 C 
ATOM      9  C   UNL     1      32.035 -14.843 -21.744  0.00  0.00    +0.115 C 
ATOM     10  C   UNL     1      33.730 -15.392 -24.436  0.00  0.00    +0.239 C 
ATOM     11  C   UNL     1      32.530 -12.736 -23.023  0.00  0.00    +0.265 C 
ENDROOT
BRANCH  11  12
ATOM     12  C   UNL     1      33.400 -12.071 -24.003  0.00  0.00    +0.055 C 
ATOM     13  C   UNL     1      33.440 -12.531 -25.315  0.00  0.00    +0.005 C 
ATOM     14  C   UNL     1      34.176 -10.985 -23.610  0.00  0.00    +0.005 C 
ATOM     15  C   UNL     1      34.266 -11.900 -26.244  0.00  0.00    +0.000 C 
ATOM     16  C   UNL     1      35.002 -10.354 -24.540  0.00  0.00    +0.000 C 
ATOM     17  C   UNL     1      35.047 -10.811 -25.857  0.00  0.00    +0.000 C 
ENDBRANCH  11  12
BRANCH  10  18
ATOM     18  C   UNL     1      34.918 -16.181 -24.927  0.00  0.00    +0.065 C 
BRANCH  18  19
ATOM     19  C   UNL     1      34.867 -17.633 -24.449  0.00  0.00    -0.052 C 
BRANCH  19  20
ATOM     20  N   UNL     1      34.186 -18.408 -25.493  0.00  0.00    +0.382 N 
ATOM     21  H   UNL     1      34.664 -19.301 -25.620  0.00  0.00    -0.089 HD
ATOM     22  H   UNL     1      34.202 -17.887 -26.369  0.00  0.00    -0.089 HD
ATOM     23  H   UNL     1      33.219 -18.578 -25.215  0.00  0.00    -0.089 HD
ENDBRANCH  19  20
BRANCH  19  24
ATOM     24  C   UNL     1      34.095 -17.817 -23.124  0.00  0.00    +0.007 C 
BRANCH  24  28
ATOM     25  F   UNL     1      32.717 -19.676 -21.502  0.00  0.00    -0.204 F 
ATOM     26  F   UNL     1      38.135 -19.304 -20.856  0.00  0.00    -0.202 F 
ATOM     27  F   UNL     1      36.692 -21.066 -19.345  0.00  0.00    -0.202 F 
ATOM     28  C   UNL     1      34.790 -18.690 -22.107  0.00  0.00    +0.006 C 
ATOM     29  C   UNL     1      34.044 -19.580 -21.349  0.00  0.00    +0.138 C 
ATOM     30  C   UNL     1      36.162 -18.586 -21.953  0.00  0.00    +0.030 C 
ATOM     31  C   UNL     1      36.808 -19.393 -21.016  0.00  0.00    +0.167 C 
ATOM     32  C   UNL     1      34.690 -20.386 -20.411  0.00  0.00    +0.061 C 
ATOM     33  C   UNL     1      36.072 -20.293 -20.245  0.00  0.00    +0.170 C 
ENDBRANCH  24  28
ENDBRANCH  19  24
ENDBRANCH  18  19
ENDBRANCH  10  18
TORSDOF 6
ENDMDL
MODEL 7
REMARK VINA RESULT:      -7.7      6.247      9.725
REMARK  Name = 16739331
REMARK  6 active torsions:
REMARK  status: ('A' for Active; 'I' for Inactive)
REMARK    1  A    between atoms: C_10  and  C_18
REMARK    2  A    between atoms: C_11  and  C_12
REMARK    3  A    between atoms: C_18  and  C_19
REMARK    4  A    between atoms: C_19  and  N_20
REMARK    5  A    between atoms: C_19  and  C_24
REMARK    6  A    between atoms: C_24  and  C_28
REMARK                            x       y       z     vdW  Elec       q    Type
REMARK                         _______ _______ _______ _____ _____    ______ ____
ROOT
ATOM      1  O   UNL     1      33.803 -24.154 -18.016  0.00  0.00    -0.273 OA
ATOM      2  O   UNL     1      32.947 -25.987 -14.232  0.00  0.00    -0.268 OA
ATOM      3  N   UNL     1      34.688 -23.401 -16.007  0.00  0.00    -0.205 N 
ATOM      4  N   UNL     1      34.435 -24.627 -15.391  0.00  0.00    -0.202 N 
ATOM      5  C   UNL     1      35.928 -22.848 -13.831  0.00  0.00    +0.023 C 
ATOM      6  C   UNL     1      37.003 -23.928 -13.965  0.00  0.00    +0.004 C 
ATOM      7  C   UNL     1      35.337 -22.393 -15.169  0.00  0.00    +0.115 C 
ATOM      8  C   UNL     1      36.431 -25.337 -14.124  0.00  0.00    +0.023 C 
ATOM      9  C   UNL     1      35.589 -25.515 -15.382  0.00  0.00    +0.115 C 
ATOM     10  C   UNL     1      34.351 -23.274 -17.348  0.00  0.00    +0.239 C 
ATOM     11  C   UNL     1      33.209 -24.937 -14.815  0.00  0.00    +0.265 C 
ENDROOT
BRANCH  11  12
ATOM     12  C   UNL     1      32.132 -23.942 -14.908  0.00  0.00    +0.055 C 
ATOM     13  C   UNL     1      31.965 -23.009 -13.890  0.00  0.00    +0.005 C 
ATOM     14  C   UNL     1      31.289 -23.940 -16.015  0.00  0.00    +0.005 C 
ATOM     15  C   UNL     1      30.942 -22.065 -13.979  0.00  0.00    +0.000 C 
ATOM     16  C   UNL     1      30.267 -22.995 -16.103  0.00  0.00    +0.000 C 
ATOM     17  C   UNL     1      30.094 -22.058 -15.085  0.00  0.00    +0.000 C 
ENDBRANCH  11  12
BRANCH  10  18
ATOM     18  C   UNL     1      34.708 -21.954 -17.985  0.00  0.00    +0.065 C 
BRANCH  18  19
ATOM     19  C   UNL     1      36.109 -21.984 -18.598  0.00  0.00    -0.052 C 
BRANCH  19  20
ATOM     20  N   UNL     1      36.904 -20.960 -17.909  0.00  0.00    +0.382 N 
ATOM     21  H   UNL     1      37.814 -21.348 -17.656  0.00  0.00    -0.089 HD
ATOM     22  H   UNL     1      36.417 -20.661 -17.065  0.00  0.00    -0.089 HD
ATOM     23  H   UNL     1      37.038 -20.159 -18.527  0.00  0.00    -0.089 HD
ENDBRANCH  19  20
BRANCH  19  24
ATOM     24  C   UNL     1      36.124 -21.676 -20.111  0.00  0.00    +0.007 C 
BRANCH  24  28
ATOM     25  F   UNL     1      37.577 -19.379 -20.884  0.00  0.00    -0.204 F 
ATOM     26  F   UNL     1      32.122 -18.997 -20.809  0.00  0.00    -0.202 F 
ATOM     27  F   UNL     1      33.637 -16.842 -21.540  0.00  0.00    -0.202 F 
ATOM     28  C   UNL     1      35.459 -20.376 -20.495  0.00  0.00    +0.006 C 
ATOM     29  C   UNL     1      36.241 -19.292 -20.864  0.00  0.00    +0.138 C 
ATOM     30  C   UNL     1      34.076 -20.291 -20.472  0.00  0.00    +0.030 C 
ATOM     31  C   UNL     1      33.458 -19.092 -20.826  0.00  0.00    +0.167 C 
ATOM     32  C   UNL     1      35.622 -18.092 -21.219  0.00  0.00    +0.061 C 
ATOM     33  C   UNL     1      34.231 -17.993 -21.200  0.00  0.00    +0.170 C 
ENDBRANCH  24  28
ENDBRANCH  19  24
ENDBRANCH  18  19
ENDBRANCH  10  18
TORSDOF 6
ENDMDL
MODEL 8
REMARK VINA RESULT:      -7.6      3.985      8.251
REMARK  Name = 16739331
REMARK  6 active torsions:
REMARK  status: ('A' for Active; 'I' for Inactive)
REMARK    1  A    between atoms: C_10  and  C_18
REMARK    2  A    between atoms: C_11  and  C_12
REMARK    3  A    between atoms: C_18  and  C_19
REMARK    4  A    between atoms: C_19  and  N_20
REMARK    5  A    between atoms: C_19  and  C_24
REMARK    6  A    between atoms: C_24  and  C_28
REMARK                            x       y       z     vdW  Elec       q    Type
REMARK                         _______ _______ _______ _____ _____    ______ ____
ROOT
ATOM      1  O   UNL     1      30.458 -10.467 -22.853  0.00  0.00    -0.273 OA
ATOM      2  O   UNL     1      32.002  -6.878 -24.629  0.00  0.00    -0.268 OA
ATOM      3  N   UNL     1      31.929  -9.039 -21.766  0.00  0.00    -0.205 N 
ATOM      4  N   UNL     1      31.605  -7.988 -22.623  0.00  0.00    -0.202 N 
ATOM      5  C   UNL     1      33.242  -7.251 -20.479  0.00  0.00    +0.023 C 
ATOM      6  C   UNL     1      32.037  -6.389 -20.098  0.00  0.00    +0.004 C 
ATOM      7  C   UNL     1      32.901  -8.725 -20.719  0.00  0.00    +0.115 C 
ATOM      8  C   UNL     1      31.208  -5.941 -21.303  0.00  0.00    +0.023 C 
ATOM      9  C   UNL     1      30.589  -7.095 -22.082  0.00  0.00    +0.115 C 
ATOM     10  C   UNL     1      31.272 -10.248 -21.953  0.00  0.00    +0.239 C 
ATOM     11  C   UNL     1      32.227  -7.805 -23.853  0.00  0.00    +0.265 C 
ENDROOT
BRANCH  11  12
ATOM     12  C   UNL     1      33.230  -8.794 -24.271  0.00  0.00    +0.055 C 
ATOM     13  C   UNL     1      34.572  -8.585 -23.970  0.00  0.00    +0.005 C 
ATOM     14  C   UNL     1      32.830  -9.932 -24.965  0.00  0.00    +0.005 C 
ATOM     15  C   UNL     1      35.524  -9.523 -24.368  0.00  0.00    +0.000 C 
ATOM     16  C   UNL     1      33.783 -10.869 -25.362  0.00  0.00    +0.000 C 
ATOM     17  C   UNL     1      35.129 -10.665 -25.063  0.00  0.00    +0.000 C 
ENDBRANCH  11  12
BRANCH  10  18
ATOM     18  C   UNL     1      31.607 -11.329 -20.957  0.00  0.00    +0.065 C 
BRANCH  18  19
ATOM     19  C   UNL     1      31.963 -12.645 -21.650  0.00  0.00    -0.052 C 
BRANCH  19  20
ATOM     20  N   UNL     1      32.126 -13.657 -20.599  0.00  0.00    +0.382 N 
ATOM     21  H   UNL     1      31.514 -13.434 -19.814  0.00  0.00    -0.089 HD
ATOM     22  H   UNL     1      33.095 -13.666 -20.283  0.00  0.00    -0.089 HD
ATOM     23  H   UNL     1      31.881 -14.575 -20.971  0.00  0.00    -0.089 HD
ENDBRANCH  19  20
BRANCH  19  24
ATOM     24  C   UNL     1      33.272 -12.574 -22.467  0.00  0.00    +0.007 C 
BRANCH  24  28
ATOM     25  F   UNL     1      35.020 -14.550 -21.455  0.00  0.00    -0.204 F 
ATOM     26  F   UNL     1      32.810 -15.428 -26.381  0.00  0.00    -0.202 F 
ATOM     27  F   UNL     1      34.517 -17.268 -25.296  0.00  0.00    -0.202 F 
ATOM     28  C   UNL     1      33.609 -13.835 -23.225  0.00  0.00    +0.006 C 
ATOM     29  C   UNL     1      34.475 -14.759 -22.661  0.00  0.00    +0.138 C 
ATOM     30  C   UNL     1      33.043 -14.046 -24.472  0.00  0.00    +0.030 C 
ATOM     31  C   UNL     1      33.351 -15.211 -25.174  0.00  0.00    +0.167 C 
ATOM     32  C   UNL     1      34.784 -15.924 -23.364  0.00  0.00    +0.061 C 
ATOM     33  C   UNL     1      34.221 -16.150 -24.621  0.00  0.00    +0.170 C 
ENDBRANCH  24  28
ENDBRANCH  19  24
ENDBRANCH  18  19
ENDBRANCH  10  18
TORSDOF 6
ENDMDL
MODEL 9
REMARK VINA RESULT:      -7.6      1.493      2.039
REMARK  Name = 16739331
REMARK  6 active torsions:
REMARK  status: ('A' for Active; 'I' for Inactive)
REMARK    1  A    between atoms: C_10  and  C_18
REMARK    2  A    between atoms: C_11  and  C_12
REMARK    3  A    between atoms: C_18  and  C_19
REMARK    4  A    between atoms: C_19  and  N_20
REMARK    5  A    between atoms: C_19  and  C_24
REMARK    6  A    between atoms: C_24  and  C_28
REMARK                            x       y       z     vdW  Elec       q    Type
REMARK                         _______ _______ _______ _____ _____    ______ ____
ROOT
ATOM      1  O   UNL     1      35.363 -15.815 -21.117  0.00  0.00    -0.273 OA
ATOM      2  O   UNL     1      36.859 -19.376 -22.988  0.00  0.00    -0.268 OA
ATOM      3  N   UNL     1      34.169 -17.804 -21.210  0.00  0.00    -0.205 N 
ATOM      4  N   UNL     1      35.332 -18.537 -21.448  0.00  0.00    -0.202 N 
ATOM      5  C   UNL     1      33.059 -20.107 -21.007  0.00  0.00    +0.023 C 
ATOM      6  C   UNL     1      33.849 -20.574 -19.783  0.00  0.00    +0.004 C 
ATOM      7  C   UNL     1      32.935 -18.584 -21.121  0.00  0.00    +0.115 C 
ATOM      8  C   UNL     1      35.364 -20.525 -19.985  0.00  0.00    +0.023 C 
ATOM      9  C   UNL     1      35.901 -19.121 -20.241  0.00  0.00    +0.115 C 
ATOM     10  C   UNL     1      34.299 -16.432 -21.032  0.00  0.00    +0.239 C 
ATOM     11  C   UNL     1      35.859 -18.712 -22.721  0.00  0.00    +0.265 C 
ENDROOT
BRANCH  11  12
ATOM     12  C   UNL     1      35.178 -18.055 -23.846  0.00  0.00    +0.055 C 
ATOM     13  C   UNL     1      34.242 -18.760 -24.594  0.00  0.00    +0.005 C 
ATOM     14  C   UNL     1      35.476 -16.730 -24.152  0.00  0.00    +0.005 C 
ATOM     15  C   UNL     1      33.598 -18.136 -25.661  0.00  0.00    +0.000 C 
ATOM     16  C   UNL     1      34.831 -16.107 -25.219  0.00  0.00    +0.000 C 
ATOM     17  C   UNL     1      33.892 -16.809 -25.973  0.00  0.00    +0.000 C 
ENDBRANCH  11  12
BRANCH  10  18
ATOM     18  C   UNL     1      33.023 -15.697 -20.708  0.00  0.00    +0.065 C 
BRANCH  18  19
ATOM     19  C   UNL     1      33.011 -14.293 -21.316  0.00  0.00    -0.052 C 
BRANCH  19  20
ATOM     20  N   UNL     1      32.278 -13.425 -20.385  0.00  0.00    +0.382 N 
ATOM     21  H   UNL     1      31.924 -12.611 -20.887  0.00  0.00    -0.089 HD
ATOM     22  H   UNL     1      32.904 -13.120 -19.641  0.00  0.00    -0.089 HD
ATOM     23  H   UNL     1      31.496 -13.942 -19.983  0.00  0.00    -0.089 HD
ENDBRANCH  19  20
BRANCH  19  24
ATOM     24  C   UNL     1      32.316 -14.226 -22.694  0.00  0.00    +0.007 C 
BRANCH  24  28
ATOM     25  F   UNL     1      32.223 -14.610 -25.492  0.00  0.00    -0.204 F 
ATOM     26  F   UNL     1      34.850 -10.182 -23.646  0.00  0.00    -0.202 F 
ATOM     27  F   UNL     1      34.692 -10.662 -26.333  0.00  0.00    -0.202 F 
ATOM     28  C   UNL     1      32.954 -13.271 -23.674  0.00  0.00    +0.006 C 
ATOM     29  C   UNL     1      32.865 -13.528 -25.033  0.00  0.00    +0.138 C 
ATOM     30  C   UNL     1      33.617 -12.153 -23.194  0.00  0.00    +0.030 C 
ATOM     31  C   UNL     1      34.206 -11.268 -24.096  0.00  0.00    +0.167 C 
ATOM     32  C   UNL     1      33.455 -12.642 -25.936  0.00  0.00    +0.061 C 
ATOM     33  C   UNL     1      34.125 -11.512 -25.467  0.00  0.00    +0.170 C 
ENDBRANCH  24  28
ENDBRANCH  19  24
ENDBRANCH  18  19
ENDBRANCH  10  18
TORSDOF 6
ENDMDL
