MODEL 1
REMARK VINA RESULT:      -9.4      0.000      0.000
REMARK  Name = 176870
REMARK  10 active torsions:
REMARK  status: ('A' for Active; 'I' for Inactive)
REMARK    1  A    between atoms: N_1  and  C_13
REMARK    2  A    between atoms: C_6  and  O_21
REMARK    3  A    between atoms: C_7  and  O_26
REMARK    4  A    between atoms: C_16  and  C_19
REMARK    5  A    between atoms: O_21  and  C_22
REMARK    6  A    between atoms: C_22  and  C_23
REMARK    7  A    between atoms: C_23  and  O_24
REMARK    8  A    between atoms: O_26  and  C_27
REMARK    9  A    between atoms: C_27  and  C_28
REMARK   10  A    between atoms: C_28  and  O_29
REMARK                            x       y       z     vdW  Elec       q    Type
REMARK                         _______ _______ _______ _____ _____    ______ ____
ROOT
ATOM      1  N   UNL     1      34.290 -17.859 -21.845  0.00  0.00    -0.298 N 
ATOM      2  N   UNL     1      34.274 -16.701 -25.818  0.00  0.00    -0.248 NA
ATOM      3  N   UNL     1      34.536 -18.393 -24.123  0.00  0.00    -0.230 NA
ATOM      4  C   UNL     1      34.016 -16.114 -23.507  0.00  0.00    +0.048 C 
ATOM      5  C   UNL     1      34.024 -15.780 -24.871  0.00  0.00    +0.066 C 
ATOM      6  C   UNL     1      33.495 -13.828 -22.900  0.00  0.00    +0.169 C 
ATOM      7  C   UNL     1      33.500 -13.484 -24.247  0.00  0.00    +0.156 C 
ATOM      8  C   UNL     1      33.753 -15.142 -22.526  0.00  0.00    +0.044 C 
ATOM      9  C   UNL     1      34.282 -17.446 -23.201  0.00  0.00    +0.131 C 
ATOM     10  C   UNL     1      33.763 -14.456 -25.218  0.00  0.00    +0.112 C 
ATOM     11  C   UNL     1      34.517 -17.957 -25.393  0.00  0.00    +0.252 C 
ATOM     12  H   UNL     1      33.685 -17.340 -21.268  0.00  0.00    +0.154 HD
ENDROOT
BRANCH   1  13
ATOM     13  C   UNL     1      34.996 -18.864 -21.166  0.00  0.00    +0.050 C 
ATOM     14  C   UNL     1      34.304 -19.900 -20.537  0.00  0.00    +0.023 C 
ATOM     15  C   UNL     1      36.390 -18.828 -21.121  0.00  0.00    +0.015 C 
ATOM     16  C   UNL     1      35.007 -20.898 -19.862  0.00  0.00    +0.044 C 
ATOM     17  C   UNL     1      37.092 -19.826 -20.446  0.00  0.00    +0.002 C 
ATOM     18  C   UNL     1      36.401 -20.862 -19.816  0.00  0.00    +0.008 C 
BRANCH  16  19
ATOM     19  C   UNL     1      34.300 -21.959 -19.218  0.00  0.00    -0.051 C 
ATOM     20  C   UNL     1      33.706 -22.851 -18.676  0.00  0.00    -0.009 C 
ENDBRANCH  16  19
ENDBRANCH   1  13
BRANCH   6  21
ATOM     21  O   UNL     1      33.240 -12.892 -21.945  0.00  0.00    -0.470 OA
BRANCH  21  22
ATOM     22  C   UNL     1      31.932 -12.884 -21.376  0.00  0.00    +0.237 C 
BRANCH  22  23
ATOM     23  C   UNL     1      31.272 -11.551 -21.671  0.00  0.00    +0.189 C 
BRANCH  23  24
ATOM     24  O   UNL     1      30.598 -11.097 -20.503  0.00  0.00    -0.347 OA
ATOM     25  C   UNL     1      31.474 -11.040 -19.386  0.00  0.00    +0.174 C 
ENDBRANCH  23  24
ENDBRANCH  22  23
ENDBRANCH  21  22
ENDBRANCH   6  21
BRANCH   7  26
ATOM     26  O   UNL     1      33.250 -12.203 -24.636  0.00  0.00    -0.474 OA
BRANCH  26  27
ATOM     27  C   UNL     1      34.361 -11.311 -24.682  0.00  0.00    +0.237 C 
BRANCH  27  28
ATOM     28  C   UNL     1      34.012 -10.044 -23.925  0.00  0.00    +0.189 C 
BRANCH  28  29
ATOM     29  O   UNL     1      35.114  -9.149 -23.985  0.00  0.00    -0.347 OA
ATOM     30  C   UNL     1      34.762  -7.857 -23.508  0.00  0.00    +0.174 C 
ENDBRANCH  28  29
ENDBRANCH  27  28
ENDBRANCH  26  27
ENDBRANCH   7  26
TORSDOF 10
ENDMDL
MODEL 2
REMARK VINA RESULT:      -9.1      8.049     12.839
REMARK  Name = 176870
REMARK  10 active torsions:
REMARK  status: ('A' for Active; 'I' for Inactive)
REMARK    1  A    between atoms: N_1  and  C_13
REMARK    2  A    between atoms: C_6  and  O_21
REMARK    3  A    between atoms: C_7  and  O_26
REMARK    4  A    between atoms: C_16  and  C_19
REMARK    5  A    between atoms: O_21  and  C_22
REMARK    6  A    between atoms: C_22  and  C_23
REMARK    7  A    between atoms: C_23  and  O_24
REMARK    8  A    between atoms: O_26  and  C_27
REMARK    9  A    between atoms: C_27  and  C_28
REMARK   10  A    between atoms: C_28  and  O_29
REMARK                            x       y       z     vdW  Elec       q    Type
REMARK                         _______ _______ _______ _____ _____    ______ ____
ROOT
ATOM      1  N   UNL     1      34.299 -22.407 -18.408  0.00  0.00    -0.298 N 
ATOM      2  N   UNL     1      31.748 -23.692 -15.412  0.00  0.00    -0.248 NA
ATOM      3  N   UNL     1      32.116 -22.741 -17.596  0.00  0.00    -0.230 NA
ATOM      4  C   UNL     1      33.989 -23.366 -16.202  0.00  0.00    +0.048 C 
ATOM      5  C   UNL     1      33.076 -23.786 -15.222  0.00  0.00    +0.066 C 
ATOM      6  C   UNL     1      35.860 -23.996 -14.798  0.00  0.00    +0.169 C 
ATOM      7  C   UNL     1      34.966 -24.416 -13.820  0.00  0.00    +0.156 C 
ATOM      8  C   UNL     1      35.375 -23.471 -15.991  0.00  0.00    +0.044 C 
ATOM      9  C   UNL     1      33.439 -22.851 -17.373  0.00  0.00    +0.131 C 
ATOM     10  C   UNL     1      33.588 -24.308 -14.036  0.00  0.00    +0.112 C 
ATOM     11  C   UNL     1      31.340 -23.174 -16.589  0.00  0.00    +0.252 C 
ATOM     12  H   UNL     1      35.156 -22.889 -18.447  0.00  0.00    +0.154 HD
ENDROOT
BRANCH   1  13
ATOM     13  C   UNL     1      34.165 -21.412 -19.388  0.00  0.00    +0.050 C 
ATOM     14  C   UNL     1      35.299 -20.795 -19.918  0.00  0.00    +0.023 C 
ATOM     15  C   UNL     1      32.897 -21.039 -19.834  0.00  0.00    +0.015 C 
ATOM     16  C   UNL     1      35.165 -19.806 -20.892  0.00  0.00    +0.044 C 
ATOM     17  C   UNL     1      32.762 -20.050 -20.808  0.00  0.00    +0.002 C 
ATOM     18  C   UNL     1      33.896 -19.433 -21.337  0.00  0.00    +0.008 C 
BRANCH  16  19
ATOM     19  C   UNL     1      36.325 -19.174 -21.434  0.00  0.00    -0.051 C 
ATOM     20  C   UNL     1      37.301 -18.643 -21.889  0.00  0.00    -0.009 C 
ENDBRANCH  16  19
ENDBRANCH   1  13
BRANCH   6  21
ATOM     21  O   UNL     1      37.203 -24.096 -14.600  0.00  0.00    -0.470 OA
BRANCH  21  22
ATOM     22  C   UNL     1      37.894 -25.107 -15.331  0.00  0.00    +0.237 C 
BRANCH  22  23
ATOM     23  C   UNL     1      38.073 -26.324 -14.443  0.00  0.00    +0.189 C 
BRANCH  23  24
ATOM     24  O   UNL     1      39.401 -26.813 -14.588  0.00  0.00    -0.347 OA
ATOM     25  C   UNL     1      40.329 -25.754 -14.778  0.00  0.00    +0.174 C 
ENDBRANCH  23  24
ENDBRANCH  22  23
ENDBRANCH  21  22
ENDBRANCH   6  21
BRANCH   7  26
ATOM     26  O   UNL     1      35.418 -24.933 -12.643  0.00  0.00    -0.474 OA
BRANCH  26  27
ATOM     27  C   UNL     1      35.254 -24.130 -11.476  0.00  0.00    +0.237 C 
BRANCH  27  28
ATOM     28  C   UNL     1      36.536 -23.361 -11.220  0.00  0.00    +0.189 C 
BRANCH  28  29
ATOM     29  O   UNL     1      37.616 -24.280 -11.122  0.00  0.00    -0.347 OA
ATOM     30  C   UNL     1      38.726 -23.863 -11.906  0.00  0.00    +0.174 C 
ENDBRANCH  28  29
ENDBRANCH  27  28
ENDBRANCH  26  27
ENDBRANCH   7  26
TORSDOF 10
ENDMDL
MODEL 3
REMARK VINA RESULT:      -8.7      3.205      9.445
REMARK  Name = 176870
REMARK  10 active torsions:
REMARK  status: ('A' for Active; 'I' for Inactive)
REMARK    1  A    between atoms: N_1  and  C_13
REMARK    2  A    between atoms: C_6  and  O_21
REMARK    3  A    between atoms: C_7  and  O_26
REMARK    4  A    between atoms: C_16  and  C_19
REMARK    5  A    between atoms: O_21  and  C_22
REMARK    6  A    between atoms: C_22  and  C_23
REMARK    7  A    between atoms: C_23  and  O_24
REMARK    8  A    between atoms: O_26  and  C_27
REMARK    9  A    between atoms: C_27  and  C_28
REMARK   10  A    between atoms: C_28  and  O_29
REMARK                            x       y       z     vdW  Elec       q    Type
REMARK                         _______ _______ _______ _____ _____    ______ ____
ROOT
ATOM      1  N   UNL     1      32.994 -10.714 -23.634  0.00  0.00    -0.298 N 
ATOM      2  N   UNL     1      31.732 -12.874 -20.337  0.00  0.00    -0.248 NA
ATOM      3  N   UNL     1      31.830 -10.819 -21.592  0.00  0.00    -0.230 NA
ATOM      4  C   UNL     1      32.930 -12.809 -22.413  0.00  0.00    +0.048 C 
ATOM      5  C   UNL     1      32.474 -13.491 -21.274  0.00  0.00    +0.066 C 
ATOM      6  C   UNL     1      34.028 -14.808 -23.229  0.00  0.00    +0.169 C 
ATOM      7  C   UNL     1      33.582 -15.494 -22.105  0.00  0.00    +0.156 C 
ATOM      8  C   UNL     1      33.704 -13.465 -23.386  0.00  0.00    +0.044 C 
ATOM      9  C   UNL     1      32.570 -11.467 -22.511  0.00  0.00    +0.131 C 
ATOM     10  C   UNL     1      32.813 -14.836 -21.141  0.00  0.00    +0.112 C 
ATOM     11  C   UNL     1      31.451 -11.572 -20.546  0.00  0.00    +0.252 C 
ATOM     12  H   UNL     1      33.100 -11.248 -24.453  0.00  0.00    +0.154 HD
ENDROOT
BRANCH   1  13
ATOM     13  C   UNL     1      33.293  -9.353 -23.802  0.00  0.00    +0.050 C 
ATOM     14  C   UNL     1      32.292  -8.394 -23.650  0.00  0.00    +0.023 C 
ATOM     15  C   UNL     1      34.593  -8.960 -24.122  0.00  0.00    +0.015 C 
ATOM     16  C   UNL     1      32.590  -7.042 -23.817  0.00  0.00    +0.044 C 
ATOM     17  C   UNL     1      34.891  -7.608 -24.290  0.00  0.00    +0.002 C 
ATOM     18  C   UNL     1      33.890  -6.648 -24.138  0.00  0.00    +0.008 C 
BRANCH  16  19
ATOM     19  C   UNL     1      31.565  -6.059 -23.662  0.00  0.00    -0.051 C 
ATOM     20  C   UNL     1      30.704  -5.233 -23.532  0.00  0.00    -0.009 C 
ENDBRANCH  16  19
ENDBRANCH   1  13
BRANCH   6  21
ATOM     21  O   UNL     1      34.778 -15.437 -24.175  0.00  0.00    -0.470 OA
BRANCH  21  22
ATOM     22  C   UNL     1      34.084 -16.259 -25.112  0.00  0.00    +0.237 C 
BRANCH  22  23
ATOM     23  C   UNL     1      33.094 -15.406 -25.881  0.00  0.00    +0.189 C 
BRANCH  23  24
ATOM     24  O   UNL     1      33.759 -14.803 -26.985  0.00  0.00    -0.347 OA
ATOM     25  C   UNL     1      33.343 -13.457 -27.171  0.00  0.00    +0.174 C 
ENDBRANCH  23  24
ENDBRANCH  22  23
ENDBRANCH  21  22
ENDBRANCH   6  21
BRANCH   7  26
ATOM     26  O   UNL     1      33.888 -16.810 -21.930  0.00  0.00    -0.474 OA
BRANCH  26  27
ATOM     27  C   UNL     1      34.964 -17.113 -21.045  0.00  0.00    +0.237 C 
BRANCH  27  28
ATOM     28  C   UNL     1      35.734 -18.301 -21.590  0.00  0.00    +0.189 C 
BRANCH  28  29
ATOM     29  O   UNL     1      35.803 -19.308 -20.589  0.00  0.00    -0.347 OA
ATOM     30  C   UNL     1      34.640 -20.125 -20.592  0.00  0.00    +0.174 C 
ENDBRANCH  28  29
ENDBRANCH  27  28
ENDBRANCH  26  27
ENDBRANCH   7  26
TORSDOF 10
ENDMDL
MODEL 4
REMARK VINA RESULT:      -8.6      3.532     10.033
REMARK  Name = 176870
REMARK  10 active torsions:
REMARK  status: ('A' for Active; 'I' for Inactive)
REMARK    1  A    between atoms: N_1  and  C_13
REMARK    2  A    between atoms: C_6  and  O_21
REMARK    3  A    between atoms: C_7  and  O_26
REMARK    4  A    between atoms: C_16  and  C_19
REMARK    5  A    between atoms: O_21  and  C_22
REMARK    6  A    between atoms: C_22  and  C_23
REMARK    7  A    between atoms: C_23  and  O_24
REMARK    8  A    between atoms: O_26  and  C_27
REMARK    9  A    between atoms: C_27  and  C_28
REMARK   10  A    between atoms: C_28  and  O_29
REMARK                            x       y       z     vdW  Elec       q    Type
REMARK                         _______ _______ _______ _____ _____    ______ ____
ROOT
ATOM      1  N   UNL     1      31.788  -9.509 -22.944  0.00  0.00    -0.298 N 
ATOM      2  N   UNL     1      31.694 -12.237 -19.832  0.00  0.00    -0.248 NA
ATOM      3  N   UNL     1      31.247 -10.040 -20.716  0.00  0.00    -0.230 NA
ATOM      4  C   UNL     1      32.262 -11.737 -22.108  0.00  0.00    +0.048 C 
ATOM      5  C   UNL     1      32.204 -12.618 -21.016  0.00  0.00    +0.066 C 
ATOM      6  C   UNL     1      33.279 -13.443 -23.494  0.00  0.00    +0.169 C 
ATOM      7  C   UNL     1      33.226 -14.326 -22.421  0.00  0.00    +0.156 C 
ATOM      8  C   UNL     1      32.798 -12.147 -23.341  0.00  0.00    +0.044 C 
ATOM      9  C   UNL     1      31.764 -10.455 -21.888  0.00  0.00    +0.131 C 
ATOM     10  C   UNL     1      32.693 -13.910 -21.197  0.00  0.00    +0.112 C 
ATOM     11  C   UNL     1      31.243 -10.969 -19.746  0.00  0.00    +0.252 C 
ATOM     12  H   UNL     1      31.715  -9.912 -23.839  0.00  0.00    +0.154 HD
ENDROOT
BRANCH   1  13
ATOM     13  C   UNL     1      31.899  -8.110 -22.959  0.00  0.00    +0.050 C 
ATOM     14  C   UNL     1      32.230  -7.449 -24.142  0.00  0.00    +0.023 C 
ATOM     15  C   UNL     1      31.677  -7.382 -21.790  0.00  0.00    +0.015 C 
ATOM     16  C   UNL     1      32.339  -6.059 -24.155  0.00  0.00    +0.044 C 
ATOM     17  C   UNL     1      31.787  -5.991 -21.804  0.00  0.00    +0.002 C 
ATOM     18  C   UNL     1      32.118  -5.329 -22.986  0.00  0.00    +0.008 C 
BRANCH  16  19
ATOM     19  C   UNL     1      32.678  -5.380 -25.366  0.00  0.00    -0.051 C 
ATOM     20  C   UNL     1      32.964  -4.810 -26.383  0.00  0.00    -0.009 C 
ENDBRANCH  16  19
ENDBRANCH   1  13
BRANCH   6  21
ATOM     21  O   UNL     1      33.795 -13.834 -24.691  0.00  0.00    -0.470 OA
BRANCH  21  22
ATOM     22  C   UNL     1      32.866 -14.141 -25.730  0.00  0.00    +0.237 C 
BRANCH  22  23
ATOM     23  C   UNL     1      33.000 -15.607 -26.096  0.00  0.00    +0.189 C 
BRANCH  23  24
ATOM     24  O   UNL     1      34.359 -16.001 -25.946  0.00  0.00    -0.347 OA
ATOM     25  C   UNL     1      34.467 -17.274 -25.324  0.00  0.00    +0.174 C 
ENDBRANCH  23  24
ENDBRANCH  22  23
ENDBRANCH  21  22
ENDBRANCH   6  21
BRANCH   7  26
ATOM     26  O   UNL     1      33.692 -15.599 -22.548  0.00  0.00    -0.474 OA
BRANCH  26  27
ATOM     27  C   UNL     1      34.650 -16.038 -21.587  0.00  0.00    +0.237 C 
BRANCH  27  28
ATOM     28  C   UNL     1      34.478 -17.528 -21.362  0.00  0.00    +0.189 C 
BRANCH  28  29
ATOM     29  O   UNL     1      35.611 -18.024 -20.660  0.00  0.00    -0.347 OA
ATOM     30  C   UNL     1      35.851 -19.393 -20.962  0.00  0.00    +0.174 C 
ENDBRANCH  28  29
ENDBRANCH  27  28
ENDBRANCH  26  27
ENDBRANCH   7  26
TORSDOF 10
ENDMDL
MODEL 5
REMARK VINA RESULT:      -8.6      2.849      8.389
REMARK  Name = 176870
REMARK  10 active torsions:
REMARK  status: ('A' for Active; 'I' for Inactive)
REMARK    1  A    between atoms: N_1  and  C_13
REMARK    2  A    between atoms: C_6  and  O_21
REMARK    3  A    between atoms: C_7  and  O_26
REMARK    4  A    between atoms: C_16  and  C_19
REMARK    5  A    between atoms: O_21  and  C_22
REMARK    6  A    between atoms: C_22  and  C_23
REMARK    7  A    between atoms: C_23  and  O_24
REMARK    8  A    between atoms: O_26  and  C_27
REMARK    9  A    between atoms: C_27  and  C_28
REMARK   10  A    between atoms: C_28  and  O_29
REMARK                            x       y       z     vdW  Elec       q    Type
REMARK                         _______ _______ _______ _____ _____    ______ ____
ROOT
ATOM      1  N   UNL     1      34.089 -12.305 -23.812  0.00  0.00    -0.298 N 
ATOM      2  N   UNL     1      33.399 -15.269 -26.618  0.00  0.00    -0.248 NA
ATOM      3  N   UNL     1      33.369 -12.951 -25.957  0.00  0.00    -0.230 NA
ATOM      4  C   UNL     1      34.141 -14.652 -24.422  0.00  0.00    +0.048 C 
ATOM      5  C   UNL     1      33.887 -15.614 -25.413  0.00  0.00    +0.066 C 
ATOM      6  C   UNL     1      34.914 -16.363 -22.891  0.00  0.00    +0.169 C 
ATOM      7  C   UNL     1      34.667 -17.325 -23.864  0.00  0.00    +0.156 C 
ATOM      8  C   UNL     1      34.651 -15.025 -23.166  0.00  0.00    +0.044 C 
ATOM      9  C   UNL     1      33.858 -13.331 -24.761  0.00  0.00    +0.131 C 
ATOM     10  C   UNL     1      34.158 -16.946 -25.111  0.00  0.00    +0.112 C 
ATOM     11  C   UNL     1      33.166 -13.956 -26.824  0.00  0.00    +0.252 C 
ATOM     12  H   UNL     1      34.826 -12.498 -23.190  0.00  0.00    +0.154 HD
ENDROOT
BRANCH   1  13
ATOM     13  C   UNL     1      33.468 -11.066 -23.587  0.00  0.00    +0.050 C 
ATOM     14  C   UNL     1      34.050  -9.895 -24.073  0.00  0.00    +0.023 C 
ATOM     15  C   UNL     1      32.268 -11.007 -22.878  0.00  0.00    +0.015 C 
ATOM     16  C   UNL     1      33.432  -8.665 -23.848  0.00  0.00    +0.044 C 
ATOM     17  C   UNL     1      31.650  -9.777 -22.654  0.00  0.00    +0.002 C 
ATOM     18  C   UNL     1      32.232  -8.606 -23.138  0.00  0.00    +0.008 C 
BRANCH  16  19
ATOM     19  C   UNL     1      34.027  -7.465 -24.345  0.00  0.00    -0.051 C 
ATOM     20  C   UNL     1      34.527  -6.456 -24.761  0.00  0.00    -0.009 C 
ENDBRANCH  16  19
ENDBRANCH   1  13
BRANCH   6  21
ATOM     21  O   UNL     1      35.408 -16.717 -21.674  0.00  0.00    -0.470 OA
BRANCH  21  22
ATOM     22  C   UNL     1      34.777 -16.152 -20.526  0.00  0.00    +0.237 C 
BRANCH  22  23
ATOM     23  C   UNL     1      33.276 -16.161 -20.732  0.00  0.00    +0.189 C 
BRANCH  23  24
ATOM     24  O   UNL     1      32.694 -15.116 -19.961  0.00  0.00    -0.347 OA
ATOM     25  C   UNL     1      32.558 -13.922 -20.720  0.00  0.00    +0.174 C 
ENDBRANCH  23  24
ENDBRANCH  22  23
ENDBRANCH  21  22
ENDBRANCH   6  21
BRANCH   7  26
ATOM     26  O   UNL     1      34.915 -18.641 -23.617  0.00  0.00    -0.474 OA
BRANCH  26  27
ATOM     27  C   UNL     1      34.144 -19.265 -22.593  0.00  0.00    +0.237 C 
BRANCH  27  28
ATOM     28  C   UNL     1      35.080 -19.822 -21.538  0.00  0.00    +0.189 C 
BRANCH  28  29
ATOM     29  O   UNL     1      34.397 -19.870 -20.291  0.00  0.00    -0.347 OA
ATOM     30  C   UNL     1      33.017 -20.163 -20.465  0.00  0.00    +0.174 C 
ENDBRANCH  28  29
ENDBRANCH  27  28
ENDBRANCH  26  27
ENDBRANCH   7  26
TORSDOF 10
ENDMDL
MODEL 6
REMARK VINA RESULT:      -8.5      2.179      4.466
REMARK  Name = 176870
REMARK  10 active torsions:
REMARK  status: ('A' for Active; 'I' for Inactive)
REMARK    1  A    between atoms: N_1  and  C_13
REMARK    2  A    between atoms: C_6  and  O_21
REMARK    3  A    between atoms: C_7  and  O_26
REMARK    4  A    between atoms: C_16  and  C_19
REMARK    5  A    between atoms: O_21  and  C_22
REMARK    6  A    between atoms: C_22  and  C_23
REMARK    7  A    between atoms: C_23  and  O_24
REMARK    8  A    between atoms: O_26  and  C_27
REMARK    9  A    between atoms: C_27  and  C_28
REMARK   10  A    between atoms: C_28  and  O_29
REMARK                            x       y       z     vdW  Elec       q    Type
REMARK                         _______ _______ _______ _____ _____    ______ ____
ROOT
ATOM      1  N   UNL     1      34.605 -15.490 -22.969  0.00  0.00    -0.298 N 
ATOM      2  N   UNL     1      32.033 -13.265 -20.610  0.00  0.00    -0.248 NA
ATOM      3  N   UNL     1      33.278 -15.283 -21.037  0.00  0.00    -0.230 NA
ATOM      4  C   UNL     1      33.373 -13.435 -22.592  0.00  0.00    +0.048 C 
ATOM      5  C   UNL     1      32.498 -12.728 -21.752  0.00  0.00    +0.066 C 
ATOM      6  C   UNL     1      33.463 -11.577 -24.144  0.00  0.00    +0.169 C 
ATOM      7  C   UNL     1      32.597 -10.867 -23.320  0.00  0.00    +0.156 C 
ATOM      8  C   UNL     1      33.853 -12.863 -23.783  0.00  0.00    +0.044 C 
ATOM      9  C   UNL     1      33.725 -14.716 -22.173  0.00  0.00    +0.131 C 
ATOM     10  C   UNL     1      32.123 -11.442 -22.138  0.00  0.00    +0.112 C 
ATOM     11  C   UNL     1      32.448 -14.513 -20.315  0.00  0.00    +0.252 C 
ATOM     12  H   UNL     1      35.250 -14.954 -23.484  0.00  0.00    +0.154 HD
ENDROOT
BRANCH   1  13
ATOM     13  C   UNL     1      34.734 -16.874 -23.165  0.00  0.00    +0.050 C 
ATOM     14  C   UNL     1      34.989 -17.713 -22.080  0.00  0.00    +0.023 C 
ATOM     15  C   UNL     1      34.606 -17.410 -24.446  0.00  0.00    +0.015 C 
ATOM     16  C   UNL     1      35.116 -19.087 -22.276  0.00  0.00    +0.044 C 
ATOM     17  C   UNL     1      34.734 -18.785 -24.643  0.00  0.00    +0.002 C 
ATOM     18  C   UNL     1      34.989 -19.624 -23.558  0.00  0.00    +0.008 C 
BRANCH  16  19
ATOM     19  C   UNL     1      35.377 -19.947 -21.165  0.00  0.00    -0.051 C 
ATOM     20  C   UNL     1      35.597 -20.670 -20.232  0.00  0.00    -0.009 C 
ENDBRANCH  16  19
ENDBRANCH   1  13
BRANCH   6  21
ATOM     21  O   UNL     1      33.932 -11.029 -25.298  0.00  0.00    -0.470 OA
BRANCH  21  22
ATOM     22  C   UNL     1      34.458 -11.924 -26.276  0.00  0.00    +0.237 C 
BRANCH  22  23
ATOM     23  C   UNL     1      33.309 -12.575 -27.021  0.00  0.00    +0.189 C 
BRANCH  23  24
ATOM     24  O   UNL     1      33.659 -13.919 -27.331  0.00  0.00    -0.347 OA
ATOM     25  C   UNL     1      32.944 -14.843 -26.523  0.00  0.00    +0.174 C 
ENDBRANCH  23  24
ENDBRANCH  22  23
ENDBRANCH  21  22
ENDBRANCH   6  21
BRANCH   7  26
ATOM     26  O   UNL     1      32.201  -9.607 -23.654  0.00  0.00    -0.474 OA
BRANCH  26  27
ATOM     27  C   UNL     1      31.892  -8.719 -22.583  0.00  0.00    +0.237 C 
BRANCH  27  28
ATOM     28  C   UNL     1      33.124  -7.899 -22.248  0.00  0.00    +0.189 C 
BRANCH  28  29
ATOM     29  O   UNL     1      33.104  -7.577 -20.863  0.00  0.00    -0.347 OA
ATOM     30  C   UNL     1      32.261  -8.462 -20.135  0.00  0.00    +0.174 C 
ENDBRANCH  28  29
ENDBRANCH  27  28
ENDBRANCH  26  27
ENDBRANCH   7  26
TORSDOF 10
ENDMDL
MODEL 7
REMARK VINA RESULT:      -8.3      3.755      9.740
REMARK  Name = 176870
REMARK  10 active torsions:
REMARK  status: ('A' for Active; 'I' for Inactive)
REMARK    1  A    between atoms: N_1  and  C_13
REMARK    2  A    between atoms: C_6  and  O_21
REMARK    3  A    between atoms: C_7  and  O_26
REMARK    4  A    between atoms: C_16  and  C_19
REMARK    5  A    between atoms: O_21  and  C_22
REMARK    6  A    between atoms: C_22  and  C_23
REMARK    7  A    between atoms: C_23  and  O_24
REMARK    8  A    between atoms: O_26  and  C_27
REMARK    9  A    between atoms: C_27  and  C_28
REMARK   10  A    between atoms: C_28  and  O_29
REMARK                            x       y       z     vdW  Elec       q    Type
REMARK                         _______ _______ _______ _____ _____    ______ ____
ROOT
ATOM      1  N   UNL     1      32.979  -8.987 -22.545  0.00  0.00    -0.298 N 
ATOM      2  N   UNL     1      34.941 -10.931 -25.628  0.00  0.00    -0.248 NA
ATOM      3  N   UNL     1      34.381  -8.914 -24.433  0.00  0.00    -0.230 NA
ATOM      4  C   UNL     1      33.507 -11.049 -23.709  0.00  0.00    +0.048 C 
ATOM      5  C   UNL     1      34.195 -11.653 -24.774  0.00  0.00    +0.066 C 
ATOM      6  C   UNL     1      32.637 -13.192 -22.990  0.00  0.00    +0.169 C 
ATOM      7  C   UNL     1      33.314 -13.802 -24.040  0.00  0.00    +0.156 C 
ATOM      8  C   UNL     1      32.731 -11.814 -22.822  0.00  0.00    +0.044 C 
ATOM      9  C   UNL     1      33.644  -9.667 -23.596  0.00  0.00    +0.131 C 
ATOM     10  C   UNL     1      34.083 -13.034 -24.920  0.00  0.00    +0.112 C 
ATOM     11  C   UNL     1      34.993  -9.601 -25.412  0.00  0.00    +0.252 C 
ATOM     12  H   UNL     1      32.859  -9.530 -21.734  0.00  0.00    +0.154 HD
ENDROOT
BRANCH   1  13
ATOM     13  C   UNL     1      32.458  -7.688 -22.439  0.00  0.00    +0.050 C 
ATOM     14  C   UNL     1      32.343  -6.887 -23.576  0.00  0.00    +0.023 C 
ATOM     15  C   UNL     1      32.055  -7.198 -21.197  0.00  0.00    +0.015 C 
ATOM     16  C   UNL     1      31.825  -5.597 -23.470  0.00  0.00    +0.044 C 
ATOM     17  C   UNL     1      31.537  -5.908 -21.091  0.00  0.00    +0.002 C 
ATOM     18  C   UNL     1      31.422  -5.106 -22.227  0.00  0.00    +0.008 C 
BRANCH  16  19
ATOM     19  C   UNL     1      31.707  -4.775 -24.632  0.00  0.00    -0.051 C 
ATOM     20  C   UNL     1      31.608  -4.085 -25.610  0.00  0.00    -0.009 C 
ENDBRANCH  16  19
ENDBRANCH   1  13
BRANCH   6  21
ATOM     21  O   UNL     1      31.885 -13.928 -22.127  0.00  0.00    -0.470 OA
BRANCH  21  22
ATOM     22  C   UNL     1      32.400 -14.110 -20.809  0.00  0.00    +0.237 C 
BRANCH  22  23
ATOM     23  C   UNL     1      32.956 -15.515 -20.686  0.00  0.00    +0.189 C 
BRANCH  23  24
ATOM     24  O   UNL     1      34.366 -15.475 -20.881  0.00  0.00    -0.347 OA
ATOM     25  C   UNL     1      34.879 -16.753 -21.232  0.00  0.00    +0.174 C 
ENDBRANCH  23  24
ENDBRANCH  22  23
ENDBRANCH  21  22
ENDBRANCH   6  21
BRANCH   7  26
ATOM     26  O   UNL     1      33.235 -15.150 -24.225  0.00  0.00    -0.474 OA
BRANCH  26  27
ATOM     27  C   UNL     1      33.762 -15.669 -25.444  0.00  0.00    +0.237 C 
BRANCH  27  28
ATOM     28  C   UNL     1      34.750 -16.774 -25.126  0.00  0.00    +0.189 C 
BRANCH  28  29
ATOM     29  O   UNL     1      34.165 -18.028 -25.453  0.00  0.00    -0.347 OA
ATOM     30  C   UNL     1      34.612 -19.055 -24.578  0.00  0.00    +0.174 C 
ENDBRANCH  28  29
ENDBRANCH  27  28
ENDBRANCH  26  27
ENDBRANCH   7  26
TORSDOF 10
ENDMDL
MODEL 8
REMARK VINA RESULT:      -8.3      2.240      4.373
REMARK  Name = 176870
REMARK  10 active torsions:
REMARK  status: ('A' for Active; 'I' for Inactive)
REMARK    1  A    between atoms: N_1  and  C_13
REMARK    2  A    between atoms: C_6  and  O_21
REMARK    3  A    between atoms: C_7  and  O_26
REMARK    4  A    between atoms: C_16  and  C_19
REMARK    5  A    between atoms: O_21  and  C_22
REMARK    6  A    between atoms: C_22  and  C_23
REMARK    7  A    between atoms: C_23  and  O_24
REMARK    8  A    between atoms: O_26  and  C_27
REMARK    9  A    between atoms: C_27  and  C_28
REMARK   10  A    between atoms: C_28  and  O_29
REMARK                            x       y       z     vdW  Elec       q    Type
REMARK                         _______ _______ _______ _____ _____    ______ ____
ROOT
ATOM      1  N   UNL     1      34.508 -15.414 -22.990  0.00  0.00    -0.298 N 
ATOM      2  N   UNL     1      32.038 -13.328 -20.406  0.00  0.00    -0.248 NA
ATOM      3  N   UNL     1      33.307 -15.297 -20.970  0.00  0.00    -0.230 NA
ATOM      4  C   UNL     1      33.248 -13.406 -22.475  0.00  0.00    +0.048 C 
ATOM      5  C   UNL     1      32.411 -12.747 -21.560  0.00  0.00    +0.066 C 
ATOM      6  C   UNL     1      33.184 -11.507 -23.977  0.00  0.00    +0.169 C 
ATOM      7  C   UNL     1      32.355 -10.844 -23.079  0.00  0.00    +0.156 C 
ATOM      8  C   UNL     1      33.632 -12.789 -23.678  0.00  0.00    +0.044 C 
ATOM      9  C   UNL     1      33.662 -14.687 -22.116  0.00  0.00    +0.131 C 
ATOM     10  C   UNL     1      31.977 -11.464 -21.884  0.00  0.00    +0.112 C 
ATOM     11  C   UNL     1      32.506 -14.571 -20.174  0.00  0.00    +0.252 C 
ATOM     12  H   UNL     1      35.103 -14.846 -23.531  0.00  0.00    +0.154 HD
ENDROOT
BRANCH   1  13
ATOM     13  C   UNL     1      34.662 -16.788 -23.233  0.00  0.00    +0.050 C 
ATOM     14  C   UNL     1      34.921 -17.660 -22.175  0.00  0.00    +0.023 C 
ATOM     15  C   UNL     1      34.554 -17.281 -24.533  0.00  0.00    +0.015 C 
ATOM     16  C   UNL     1      35.073 -19.025 -22.418  0.00  0.00    +0.044 C 
ATOM     17  C   UNL     1      34.707 -18.646 -24.776  0.00  0.00    +0.002 C 
ATOM     18  C   UNL     1      34.966 -19.518 -23.719  0.00  0.00    +0.008 C 
BRANCH  16  19
ATOM     19  C   UNL     1      35.339 -19.918 -21.335  0.00  0.00    -0.051 C 
ATOM     20  C   UNL     1      35.561 -20.669 -20.426  0.00  0.00    -0.009 C 
ENDBRANCH  16  19
ENDBRANCH   1  13
BRANCH   6  21
ATOM     21  O   UNL     1      33.560 -10.914 -25.143  0.00  0.00    -0.470 OA
BRANCH  21  22
ATOM     22  C   UNL     1      34.957 -10.714 -25.349  0.00  0.00    +0.237 C 
BRANCH  22  23
ATOM     23  C   UNL     1      35.275  -9.240 -25.183  0.00  0.00    +0.189 C 
BRANCH  23  24
ATOM     24  O   UNL     1      35.222  -8.906 -23.801  0.00  0.00    -0.347 OA
ATOM     25  C   UNL     1      34.806  -7.561 -23.606  0.00  0.00    +0.174 C 
ENDBRANCH  23  24
ENDBRANCH  22  23
ENDBRANCH  21  22
ENDBRANCH   6  21
BRANCH   7  26
ATOM     26  O   UNL     1      31.903  -9.588 -23.351  0.00  0.00    -0.474 OA
BRANCH  26  27
ATOM     27  C   UNL     1      31.578  -8.760 -22.236  0.00  0.00    +0.237 C 
BRANCH  27  28
ATOM     28  C   UNL     1      31.238  -7.368 -22.734  0.00  0.00    +0.189 C 
BRANCH  28  29
ATOM     29  O   UNL     1      31.922  -6.410 -21.937  0.00  0.00    -0.347 OA
ATOM     30  C   UNL     1      32.163  -6.902 -20.625  0.00  0.00    +0.174 C 
ENDBRANCH  28  29
ENDBRANCH  27  28
ENDBRANCH  26  27
ENDBRANCH   7  26
TORSDOF 10
ENDMDL
MODEL 9
REMARK VINA RESULT:      -8.1      1.749      2.497
REMARK  Name = 176870
REMARK  10 active torsions:
REMARK  status: ('A' for Active; 'I' for Inactive)
REMARK    1  A    between atoms: N_1  and  C_13
REMARK    2  A    between atoms: C_6  and  O_21
REMARK    3  A    between atoms: C_7  and  O_26
REMARK    4  A    between atoms: C_16  and  C_19
REMARK    5  A    between atoms: O_21  and  C_22
REMARK    6  A    between atoms: C_22  and  C_23
REMARK    7  A    between atoms: C_23  and  O_24
REMARK    8  A    between atoms: O_26  and  C_27
REMARK    9  A    between atoms: C_27  and  C_28
REMARK   10  A    between atoms: C_28  and  O_29
REMARK                            x       y       z     vdW  Elec       q    Type
REMARK                         _______ _______ _______ _____ _____    ______ ____
ROOT
ATOM      1  N   UNL     1      34.055 -19.048 -21.004  0.00  0.00    -0.298 N 
ATOM      2  N   UNL     1      35.013 -17.726 -24.807  0.00  0.00    -0.248 NA
ATOM      3  N   UNL     1      34.732 -19.508 -23.210  0.00  0.00    -0.230 NA
ATOM      4  C   UNL     1      34.322 -17.213 -22.568  0.00  0.00    +0.048 C 
ATOM      5  C   UNL     1      34.658 -16.824 -23.875  0.00  0.00    +0.066 C 
ATOM      6  C   UNL     1      33.913 -14.911 -21.935  0.00  0.00    +0.169 C 
ATOM      7  C   UNL     1      34.243 -14.513 -23.225  0.00  0.00    +0.156 C 
ATOM      8  C   UNL     1      33.952 -16.262 -21.602  0.00  0.00    +0.044 C 
ATOM      9  C   UNL     1      34.380 -18.579 -22.301  0.00  0.00    +0.131 C 
ATOM     10  C   UNL     1      34.612 -15.465 -24.181  0.00  0.00    +0.112 C 
ATOM     11  C   UNL     1      35.031 -19.018 -24.424  0.00  0.00    +0.252 C 
ATOM     12  H   UNL     1      33.395 -18.490 -20.534  0.00  0.00    +0.154 HD
ENDROOT
BRANCH   1  13
ATOM     13  C   UNL     1      34.493 -20.154 -20.259  0.00  0.00    +0.050 C 
ATOM     14  C   UNL     1      33.587 -20.876 -19.482  0.00  0.00    +0.023 C 
ATOM     15  C   UNL     1      35.835 -20.532 -20.298  0.00  0.00    +0.015 C 
ATOM     16  C   UNL     1      34.023 -21.975 -18.742  0.00  0.00    +0.044 C 
ATOM     17  C   UNL     1      36.272 -21.631 -19.559  0.00  0.00    +0.002 C 
ATOM     18  C   UNL     1      35.367 -22.353 -18.780  0.00  0.00    +0.008 C 
BRANCH  16  19
ATOM     19  C   UNL     1      33.097 -22.714 -17.945  0.00  0.00    -0.051 C 
ATOM     20  C   UNL     1      32.319 -23.336 -17.275  0.00  0.00    -0.009 C 
ENDBRANCH  16  19
ENDBRANCH   1  13
BRANCH   6  21
ATOM     21  O   UNL     1      33.553 -13.995 -20.995  0.00  0.00    -0.470 OA
BRANCH  21  22
ATOM     22  C   UNL     1      32.156 -13.796 -20.783  0.00  0.00    +0.237 C 
BRANCH  22  23
ATOM     23  C   UNL     1      31.858 -12.310 -20.812  0.00  0.00    +0.189 C 
BRANCH  23  24
ATOM     24  O   UNL     1      31.600 -11.914 -22.155  0.00  0.00    -0.347 OA
ATOM     25  C   UNL     1      31.643 -10.501 -22.298  0.00  0.00    +0.174 C 
ENDBRANCH  23  24
ENDBRANCH  22  23
ENDBRANCH  21  22
ENDBRANCH   6  21
BRANCH   7  26
ATOM     26  O   UNL     1      34.213 -13.196 -23.573  0.00  0.00    -0.474 OA
BRANCH  26  27
ATOM     27  C   UNL     1      33.737 -12.882 -24.880  0.00  0.00    +0.237 C 
BRANCH  27  28
ATOM     28  C   UNL     1      32.484 -13.689 -25.158  0.00  0.00    +0.189 C 
BRANCH  28  29
ATOM     29  O   UNL     1      32.503 -14.123 -26.512  0.00  0.00    -0.347 OA
ATOM     30  C   UNL     1      33.362 -13.315 -27.305  0.00  0.00    +0.174 C 
ENDBRANCH  28  29
ENDBRANCH  27  28
ENDBRANCH  26  27
ENDBRANCH   7  26
TORSDOF 10
ENDMDL
