MODEL 1
REMARK VINA RESULT:     -11.8      0.000      0.000
REMARK  Name = 23400214
REMARK  3 active torsions:
REMARK  status: ('A' for Active; 'I' for Inactive)
REMARK    1  A    between atoms: N_1  and  C_10
REMARK    2  A    between atoms: N_16  and  C_18
REMARK    3  A    between atoms: C_21  and  C_27
REMARK                            x       y       z     vdW  Elec       q    Type
REMARK                         _______ _______ _______ _____ _____    ______ ____
ROOT
ATOM      1  N   UNL     1      32.875  -9.117 -23.166  0.00  0.00    -0.176 N 
ATOM      2  N   UNL     1      33.938  -9.037 -23.989  0.00  0.00    -0.175 NA
ATOM      3  N   UNL     1      31.525 -10.784 -22.046  0.00  0.00    -0.231 NA
ATOM      4  N   UNL     1      32.296 -13.047 -22.532  0.00  0.00    -0.233 NA
ATOM      5  C   UNL     1      33.437 -11.212 -23.499  0.00  0.00    +0.152 C 
ATOM      6  C   UNL     1      32.534 -10.396 -22.841  0.00  0.00    +0.141 C 
ATOM      7  C   UNL     1      33.294 -12.584 -23.323  0.00  0.00    +0.118 C 
ATOM      8  C   UNL     1      34.275 -10.316 -24.188  0.00  0.00    +0.106 C 
ATOM      9  C   UNL     1      31.485 -12.131 -21.951  0.00  0.00    +0.253 C 
ATOM     10  N   UNL     1      34.168 -13.488 -23.953  0.00  0.00    -0.301 N 
ATOM     11  H   UNL     1      34.857 -13.051 -24.504  0.00  0.00    +0.153 HD
ENDROOT
BRANCH  10  12
ATOM     12  C   UNL     1      34.254 -14.896 -23.953  0.00  0.00    +0.045 C 
ATOM     13  C   UNL     1      33.889 -15.634 -25.078  0.00  0.00    -0.008 C 
ATOM     14  C   UNL     1      34.711 -15.551 -22.809  0.00  0.00    +0.019 C 
ATOM     15  C   UNL     1      34.801 -16.943 -22.790  0.00  0.00    +0.055 C 
ATOM     16  C   UNL     1      33.978 -17.026 -25.060  0.00  0.00    -0.003 C 
ATOM     17  C   UNL     1      34.436 -17.680 -23.916  0.00  0.00    +0.004 C 
ATOM     18  C   UNL     1      33.396 -14.960 -26.318  0.00  0.00    +0.032 C 
BRANCH  15  21
ATOM     19  O   UNL     1      35.401 -17.007 -20.525  0.00  0.00    -0.270 OA
ATOM     20  N   UNL     1      35.561 -18.991 -21.716  0.00  0.00    -0.299 N 
ATOM     21  C   UNL     1      35.277 -17.625 -21.597  0.00  0.00    +0.246 C 
ATOM     22  C   UNL     1      36.019 -19.809 -20.617  0.00  0.00    +0.111 C 
ATOM     23  H   UNL     1      35.440 -19.416 -22.595  0.00  0.00    +0.150 HD
ENDBRANCH  15  21
ENDBRANCH  10  12
BRANCH   1  24
ATOM     24  C   UNL     1      32.239  -7.956 -22.732  0.00  0.00    +0.075 C 
ATOM     25  C   UNL     1      31.370  -7.275 -23.585  0.00  0.00    +0.017 C 
ATOM     26  C   UNL     1      32.470  -7.473 -21.443  0.00  0.00    +0.017 C 
ATOM     27  C   UNL     1      30.733  -6.113 -23.150  0.00  0.00    +0.001 C 
ATOM     28  C   UNL     1      31.834  -6.312 -21.008  0.00  0.00    +0.001 C 
ATOM     29  C   UNL     1      30.965  -5.630 -21.862  0.00  0.00    +0.000 C 
ENDBRANCH   1  24
TORSDOF 3
ENDMDL
MODEL 2
REMARK VINA RESULT:     -11.2      0.941      1.996
REMARK  Name = 23400214
REMARK  3 active torsions:
REMARK  status: ('A' for Active; 'I' for Inactive)
REMARK    1  A    between atoms: N_1  and  C_10
REMARK    2  A    between atoms: N_16  and  C_18
REMARK    3  A    between atoms: C_21  and  C_27
REMARK                            x       y       z     vdW  Elec       q    Type
REMARK                         _______ _______ _______ _____ _____    ______ ____
ROOT
ATOM      1  N   UNL     1      31.875  -9.810 -22.409  0.00  0.00    -0.176 N 
ATOM      2  N   UNL     1      31.102 -10.542 -21.584  0.00  0.00    -0.175 NA
ATOM      3  N   UNL     1      33.598 -10.112 -24.082  0.00  0.00    -0.231 NA
ATOM      4  N   UNL     1      34.135 -12.469 -24.410  0.00  0.00    -0.233 NA
ATOM      5  C   UNL     1      32.478 -11.879 -22.827  0.00  0.00    +0.152 C 
ATOM      6  C   UNL     1      32.716 -10.561 -23.175  0.00  0.00    +0.141 C 
ATOM      7  C   UNL     1      33.226 -12.851 -23.481  0.00  0.00    +0.118 C 
ATOM      8  C   UNL     1      31.474 -11.800 -21.843  0.00  0.00    +0.106 C 
ATOM      9  C   UNL     1      34.263 -11.142 -24.649  0.00  0.00    +0.253 C 
ATOM     10  N   UNL     1      33.050 -14.215 -23.189  0.00  0.00    -0.301 N 
ATOM     11  H   UNL     1      32.367 -14.387 -22.502  0.00  0.00    +0.153 HD
ENDROOT
BRANCH  10  12
ATOM     12  C   UNL     1      33.658 -15.388 -23.687  0.00  0.00    +0.045 C 
ATOM     13  C   UNL     1      33.608 -15.695 -25.046  0.00  0.00    -0.008 C 
ATOM     14  C   UNL     1      34.315 -16.242 -22.803  0.00  0.00    +0.019 C 
ATOM     15  C   UNL     1      34.921 -17.406 -23.277  0.00  0.00    +0.055 C 
ATOM     16  C   UNL     1      34.214 -16.859 -25.522  0.00  0.00    -0.003 C 
ATOM     17  C   UNL     1      34.872 -17.714 -24.636  0.00  0.00    +0.004 C 
ATOM     18  C   UNL     1      32.911 -14.798 -26.017  0.00  0.00    +0.032 C 
BRANCH  15  21
ATOM     19  O   UNL     1      36.843 -18.246 -22.230  0.00  0.00    -0.270 OA
ATOM     20  N   UNL     1      34.812 -19.181 -21.615  0.00  0.00    -0.299 N 
ATOM     21  C   UNL     1      35.607 -18.298 -22.354  0.00  0.00    +0.246 C 
ATOM     22  C   UNL     1      35.343 -20.110 -20.644  0.00  0.00    +0.111 C 
ATOM     23  H   UNL     1      33.840 -19.168 -21.764  0.00  0.00    +0.150 HD
ENDBRANCH  15  21
ENDBRANCH  10  12
BRANCH   1  24
ATOM     24  C   UNL     1      31.765  -8.421 -22.420  0.00  0.00    +0.075 C 
ATOM     25  C   UNL     1      32.270  -7.673 -21.357  0.00  0.00    +0.017 C 
ATOM     26  C   UNL     1      31.150  -7.778 -23.495  0.00  0.00    +0.017 C 
ATOM     27  C   UNL     1      32.160  -6.282 -21.368  0.00  0.00    +0.001 C 
ATOM     28  C   UNL     1      31.039  -6.388 -23.506  0.00  0.00    +0.001 C 
ATOM     29  C   UNL     1      31.545  -5.639 -22.442  0.00  0.00    +0.000 C 
ENDBRANCH   1  24
TORSDOF 3
ENDMDL
MODEL 3
REMARK VINA RESULT:     -11.0      2.836      5.381
REMARK  Name = 23400214
REMARK  3 active torsions:
REMARK  status: ('A' for Active; 'I' for Inactive)
REMARK    1  A    between atoms: N_1  and  C_10
REMARK    2  A    between atoms: N_16  and  C_18
REMARK    3  A    between atoms: C_21  and  C_27
REMARK                            x       y       z     vdW  Elec       q    Type
REMARK                         _______ _______ _______ _____ _____    ______ ____
ROOT
ATOM      1  N   UNL     1      33.697 -13.973 -23.409  0.00  0.00    -0.176 N 
ATOM      2  N   UNL     1      33.602 -14.762 -24.496  0.00  0.00    -0.175 NA
ATOM      3  N   UNL     1      34.278 -14.118 -21.064  0.00  0.00    -0.231 NA
ATOM      4  N   UNL     1      34.891 -16.391 -20.425  0.00  0.00    -0.233 NA
ATOM      5  C   UNL     1      34.275 -15.956 -22.668  0.00  0.00    +0.152 C 
ATOM      6  C   UNL     1      34.097 -14.637 -22.288  0.00  0.00    +0.141 C 
ATOM      7  C   UNL     1      34.688 -16.847 -21.684  0.00  0.00    +0.118 C 
ATOM      8  C   UNL     1      33.955 -15.967 -24.039  0.00  0.00    +0.106 C 
ATOM      9  C   UNL     1      34.677 -15.074 -20.196  0.00  0.00    +0.253 C 
ATOM     10  N   UNL     1      34.894 -18.206 -21.981  0.00  0.00    -0.301 N 
ATOM     11  H   UNL     1      34.720 -18.435 -22.922  0.00  0.00    +0.153 HD
ENDROOT
BRANCH  10  12
ATOM     12  C   UNL     1      35.301 -19.307 -21.198  0.00  0.00    +0.045 C 
ATOM     13  C   UNL     1      36.653 -19.621 -21.055  0.00  0.00    -0.008 C 
ATOM     14  C   UNL     1      34.335 -20.084 -20.560  0.00  0.00    +0.019 C 
ATOM     15  C   UNL     1      34.719 -21.177 -19.782  0.00  0.00    +0.055 C 
ATOM     16  C   UNL     1      37.038 -20.713 -20.278  0.00  0.00    -0.003 C 
ATOM     17  C   UNL     1      36.070 -21.491 -19.640  0.00  0.00    +0.004 C 
ATOM     18  C   UNL     1      37.711 -18.806 -21.726  0.00  0.00    +0.032 C 
BRANCH  15  21
ATOM     19  O   UNL     1      32.582 -22.127 -19.621  0.00  0.00    -0.270 OA
ATOM     20  N   UNL     1      34.081 -22.607 -17.918  0.00  0.00    -0.299 N 
ATOM     21  C   UNL     1      33.711 -21.988 -19.118  0.00  0.00    +0.246 C 
ATOM     22  C   UNL     1      33.200 -23.460 -17.156  0.00  0.00    +0.111 C 
ATOM     23  H   UNL     1      34.991 -22.454 -17.578  0.00  0.00    +0.150 HD
ENDBRANCH  15  21
ENDBRANCH  10  12
BRANCH   1  24
ATOM     24  C   UNL     1      33.399 -12.615 -23.502  0.00  0.00    +0.075 C 
ATOM     25  C   UNL     1      34.101 -11.806 -24.396  0.00  0.00    +0.017 C 
ATOM     26  C   UNL     1      32.399 -12.063 -22.701  0.00  0.00    +0.017 C 
ATOM     27  C   UNL     1      33.804 -10.446 -24.488  0.00  0.00    +0.001 C 
ATOM     28  C   UNL     1      32.101 -10.704 -22.793  0.00  0.00    +0.001 C 
ATOM     29  C   UNL     1      32.804  -9.895 -23.687  0.00  0.00    +0.000 C 
ENDBRANCH   1  24
TORSDOF 3
ENDMDL
MODEL 4
REMARK VINA RESULT:     -10.7      7.150     11.202
REMARK  Name = 23400214
REMARK  3 active torsions:
REMARK  status: ('A' for Active; 'I' for Inactive)
REMARK    1  A    between atoms: N_1  and  C_10
REMARK    2  A    between atoms: N_16  and  C_18
REMARK    3  A    between atoms: C_21  and  C_27
REMARK                            x       y       z     vdW  Elec       q    Type
REMARK                         _______ _______ _______ _____ _____    ______ ____
ROOT
ATOM      1  N   UNL     1      34.119 -19.729 -21.331  0.00  0.00    -0.176 N 
ATOM      2  N   UNL     1      32.839 -20.064 -21.078  0.00  0.00    -0.175 NA
ATOM      3  N   UNL     1      36.339 -20.108 -20.445  0.00  0.00    -0.231 NA
ATOM      4  N   UNL     1      36.292 -21.542 -18.473  0.00  0.00    -0.233 NA
ATOM      5  C   UNL     1      34.254 -21.004 -19.550  0.00  0.00    +0.152 C 
ATOM      6  C   UNL     1      35.006 -20.266 -20.447  0.00  0.00    +0.141 C 
ATOM      7  C   UNL     1      34.944 -21.658 -18.535  0.00  0.00    +0.118 C 
ATOM      8  C   UNL     1      32.929 -20.840 -19.993  0.00  0.00    +0.106 C 
ATOM      9  C   UNL     1      36.898 -20.786 -19.418  0.00  0.00    +0.253 C 
ATOM     10  N   UNL     1      34.259 -22.431 -17.579  0.00  0.00    -0.301 N 
ATOM     11  H   UNL     1      33.285 -22.451 -17.712  0.00  0.00    +0.153 HD
ENDROOT
BRANCH  10  12
ATOM     12  C   UNL     1      34.694 -23.184 -16.467  0.00  0.00    +0.045 C 
ATOM     13  C   UNL     1      33.774 -23.742 -15.581  0.00  0.00    -0.008 C 
ATOM     14  C   UNL     1      36.061 -23.368 -16.261  0.00  0.00    +0.019 C 
ATOM     15  C   UNL     1      36.508 -24.109 -15.167  0.00  0.00    +0.055 C 
ATOM     16  C   UNL     1      34.220 -24.483 -14.486  0.00  0.00    -0.003 C 
ATOM     17  C   UNL     1      35.588 -24.667 -14.280  0.00  0.00    +0.004 C 
ATOM     18  C   UNL     1      32.303 -23.561 -15.776  0.00  0.00    +0.032 C 
BRANCH  15  21
ATOM     19  O   UNL     1      38.760 -23.539 -15.486  0.00  0.00    -0.270 OA
ATOM     20  N   UNL     1      38.314 -25.353 -14.111  0.00  0.00    -0.299 N 
ATOM     21  C   UNL     1      37.934 -24.301 -14.952  0.00  0.00    +0.246 C 
ATOM     22  C   UNL     1      39.688 -25.655 -13.783  0.00  0.00    +0.111 C 
ATOM     23  H   UNL     1      37.608 -25.916 -13.722  0.00  0.00    +0.150 HD
ENDBRANCH  15  21
ENDBRANCH  10  12
BRANCH   1  24
ATOM     24  C   UNL     1      34.426 -18.908 -22.414  0.00  0.00    +0.075 C 
ATOM     25  C   UNL     1      34.626 -17.542 -22.219  0.00  0.00    +0.017 C 
ATOM     26  C   UNL     1      34.532 -19.452 -23.695  0.00  0.00    +0.017 C 
ATOM     27  C   UNL     1      34.932 -16.719 -23.304  0.00  0.00    +0.001 C 
ATOM     28  C   UNL     1      34.839 -18.630 -24.779  0.00  0.00    +0.001 C 
ATOM     29  C   UNL     1      35.039 -17.263 -24.583  0.00  0.00    +0.000 C 
ENDBRANCH   1  24
TORSDOF 3
ENDMDL
MODEL 5
REMARK VINA RESULT:     -10.7      3.170      9.398
REMARK  Name = 23400214
REMARK  3 active torsions:
REMARK  status: ('A' for Active; 'I' for Inactive)
REMARK    1  A    between atoms: N_1  and  C_10
REMARK    2  A    between atoms: N_16  and  C_18
REMARK    3  A    between atoms: C_21  and  C_27
REMARK                            x       y       z     vdW  Elec       q    Type
REMARK                         _______ _______ _______ _____ _____    ______ ____
ROOT
ATOM      1  N   UNL     1      33.104 -13.844 -23.306  0.00  0.00    -0.176 N 
ATOM      2  N   UNL     1      32.197 -13.933 -22.315  0.00  0.00    -0.175 NA
ATOM      3  N   UNL     1      34.249 -12.165 -24.621  0.00  0.00    -0.231 NA
ATOM      4  N   UNL     1      33.578  -9.908 -23.985  0.00  0.00    -0.233 NA
ATOM      5  C   UNL     1      32.614 -11.752 -22.858  0.00  0.00    +0.152 C 
ATOM      6  C   UNL     1      33.390 -12.562 -23.669  0.00  0.00    +0.141 C 
ATOM      7  C   UNL     1      32.729 -10.379 -23.040  0.00  0.00    +0.118 C 
ATOM      8  C   UNL     1      31.903 -12.656 -22.046  0.00  0.00    +0.106 C 
ATOM      9  C   UNL     1      34.276 -10.817 -24.706  0.00  0.00    +0.253 C 
ATOM     10  N   UNL     1      31.978  -9.482 -22.260  0.00  0.00    -0.301 N 
ATOM     11  H   UNL     1      31.393  -9.924 -21.603  0.00  0.00    +0.153 HD
ENDROOT
BRANCH  10  12
ATOM     12  C   UNL     1      31.897  -8.073 -22.231  0.00  0.00    +0.045 C 
ATOM     13  C   UNL     1      31.956  -7.380 -21.022  0.00  0.00    -0.008 C 
ATOM     14  C   UNL     1      31.757  -7.374 -23.429  0.00  0.00    +0.019 C 
ATOM     15  C   UNL     1      31.675  -5.981 -23.419  0.00  0.00    +0.055 C 
ATOM     16  C   UNL     1      31.873  -5.987 -21.011  0.00  0.00    -0.003 C 
ATOM     17  C   UNL     1      31.734  -5.287 -22.211  0.00  0.00    +0.004 C 
ATOM     18  C   UNL     1      32.106  -8.102 -19.722  0.00  0.00    +0.032 C 
BRANCH  15  21
ATOM     19  O   UNL     1      30.464  -4.668 -24.938  0.00  0.00    -0.270 OA
ATOM     20  N   UNL     1      32.637  -5.226 -25.524  0.00  0.00    -0.299 N 
ATOM     21  C   UNL     1      31.529  -5.252 -24.670  0.00  0.00    +0.246 C 
ATOM     22  C   UNL     1      32.654  -4.526 -26.788  0.00  0.00    +0.111 C 
ATOM     23  H   UNL     1      33.448  -5.710 -25.248  0.00  0.00    +0.150 HD
ENDBRANCH  15  21
ENDBRANCH  10  12
BRANCH   1  24
ATOM     24  C   UNL     1      33.653 -15.000 -23.856  0.00  0.00    +0.075 C 
ATOM     25  C   UNL     1      33.369 -15.347 -25.177  0.00  0.00    +0.017 C 
ATOM     26  C   UNL     1      34.487 -15.812 -23.087  0.00  0.00    +0.017 C 
ATOM     27  C   UNL     1      33.918 -16.506 -25.728  0.00  0.00    +0.001 C 
ATOM     28  C   UNL     1      35.036 -16.970 -23.637  0.00  0.00    +0.001 C 
ATOM     29  C   UNL     1      34.752 -17.317 -24.959  0.00  0.00    +0.000 C 
ENDBRANCH   1  24
TORSDOF 3
ENDMDL
MODEL 6
REMARK VINA RESULT:     -10.3      7.205     10.973
REMARK  Name = 23400214
REMARK  3 active torsions:
REMARK  status: ('A' for Active; 'I' for Inactive)
REMARK    1  A    between atoms: N_1  and  C_10
REMARK    2  A    between atoms: N_16  and  C_18
REMARK    3  A    between atoms: C_21  and  C_27
REMARK                            x       y       z     vdW  Elec       q    Type
REMARK                         _______ _______ _______ _____ _____    ______ ____
ROOT
ATOM      1  N   UNL     1      35.685 -19.410 -21.500  0.00  0.00    -0.176 N 
ATOM      2  N   UNL     1      36.973 -19.398 -21.111  0.00  0.00    -0.175 NA
ATOM      3  N   UNL     1      33.556 -20.339 -20.818  0.00  0.00    -0.231 NA
ATOM      4  N   UNL     1      33.764 -21.683 -18.793  0.00  0.00    -0.233 NA
ATOM      5  C   UNL     1      35.696 -20.649 -19.689  0.00  0.00    +0.152 C 
ATOM      6  C   UNL     1      34.877 -20.144 -20.683  0.00  0.00    +0.141 C 
ATOM      7  C   UNL     1      35.096 -21.445 -18.719  0.00  0.00    +0.118 C 
ATOM      8  C   UNL     1      36.974 -20.153 -20.008  0.00  0.00    +0.106 C 
ATOM      9  C   UNL     1      33.086 -21.123 -19.823  0.00  0.00    +0.253 C 
ATOM     10  N   UNL     1      35.852 -22.000 -17.671  0.00  0.00    -0.301 N 
ATOM     11  H   UNL     1      36.808 -21.767 -17.708  0.00  0.00    +0.153 HD
ENDROOT
BRANCH  10  12
ATOM     12  C   UNL     1      35.513 -22.824 -16.577  0.00  0.00    +0.045 C 
ATOM     13  C   UNL     1      36.503 -23.361 -15.755  0.00  0.00    -0.008 C 
ATOM     14  C   UNL     1      34.170 -23.099 -16.323  0.00  0.00    +0.019 C 
ATOM     15  C   UNL     1      33.816 -23.914 -15.246  0.00  0.00    +0.055 C 
ATOM     16  C   UNL     1      36.150 -24.176 -14.678  0.00  0.00    -0.003 C 
ATOM     17  C   UNL     1      34.806 -24.451 -14.423  0.00  0.00    +0.004 C 
ATOM     18  C   UNL     1      37.950 -23.084 -16.003  0.00  0.00    +0.032 C 
BRANCH  15  21
ATOM     19  O   UNL     1      32.096 -25.038 -14.118  0.00  0.00    -0.270 OA
ATOM     20  N   UNL     1      31.467 -23.481 -15.717  0.00  0.00    -0.299 N 
ATOM     21  C   UNL     1      32.415 -24.201 -14.980  0.00  0.00    +0.246 C 
ATOM     22  C   UNL     1      30.041 -23.637 -15.551  0.00  0.00    +0.111 C 
ATOM     23  H   UNL     1      31.791 -22.833 -16.384  0.00  0.00    +0.150 HD
ENDBRANCH  15  21
ENDBRANCH  10  12
BRANCH   1  24
ATOM     24  C   UNL     1      35.291 -18.713 -22.641  0.00  0.00    +0.075 C 
ATOM     25  C   UNL     1      34.897 -19.410 -23.783  0.00  0.00    +0.017 C 
ATOM     26  C   UNL     1      35.293 -17.318 -22.642  0.00  0.00    +0.017 C 
ATOM     27  C   UNL     1      34.504 -18.712 -24.925  0.00  0.00    +0.001 C 
ATOM     28  C   UNL     1      34.901 -16.620 -23.783  0.00  0.00    +0.001 C 
ATOM     29  C   UNL     1      34.506 -17.317 -24.926  0.00  0.00    +0.000 C 
ENDBRANCH   1  24
TORSDOF 3
ENDMDL
MODEL 7
REMARK VINA RESULT:     -10.2      2.365      9.023
REMARK  Name = 23400214
REMARK  3 active torsions:
REMARK  status: ('A' for Active; 'I' for Inactive)
REMARK    1  A    between atoms: N_1  and  C_10
REMARK    2  A    between atoms: N_16  and  C_18
REMARK    3  A    between atoms: C_21  and  C_27
REMARK                            x       y       z     vdW  Elec       q    Type
REMARK                         _______ _______ _______ _____ _____    ______ ____
ROOT
ATOM      1  N   UNL     1      34.884 -17.995 -22.048  0.00  0.00    -0.176 N 
ATOM      2  N   UNL     1      34.716 -18.153 -23.374  0.00  0.00    -0.175 NA
ATOM      3  N   UNL     1      34.793 -16.256 -20.366  0.00  0.00    -0.231 NA
ATOM      4  N   UNL     1      34.219 -14.092 -21.335  0.00  0.00    -0.233 NA
ATOM      5  C   UNL     1      34.378 -15.979 -22.755  0.00  0.00    +0.152 C 
ATOM      6  C   UNL     1      34.693 -16.713 -21.624  0.00  0.00    +0.141 C 
ATOM      7  C   UNL     1      34.136 -14.621 -22.579  0.00  0.00    +0.118 C 
ATOM      8  C   UNL     1      34.408 -16.923 -23.799  0.00  0.00    +0.106 C 
ATOM      9  C   UNL     1      34.537 -14.930 -20.320  0.00  0.00    +0.253 C 
ATOM     10  N   UNL     1      33.809 -13.800 -23.673  0.00  0.00    -0.301 N 
ATOM     11  H   UNL     1      33.774 -14.280 -24.531  0.00  0.00    +0.153 HD
ENDROOT
BRANCH  10  12
ATOM     12  C   UNL     1      33.520 -12.423 -23.784  0.00  0.00    +0.045 C 
ATOM     13  C   UNL     1      33.771 -11.734 -24.971  0.00  0.00    -0.008 C 
ATOM     14  C   UNL     1      32.978 -11.750 -22.689  0.00  0.00    +0.019 C 
ATOM     15  C   UNL     1      32.687 -10.388 -22.781  0.00  0.00    +0.055 C 
ATOM     16  C   UNL     1      33.480 -10.373 -25.063  0.00  0.00    -0.003 C 
ATOM     17  C   UNL     1      32.937  -9.700 -23.967  0.00  0.00    +0.004 C 
ATOM     18  C   UNL     1      34.351 -12.429 -26.160  0.00  0.00    +0.032 C 
BRANCH  15  21
ATOM     19  O   UNL     1      31.246 -10.225 -20.939  0.00  0.00    -0.270 OA
ATOM     20  N   UNL     1      32.623  -8.409 -21.365  0.00  0.00    -0.299 N 
ATOM     21  C   UNL     1      32.122  -9.687 -21.639  0.00  0.00    +0.246 C 
ATOM     22  C   UNL     1      32.180  -7.599 -20.254  0.00  0.00    +0.111 C 
ATOM     23  H   UNL     1      33.316  -8.044 -21.960  0.00  0.00    +0.150 HD
ENDBRANCH  15  21
ENDBRANCH  10  12
BRANCH   1  24
ATOM     24  C   UNL     1      35.220 -19.086 -21.250  0.00  0.00    +0.075 C 
ATOM     25  C   UNL     1      34.223 -19.941 -20.781  0.00  0.00    +0.017 C 
ATOM     26  C   UNL     1      36.555 -19.325 -20.920  0.00  0.00    +0.017 C 
ATOM     27  C   UNL     1      34.559 -21.034 -19.981  0.00  0.00    +0.001 C 
ATOM     28  C   UNL     1      36.891 -20.417 -20.121  0.00  0.00    +0.001 C 
ATOM     29  C   UNL     1      35.893 -21.272 -19.651  0.00  0.00    +0.000 C 
ENDBRANCH   1  24
TORSDOF 3
ENDMDL
MODEL 8
REMARK VINA RESULT:     -10.0      1.173      1.942
REMARK  Name = 23400214
REMARK  3 active torsions:
REMARK  status: ('A' for Active; 'I' for Inactive)
REMARK    1  A    between atoms: N_1  and  C_10
REMARK    2  A    between atoms: N_16  and  C_18
REMARK    3  A    between atoms: C_21  and  C_27
REMARK                            x       y       z     vdW  Elec       q    Type
REMARK                         _______ _______ _______ _____ _____    ______ ____
ROOT
ATOM      1  N   UNL     1      31.895  -8.512 -23.139  0.00  0.00    -0.176 N 
ATOM      2  N   UNL     1      30.809  -9.129 -22.637  0.00  0.00    -0.175 NA
ATOM      3  N   UNL     1      34.061  -9.051 -24.078  0.00  0.00    -0.231 NA
ATOM      4  N   UNL     1      34.435 -11.460 -24.160  0.00  0.00    -0.233 NA
ATOM      5  C   UNL     1      32.392 -10.645 -23.286  0.00  0.00    +0.152 C 
ATOM      6  C   UNL     1      32.873  -9.373 -23.542  0.00  0.00    +0.141 C 
ATOM      7  C   UNL     1      33.220 -11.712 -23.615  0.00  0.00    +0.118 C 
ATOM      8  C   UNL     1      31.118 -10.427 -22.730  0.00  0.00    +0.106 C 
ATOM      9  C   UNL     1      34.775 -10.164 -24.356  0.00  0.00    +0.253 C 
ATOM     10  N   UNL     1      32.813 -13.039 -23.389  0.00  0.00    -0.301 N 
ATOM     11  H   UNL     1      31.916 -13.114 -22.990  0.00  0.00    +0.153 HD
ENDROOT
BRANCH  10  12
ATOM     12  C   UNL     1      33.434 -14.284 -23.620  0.00  0.00    +0.045 C 
ATOM     13  C   UNL     1      33.511 -14.816 -24.907  0.00  0.00    -0.008 C 
ATOM     14  C   UNL     1      33.977 -14.985 -22.543  0.00  0.00    +0.019 C 
ATOM     15  C   UNL     1      34.595 -16.219 -22.753  0.00  0.00    +0.055 C 
ATOM     16  C   UNL     1      34.128 -16.050 -25.118  0.00  0.00    -0.003 C 
ATOM     17  C   UNL     1      34.671 -16.750 -24.040  0.00  0.00    +0.004 C 
ATOM     18  C   UNL     1      32.938 -14.088 -26.080  0.00  0.00    +0.032 C 
BRANCH  15  21
ATOM     19  O   UNL     1      35.147 -16.458 -20.487  0.00  0.00    -0.270 OA
ATOM     20  N   UNL     1      35.691 -18.217 -21.898  0.00  0.00    -0.299 N 
ATOM     21  C   UNL     1      35.161 -16.949 -21.630  0.00  0.00    +0.246 C 
ATOM     22  C   UNL     1      36.266 -19.072 -20.885  0.00  0.00    +0.111 C 
ATOM     23  H   UNL     1      35.669 -18.543 -22.826  0.00  0.00    +0.150 HD
ENDBRANCH  15  21
ENDBRANCH  10  12
BRANCH   1  24
ATOM     24  C   UNL     1      31.941  -7.121 -23.207  0.00  0.00    +0.075 C 
ATOM     25  C   UNL     1      32.144  -6.489 -24.433  0.00  0.00    +0.017 C 
ATOM     26  C   UNL     1      31.783  -6.360 -22.048  0.00  0.00    +0.017 C 
ATOM     27  C   UNL     1      32.191  -5.096 -24.501  0.00  0.00    +0.001 C 
ATOM     28  C   UNL     1      31.830  -4.968 -22.116  0.00  0.00    +0.001 C 
ATOM     29  C   UNL     1      32.033  -4.335 -23.343  0.00  0.00    +0.000 C 
ENDBRANCH   1  24
TORSDOF 3
ENDMDL
MODEL 9
REMARK VINA RESULT:      -9.9      3.674     11.166
REMARK  Name = 23400214
REMARK  3 active torsions:
REMARK  status: ('A' for Active; 'I' for Inactive)
REMARK    1  A    between atoms: N_1  and  C_10
REMARK    2  A    between atoms: N_16  and  C_18
REMARK    3  A    between atoms: C_21  and  C_27
REMARK                            x       y       z     vdW  Elec       q    Type
REMARK                         _______ _______ _______ _____ _____    ______ ____
ROOT
ATOM      1  N   UNL     1      34.850 -21.977 -18.340  0.00  0.00    -0.176 N 
ATOM      2  N   UNL     1      33.576 -22.187 -18.722  0.00  0.00    -0.175 NA
ATOM      3  N   UNL     1      36.772 -20.643 -18.963  0.00  0.00    -0.231 NA
ATOM      4  N   UNL     1      36.296 -19.217 -20.884  0.00  0.00    -0.233 NA
ATOM      5  C   UNL     1      34.590 -20.633 -20.055  0.00  0.00    +0.152 C 
ATOM      6  C   UNL     1      35.502 -21.055 -19.104  0.00  0.00    +0.141 C 
ATOM      7  C   UNL     1      35.025 -19.678 -20.968  0.00  0.00    +0.118 C 
ATOM      8  C   UNL     1      33.424 -21.366 -19.766  0.00  0.00    +0.106 C 
ATOM      9  C   UNL     1      37.079 -19.720 -19.901  0.00  0.00    +0.253 C 
ATOM     10  N   UNL     1      34.165 -19.191 -21.968  0.00  0.00    -0.301 N 
ATOM     11  H   UNL     1      33.265 -19.589 -21.943  0.00  0.00    +0.153 HD
ENDROOT
BRANCH  10  12
ATOM     12  C   UNL     1      34.336 -18.246 -23.002  0.00  0.00    +0.045 C 
ATOM     13  C   UNL     1      34.622 -18.655 -24.304  0.00  0.00    -0.008 C 
ATOM     14  C   UNL     1      34.216 -16.887 -22.709  0.00  0.00    +0.019 C 
ATOM     15  C   UNL     1      34.383 -15.938 -23.719  0.00  0.00    +0.055 C 
ATOM     16  C   UNL     1      34.789 -17.707 -25.314  0.00  0.00    -0.003 C 
ATOM     17  C   UNL     1      34.668 -16.348 -25.021  0.00  0.00    +0.004 C 
ATOM     18  C   UNL     1      34.756 -20.104 -24.647  0.00  0.00    +0.032 C 
BRANCH  15  21
ATOM     19  O   UNL     1      34.544 -14.093 -22.281  0.00  0.00    -0.270 OA
ATOM     20  N   UNL     1      33.828 -13.683 -24.448  0.00  0.00    -0.299 N 
ATOM     21  C   UNL     1      34.258 -14.522 -23.413  0.00  0.00    +0.246 C 
ATOM     22  C   UNL     1      33.677 -12.254 -24.307  0.00  0.00    +0.111 C 
ATOM     23  H   UNL     1      33.618 -14.090 -25.319  0.00  0.00    +0.150 HD
ENDBRANCH  15  21
ENDBRANCH  10  12
BRANCH   1  24
ATOM     24  C   UNL     1      35.379 -22.673 -17.255  0.00  0.00    +0.075 C 
ATOM     25  C   UNL     1      34.582 -23.575 -16.549  0.00  0.00    +0.017 C 
ATOM     26  C   UNL     1      36.705 -22.469 -16.874  0.00  0.00    +0.017 C 
ATOM     27  C   UNL     1      35.111 -24.272 -15.462  0.00  0.00    +0.001 C 
ATOM     28  C   UNL     1      37.234 -23.165 -15.788  0.00  0.00    +0.001 C 
ATOM     29  C   UNL     1      36.437 -24.067 -15.081  0.00  0.00    +0.000 C 
ENDBRANCH   1  24
TORSDOF 3
ENDMDL
