MODEL 1
REMARK VINA RESULT:      -7.9      0.000      0.000
REMARK  Name = 3089
REMARK  5 active torsions:
REMARK  status: ('A' for Active; 'I' for Inactive)
REMARK    1  A    between atoms: N_2  and  C_21
REMARK    2  A    between atoms: C_8  and  S_15
REMARK    3  A    between atoms: S_15  and  N_18
REMARK    4  A    between atoms: C_21  and  C_22
REMARK    5  A    between atoms: C_22  and  N_24
REMARK                            x       y       z     vdW  Elec       q    Type
REMARK                         _______ _______ _______ _____ _____    ______ ____
ROOT
ATOM      1  S   UNL     1      31.567 -12.397 -21.112  0.00  0.00    -0.084 S 
ATOM      2  N   UNL     1      33.540 -12.890 -23.463  0.00  0.00    -0.288 N 
ATOM      3  C   UNL     1      33.490 -13.908 -22.477  0.00  0.00    +0.059 C 
ATOM      4  C   UNL     1      33.146 -11.542 -23.263  0.00  0.00    +0.058 C 
ATOM      5  C   UNL     1      32.653 -13.789 -21.351  0.00  0.00    +0.043 C 
ATOM      6  C   UNL     1      34.299 -15.064 -22.556  0.00  0.00    +0.035 C 
ATOM      7  C   UNL     1      32.274 -11.189 -22.214  0.00  0.00    +0.043 C 
ATOM      8  C   UNL     1      34.260 -16.062 -21.578  0.00  0.00    +0.123 C 
ATOM      9  C   UNL     1      32.615 -14.798 -20.372  0.00  0.00    +0.009 C 
ATOM     10  C   UNL     1      33.632 -10.493 -24.073  0.00  0.00    +0.015 C 
ATOM     11  C   UNL     1      33.415 -15.929 -20.486  0.00  0.00    +0.021 C 
ATOM     12  C   UNL     1      31.893  -9.850 -22.015  0.00  0.00    +0.008 C 
ATOM     13  C   UNL     1      33.255  -9.163 -23.867  0.00  0.00    +0.001 C 
ATOM     14  C   UNL     1      32.382  -8.842 -22.839  0.00  0.00    +0.001 C 
ENDROOT
BRANCH   8  15
ATOM     15  S   UNL     1      35.270 -17.478 -21.734  0.00  0.00    +0.063 S 
ATOM     16  O   UNL     1      36.248 -17.226 -22.787  0.00  0.00    -0.153 OA
ATOM     17  O   UNL     1      35.755 -17.840 -20.407  0.00  0.00    -0.153 OA
BRANCH  15  18
ATOM     18  N   UNL     1      34.168 -18.697 -22.277  0.00  0.00    -0.153 NA
ATOM     19  C   UNL     1      34.460 -19.360 -23.574  0.00  0.00    +0.115 C 
ATOM     20  C   UNL     1      33.653 -19.655 -21.267  0.00  0.00    +0.115 C 
ENDBRANCH  15  18
ENDBRANCH   8  15
BRANCH   2  21
ATOM     21  C   UNL     1      34.107 -13.241 -24.771  0.00  0.00    +0.075 C 
BRANCH  21  22
ATOM     22  C   UNL     1      33.009 -13.734 -25.719  0.00  0.00    -0.038 C 
ATOM     23  C   UNL     1      33.228 -13.255 -27.155  0.00  0.00    -0.021 C 
BRANCH  22  24
ATOM     24  N   UNL     1      32.993 -15.198 -25.709  0.00  0.00    +0.387 N 
ATOM     25  C   UNL     1      34.354 -15.722 -25.598  0.00  0.00    -0.101 C 
ATOM     26  C   UNL     1      32.344 -15.710 -26.915  0.00  0.00    -0.101 C 
ATOM     27  H   UNL     1      32.460 -15.511 -24.897  0.00  0.00    -0.080 HD
ENDBRANCH  22  24
ENDBRANCH  21  22
ENDBRANCH   2  21
TORSDOF 5
ENDMDL
MODEL 2
REMARK VINA RESULT:      -7.8      3.084      5.741
REMARK  Name = 3089
REMARK  5 active torsions:
REMARK  status: ('A' for Active; 'I' for Inactive)
REMARK    1  A    between atoms: N_2  and  C_21
REMARK    2  A    between atoms: C_8  and  S_15
REMARK    3  A    between atoms: S_15  and  N_18
REMARK    4  A    between atoms: C_21  and  C_22
REMARK    5  A    between atoms: C_22  and  N_24
REMARK                            x       y       z     vdW  Elec       q    Type
REMARK                         _______ _______ _______ _____ _____    ______ ____
ROOT
ATOM      1  S   UNL     1      34.570  -7.863 -24.529  0.00  0.00    -0.084 S 
ATOM      2  N   UNL     1      32.106  -9.005 -23.016  0.00  0.00    -0.288 N 
ATOM      3  C   UNL     1      32.957  -9.965 -23.621  0.00  0.00    +0.059 C 
ATOM      4  C   UNL     1      32.017  -7.642 -23.396  0.00  0.00    +0.058 C 
ATOM      5  C   UNL     1      34.092  -9.570 -24.354  0.00  0.00    +0.043 C 
ATOM      6  C   UNL     1      32.689 -11.350 -23.549  0.00  0.00    +0.035 C 
ATOM      7  C   UNL     1      33.060  -7.016 -24.108  0.00  0.00    +0.043 C 
ATOM      8  C   UNL     1      33.519 -12.297 -24.155  0.00  0.00    +0.123 C 
ATOM      9  C   UNL     1      34.927 -10.527 -24.959  0.00  0.00    +0.009 C 
ATOM     10  C   UNL     1      30.874  -6.860 -23.116  0.00  0.00    +0.015 C 
ATOM     11  C   UNL     1      34.641 -11.884 -24.859  0.00  0.00    +0.021 C 
ATOM     12  C   UNL     1      32.963  -5.666 -24.490  0.00  0.00    +0.008 C 
ATOM     13  C   UNL     1      30.781  -5.520 -23.503  0.00  0.00    +0.001 C 
ATOM     14  C   UNL     1      31.828  -4.922 -24.187  0.00  0.00    +0.001 C 
ENDROOT
BRANCH   8  15
ATOM     15  S   UNL     1      33.149 -13.998 -24.021  0.00  0.00    +0.063 S 
ATOM     16  O   UNL     1      31.997 -14.145 -23.139  0.00  0.00    -0.153 OA
ATOM     17  O   UNL     1      33.070 -14.554 -25.367  0.00  0.00    -0.153 OA
BRANCH  15  18
ATOM     18  N   UNL     1      34.543 -14.650 -23.230  0.00  0.00    -0.153 NA
ATOM     19  C   UNL     1      34.618 -14.521 -21.752  0.00  0.00    +0.115 C 
ATOM     20  C   UNL     1      35.046 -15.965 -23.699  0.00  0.00    +0.115 C 
ENDBRANCH  15  18
ENDBRANCH   8  15
BRANCH   2  21
ATOM     21  C   UNL     1      31.198  -9.473 -21.961  0.00  0.00    +0.075 C 
BRANCH  21  22
ATOM     22  C   UNL     1      31.961  -9.688 -20.650  0.00  0.00    -0.038 C 
ATOM     23  C   UNL     1      32.050  -8.408 -19.817  0.00  0.00    -0.021 C 
BRANCH  22  24
ATOM     24  N   UNL     1      31.275 -10.714 -19.863  0.00  0.00    +0.387 N 
ATOM     25  C   UNL     1      31.584 -10.558 -18.442  0.00  0.00    -0.101 C 
ATOM     26  C   UNL     1      31.652 -12.049 -20.326  0.00  0.00    -0.101 C 
ATOM     27  H   UNL     1      30.269 -10.601 -19.988  0.00  0.00    -0.080 HD
ENDBRANCH  22  24
ENDBRANCH  21  22
ENDBRANCH   2  21
TORSDOF 5
ENDMDL
MODEL 3
REMARK VINA RESULT:      -7.6      9.989     13.422
REMARK  Name = 3089
REMARK  5 active torsions:
REMARK  status: ('A' for Active; 'I' for Inactive)
REMARK    1  A    between atoms: N_2  and  C_21
REMARK    2  A    between atoms: C_8  and  S_15
REMARK    3  A    between atoms: S_15  and  N_18
REMARK    4  A    between atoms: C_21  and  C_22
REMARK    5  A    between atoms: C_22  and  N_24
REMARK                            x       y       z     vdW  Elec       q    Type
REMARK                         _______ _______ _______ _____ _____    ______ ____
ROOT
ATOM      1  S   UNL     1      34.993 -23.933 -12.101  0.00  0.00    -0.084 S 
ATOM      2  N   UNL     1      35.092 -24.035 -15.207  0.00  0.00    -0.288 N 
ATOM      3  C   UNL     1      33.834 -23.702 -14.642  0.00  0.00    +0.059 C 
ATOM      4  C   UNL     1      36.128 -24.733 -14.535  0.00  0.00    +0.058 C 
ATOM      5  C   UNL     1      33.658 -23.647 -13.245  0.00  0.00    +0.043 C 
ATOM      6  C   UNL     1      32.700 -23.448 -15.443  0.00  0.00    +0.035 C 
ATOM      7  C   UNL     1      36.178 -24.780 -13.127  0.00  0.00    +0.043 C 
ATOM      8  C   UNL     1      31.457 -23.132 -14.887  0.00  0.00    +0.123 C 
ATOM      9  C   UNL     1      32.406 -23.325 -12.691  0.00  0.00    +0.009 C 
ATOM     10  C   UNL     1      37.130 -25.440 -15.236  0.00  0.00    +0.015 C 
ATOM     11  C   UNL     1      31.311 -23.069 -13.509  0.00  0.00    +0.021 C 
ATOM     12  C   UNL     1      37.203 -25.481 -12.467  0.00  0.00    +0.008 C 
ATOM     13  C   UNL     1      38.143 -26.138 -14.573  0.00  0.00    +0.001 C 
ATOM     14  C   UNL     1      38.181 -26.156 -13.188  0.00  0.00    +0.001 C 
ENDROOT
BRANCH   8  15
ATOM     15  S   UNL     1      30.090 -22.811 -15.926  0.00  0.00    +0.063 S 
ATOM     16  O   UNL     1      29.135 -21.996 -15.183  0.00  0.00    -0.153 OA
ATOM     17  O   UNL     1      30.595 -22.304 -17.197  0.00  0.00    -0.153 OA
BRANCH  15  18
ATOM     18  N   UNL     1      29.406 -24.378 -16.182  0.00  0.00    -0.153 NA
ATOM     19  C   UNL     1      29.454 -25.343 -15.053  0.00  0.00    +0.115 C 
ATOM     20  C   UNL     1      28.120 -24.453 -16.920  0.00  0.00    +0.115 C 
ENDBRANCH  15  18
ENDBRANCH   8  15
BRANCH   2  21
ATOM     21  C   UNL     1      35.313 -23.692 -16.618  0.00  0.00    +0.075 C 
BRANCH  21  22
ATOM     22  C   UNL     1      35.779 -22.240 -16.752  0.00  0.00    -0.038 C 
ATOM     23  C   UNL     1      37.299 -22.109 -16.646  0.00  0.00    -0.021 C 
BRANCH  22  24
ATOM     24  N   UNL     1      35.353 -21.721 -18.053  0.00  0.00    +0.387 N 
ATOM     25  C   UNL     1      34.318 -22.579 -18.629  0.00  0.00    -0.101 C 
ATOM     26  C   UNL     1      36.495 -21.616 -18.960  0.00  0.00    -0.101 C 
ATOM     27  H   UNL     1      34.960 -20.789 -17.918  0.00  0.00    -0.080 HD
ENDBRANCH  22  24
ENDBRANCH  21  22
ENDBRANCH   2  21
TORSDOF 5
ENDMDL
MODEL 4
REMARK VINA RESULT:      -7.1      5.936      9.432
REMARK  Name = 3089
REMARK  5 active torsions:
REMARK  status: ('A' for Active; 'I' for Inactive)
REMARK    1  A    between atoms: N_2  and  C_21
REMARK    2  A    between atoms: C_8  and  S_15
REMARK    3  A    between atoms: S_15  and  N_18
REMARK    4  A    between atoms: C_21  and  C_22
REMARK    5  A    between atoms: C_22  and  N_24
REMARK                            x       y       z     vdW  Elec       q    Type
REMARK                         _______ _______ _______ _____ _____    ______ ____
ROOT
ATOM      1  S   UNL     1      32.257  -7.862 -19.815  0.00  0.00    -0.084 S 
ATOM      2  N   UNL     1      32.291  -8.943 -22.729  0.00  0.00    -0.288 N 
ATOM      3  C   UNL     1      32.082  -7.547 -22.593  0.00  0.00    +0.059 C 
ATOM      4  C   UNL     1      32.043  -9.907 -21.719  0.00  0.00    +0.058 C 
ATOM      5  C   UNL     1      32.022  -6.942 -21.322  0.00  0.00    +0.043 C 
ATOM      6  C   UNL     1      31.889  -6.709 -23.713  0.00  0.00    +0.035 C 
ATOM      7  C   UNL     1      31.979  -9.535 -20.361  0.00  0.00    +0.043 C 
ATOM      8  C   UNL     1      31.669  -5.334 -23.579  0.00  0.00    +0.123 C 
ATOM      9  C   UNL     1      31.805  -5.558 -21.194  0.00  0.00    +0.009 C 
ATOM     10  C   UNL     1      31.812 -11.266 -22.022  0.00  0.00    +0.015 C 
ATOM     11  C   UNL     1      31.630  -4.759 -22.318  0.00  0.00    +0.021 C 
ATOM     12  C   UNL     1      31.724 -10.493 -19.364  0.00  0.00    +0.008 C 
ATOM     13  C   UNL     1      31.554 -12.213 -21.027  0.00  0.00    +0.001 C 
ATOM     14  C   UNL     1      31.513 -11.826 -19.697  0.00  0.00    +0.001 C 
ENDROOT
BRANCH   8  15
ATOM     15  S   UNL     1      31.452  -4.341 -24.999  0.00  0.00    +0.063 S 
ATOM     16  O   UNL     1      32.403  -4.783 -26.013  0.00  0.00    -0.153 OA
ATOM     17  O   UNL     1      30.032  -4.333 -25.335  0.00  0.00    -0.153 OA
BRANCH  15  18
ATOM     18  N   UNL     1      31.906  -2.763 -24.457  0.00  0.00    -0.153 NA
ATOM     19  C   UNL     1      32.752  -1.942 -25.362  0.00  0.00    +0.115 C 
ATOM     20  C   UNL     1      30.871  -1.948 -23.773  0.00  0.00    +0.115 C 
ENDBRANCH  15  18
ENDBRANCH   8  15
BRANCH   2  21
ATOM     21  C   UNL     1      32.734  -9.437 -24.040  0.00  0.00    +0.075 C 
BRANCH  21  22
ATOM     22  C   UNL     1      33.910 -10.405 -23.881  0.00  0.00    -0.038 C 
ATOM     23  C   UNL     1      33.720 -11.684 -24.697  0.00  0.00    -0.021 C 
BRANCH  22  24
ATOM     24  N   UNL     1      35.136  -9.740 -24.327  0.00  0.00    +0.387 N 
ATOM     25  C   UNL     1      34.953  -8.290 -24.344  0.00  0.00    -0.101 C 
ATOM     26  C   UNL     1      35.526 -10.223 -25.651  0.00  0.00    -0.101 C 
ATOM     27  H   UNL     1      35.884  -9.963 -23.669  0.00  0.00    -0.080 HD
ENDBRANCH  22  24
ENDBRANCH  21  22
ENDBRANCH   2  21
TORSDOF 5
ENDMDL
MODEL 5
REMARK VINA RESULT:      -6.9      2.798      6.183
REMARK  Name = 3089
REMARK  5 active torsions:
REMARK  status: ('A' for Active; 'I' for Inactive)
REMARK    1  A    between atoms: N_2  and  C_21
REMARK    2  A    between atoms: C_8  and  S_15
REMARK    3  A    between atoms: S_15  and  N_18
REMARK    4  A    between atoms: C_21  and  C_22
REMARK    5  A    between atoms: C_22  and  N_24
REMARK                            x       y       z     vdW  Elec       q    Type
REMARK                         _______ _______ _______ _____ _____    ______ ____
ROOT
ATOM      1  S   UNL     1      34.360 -16.838 -20.892  0.00  0.00    -0.084 S 
ATOM      2  N   UNL     1      34.119 -15.292 -23.579  0.00  0.00    -0.288 N 
ATOM      3  C   UNL     1      33.530 -14.664 -22.452  0.00  0.00    +0.059 C 
ATOM      4  C   UNL     1      34.387 -16.680 -23.690  0.00  0.00    +0.058 C 
ATOM      5  C   UNL     1      33.553 -15.277 -21.184  0.00  0.00    +0.043 C 
ATOM      6  C   UNL     1      32.866 -13.422 -22.553  0.00  0.00    +0.035 C 
ATOM      7  C   UNL     1      34.495 -17.493 -22.543  0.00  0.00    +0.043 C 
ATOM      8  C   UNL     1      32.273 -12.808 -21.446  0.00  0.00    +0.123 C 
ATOM      9  C   UNL     1      32.958 -14.652 -20.073  0.00  0.00    +0.009 C 
ATOM     10  C   UNL     1      34.522 -17.319 -24.942  0.00  0.00    +0.015 C 
ATOM     11  C   UNL     1      32.322 -13.423 -20.204  0.00  0.00    +0.021 C 
ATOM     12  C   UNL     1      34.753 -18.871 -22.659  0.00  0.00    +0.008 C 
ATOM     13  C   UNL     1      34.773 -18.689 -25.052  0.00  0.00    +0.001 C 
ATOM     14  C   UNL     1      34.892 -19.465 -23.909  0.00  0.00    +0.001 C 
ENDROOT
BRANCH   8  15
ATOM     15  S   UNL     1      31.478 -11.263 -21.624  0.00  0.00    +0.063 S 
ATOM     16  O   UNL     1      32.056 -10.584 -22.779  0.00  0.00    -0.153 OA
ATOM     17  O   UNL     1      30.037 -11.488 -21.600  0.00  0.00    -0.153 OA
BRANCH  15  18
ATOM     18  N   UNL     1      31.933 -10.411 -20.190  0.00  0.00    -0.153 NA
ATOM     19  C   UNL     1      32.309  -8.980 -20.329  0.00  0.00    +0.115 C 
ATOM     20  C   UNL     1      31.135 -10.657 -18.962  0.00  0.00    +0.115 C 
ENDBRANCH  15  18
ENDBRANCH   8  15
BRANCH   2  21
ATOM     21  C   UNL     1      34.411 -14.452 -24.747  0.00  0.00    +0.075 C 
BRANCH  21  22
ATOM     22  C   UNL     1      33.259 -13.479 -25.012  0.00  0.00    -0.038 C 
ATOM     23  C   UNL     1      33.744 -12.037 -25.165  0.00  0.00    -0.021 C 
BRANCH  22  24
ATOM     24  N   UNL     1      32.572 -13.877 -26.243  0.00  0.00    +0.387 N 
ATOM     25  C   UNL     1      32.729 -15.312 -26.472  0.00  0.00    -0.101 C 
ATOM     26  C   UNL     1      33.085 -13.117 -27.381  0.00  0.00    -0.101 C 
ATOM     27  H   UNL     1      31.578 -13.674 -26.140  0.00  0.00    -0.080 HD
ENDBRANCH  22  24
ENDBRANCH  21  22
ENDBRANCH   2  21
TORSDOF 5
ENDMDL
MODEL 6
REMARK VINA RESULT:      -6.8      3.241      7.265
REMARK  Name = 3089
REMARK  5 active torsions:
REMARK  status: ('A' for Active; 'I' for Inactive)
REMARK    1  A    between atoms: N_2  and  C_21
REMARK    2  A    between atoms: C_8  and  S_15
REMARK    3  A    between atoms: S_15  and  N_18
REMARK    4  A    between atoms: C_21  and  C_22
REMARK    5  A    between atoms: C_22  and  N_24
REMARK                            x       y       z     vdW  Elec       q    Type
REMARK                         _______ _______ _______ _____ _____    ______ ____
ROOT
ATOM      1  S   UNL     1      33.214 -15.205 -26.165  0.00  0.00    -0.084 S 
ATOM      2  N   UNL     1      34.066 -14.384 -23.290  0.00  0.00    -0.288 N 
ATOM      3  C   UNL     1      33.916 -13.320 -24.215  0.00  0.00    +0.059 C 
ATOM      4  C   UNL     1      34.301 -15.739 -23.638  0.00  0.00    +0.058 C 
ATOM      5  C   UNL     1      33.557 -13.567 -25.554  0.00  0.00    +0.043 C 
ATOM      6  C   UNL     1      34.153 -11.976 -23.851  0.00  0.00    +0.035 C 
ATOM      7  C   UNL     1      33.979 -16.225 -24.921  0.00  0.00    +0.043 C 
ATOM      8  C   UNL     1      34.019 -10.927 -24.766  0.00  0.00    +0.123 C 
ATOM      9  C   UNL     1      33.419 -12.507 -26.469  0.00  0.00    +0.009 C 
ATOM     10  C   UNL     1      34.896 -16.650 -22.738  0.00  0.00    +0.015 C 
ATOM     11  C   UNL     1      33.648 -11.193 -26.075  0.00  0.00    +0.021 C 
ATOM     12  C   UNL     1      34.221 -17.568 -25.263  0.00  0.00    +0.008 C 
ATOM     13  C   UNL     1      35.139 -17.982 -23.086  0.00  0.00    +0.001 C 
ATOM     14  C   UNL     1      34.798 -18.441 -24.348  0.00  0.00    +0.001 C 
ENDROOT
BRANCH   8  15
ATOM     15  S   UNL     1      34.309  -9.281 -24.257  0.00  0.00    +0.063 S 
ATOM     16  O   UNL     1      35.586  -9.241 -23.554  0.00  0.00    -0.153 OA
ATOM     17  O   UNL     1      34.124  -8.410 -25.412  0.00  0.00    -0.153 OA
BRANCH  15  18
ATOM     18  N   UNL     1      33.038  -8.983 -23.123  0.00  0.00    -0.153 NA
ATOM     19  C   UNL     1      33.315  -8.035 -22.013  0.00  0.00    +0.115 C 
ATOM     20  C   UNL     1      31.663  -8.822 -23.660  0.00  0.00    +0.115 C 
ENDBRANCH  15  18
ENDBRANCH   8  15
BRANCH   2  21
ATOM     21  C   UNL     1      34.046 -14.047 -21.861  0.00  0.00    +0.075 C 
BRANCH  21  22
ATOM     22  C   UNL     1      32.605 -13.940 -21.353  0.00  0.00    -0.038 C 
ATOM     23  C   UNL     1      32.376 -14.759 -20.082  0.00  0.00    -0.021 C 
BRANCH  22  24
ATOM     24  N   UNL     1      32.304 -12.535 -21.068  0.00  0.00    +0.387 N 
ATOM     25  C   UNL     1      31.925 -12.371 -19.665  0.00  0.00    -0.101 C 
ATOM     26  C   UNL     1      31.241 -12.051 -21.946  0.00  0.00    -0.101 C 
ATOM     27  H   UNL     1      33.144 -11.982 -21.241  0.00  0.00    -0.080 HD
ENDBRANCH  22  24
ENDBRANCH  21  22
ENDBRANCH   2  21
TORSDOF 5
ENDMDL
MODEL 7
REMARK VINA RESULT:      -6.7      2.105      3.127
REMARK  Name = 3089
REMARK  5 active torsions:
REMARK  status: ('A' for Active; 'I' for Inactive)
REMARK    1  A    between atoms: N_2  and  C_21
REMARK    2  A    between atoms: C_8  and  S_15
REMARK    3  A    between atoms: S_15  and  N_18
REMARK    4  A    between atoms: C_21  and  C_22
REMARK    5  A    between atoms: C_22  and  N_24
REMARK                            x       y       z     vdW  Elec       q    Type
REMARK                         _______ _______ _______ _____ _____    ______ ____
ROOT
ATOM      1  S   UNL     1      31.270 -11.481 -20.062  0.00  0.00    -0.084 S 
ATOM      2  N   UNL     1      32.661 -10.852 -22.769  0.00  0.00    -0.288 N 
ATOM      3  C   UNL     1      32.705 -12.208 -22.355  0.00  0.00    +0.059 C 
ATOM      4  C   UNL     1      32.461  -9.743 -21.909  0.00  0.00    +0.058 C 
ATOM      5  C   UNL     1      32.131 -12.613 -21.134  0.00  0.00    +0.043 C 
ATOM      6  C   UNL     1      33.354 -13.201 -23.120  0.00  0.00    +0.035 C 
ATOM      7  C   UNL     1      31.861  -9.905 -20.643  0.00  0.00    +0.043 C 
ATOM      8  C   UNL     1      33.410 -14.536 -22.706  0.00  0.00    +0.123 C 
ATOM      9  C   UNL     1      32.187 -13.957 -20.724  0.00  0.00    +0.009 C 
ATOM     10  C   UNL     1      32.880  -8.440 -22.257  0.00  0.00    +0.015 C 
ATOM     11  C   UNL     1      32.824 -14.914 -21.507  0.00  0.00    +0.021 C 
ATOM     12  C   UNL     1      31.672  -8.803 -19.791  0.00  0.00    +0.008 C 
ATOM     13  C   UNL     1      32.694  -7.350 -21.403  0.00  0.00    +0.001 C 
ATOM     14  C   UNL     1      32.087  -7.531 -20.170  0.00  0.00    +0.001 C 
ENDROOT
BRANCH   8  15
ATOM     15  S   UNL     1      34.212 -15.727 -23.700  0.00  0.00    +0.063 S 
ATOM     16  O   UNL     1      33.356 -16.015 -24.845  0.00  0.00    -0.153 OA
ATOM     17  O   UNL     1      35.574 -15.268 -23.949  0.00  0.00    -0.153 OA
BRANCH  15  18
ATOM     18  N   UNL     1      34.271 -17.124 -22.682  0.00  0.00    -0.153 NA
ATOM     19  C   UNL     1      34.372 -18.451 -23.340  0.00  0.00    +0.115 C 
ATOM     20  C   UNL     1      35.108 -17.046 -21.458  0.00  0.00    +0.115 C 
ENDBRANCH  15  18
ENDBRANCH   8  15
BRANCH   2  21
ATOM     21  C   UNL     1      32.910 -10.570 -24.189  0.00  0.00    +0.075 C 
BRANCH  21  22
ATOM     22  C   UNL     1      34.113 -11.372 -24.694  0.00  0.00    -0.038 C 
ATOM     23  C   UNL     1      33.829 -12.058 -26.031  0.00  0.00    -0.021 C 
BRANCH  22  24
ATOM     24  N   UNL     1      35.251 -10.467 -24.863  0.00  0.00    +0.387 N 
ATOM     25  C   UNL     1      34.913  -9.128 -24.383  0.00  0.00    -0.101 C 
ATOM     26  C   UNL     1      35.663 -10.420 -26.265  0.00  0.00    -0.101 C 
ATOM     27  H   UNL     1      36.032 -10.820 -24.309  0.00  0.00    -0.080 HD
ENDBRANCH  22  24
ENDBRANCH  21  22
ENDBRANCH   2  21
TORSDOF 5
ENDMDL
MODEL 8
REMARK VINA RESULT:      -6.4      2.996      6.269
REMARK  Name = 3089
REMARK  5 active torsions:
REMARK  status: ('A' for Active; 'I' for Inactive)
REMARK    1  A    between atoms: N_2  and  C_21
REMARK    2  A    between atoms: C_8  and  S_15
REMARK    3  A    between atoms: S_15  and  N_18
REMARK    4  A    between atoms: C_21  and  C_22
REMARK    5  A    between atoms: C_22  and  N_24
REMARK                            x       y       z     vdW  Elec       q    Type
REMARK                         _______ _______ _______ _____ _____    ______ ____
ROOT
ATOM      1  S   UNL     1      34.721 -15.944 -21.720  0.00  0.00    -0.084 S 
ATOM      2  N   UNL     1      33.283 -14.203 -23.856  0.00  0.00    -0.288 N 
ATOM      3  C   UNL     1      33.060 -13.829 -22.506  0.00  0.00    +0.059 C 
ATOM      4  C   UNL     1      33.698 -15.488 -24.288  0.00  0.00    +0.058 C 
ATOM      5  C   UNL     1      33.638 -14.556 -21.447  0.00  0.00    +0.043 C 
ATOM      6  C   UNL     1      32.226 -12.743 -22.160  0.00  0.00    +0.035 C 
ATOM      7  C   UNL     1      34.339 -16.379 -23.404  0.00  0.00    +0.043 C 
ATOM      8  C   UNL     1      31.996 -12.382 -20.829  0.00  0.00    +0.123 C 
ATOM      9  C   UNL     1      33.406 -14.186 -20.110  0.00  0.00    +0.009 C 
ATOM     10  C   UNL     1      33.459 -15.950 -25.601  0.00  0.00    +0.015 C 
ATOM     11  C   UNL     1      32.588 -13.103 -19.804  0.00  0.00    +0.021 C 
ATOM     12  C   UNL     1      34.741 -17.656 -23.836  0.00  0.00    +0.008 C 
ATOM     13  C   UNL     1      33.855 -17.222 -26.023  0.00  0.00    +0.001 C 
ATOM     14  C   UNL     1      34.500 -18.074 -25.140  0.00  0.00    +0.001 C 
ENDROOT
BRANCH   8  15
ATOM     15  S   UNL     1      30.967 -11.020 -20.459  0.00  0.00    +0.063 S 
ATOM     16  O   UNL     1      29.736 -11.157 -21.228  0.00  0.00    -0.153 OA
ATOM     17  O   UNL     1      30.871 -10.905 -19.008  0.00  0.00    -0.153 OA
BRANCH  15  18
ATOM     18  N   UNL     1      31.859  -9.669 -21.068  0.00  0.00    -0.153 NA
ATOM     19  C   UNL     1      31.365  -9.022 -22.311  0.00  0.00    +0.115 C 
ATOM     20  C   UNL     1      32.354  -8.673 -20.084  0.00  0.00    +0.115 C 
ENDBRANCH  15  18
ENDBRANCH   8  15
BRANCH   2  21
ATOM     21  C   UNL     1      32.996 -13.202 -24.892  0.00  0.00    +0.075 C 
BRANCH  21  22
ATOM     22  C   UNL     1      34.297 -12.639 -25.472  0.00  0.00    -0.038 C 
ATOM     23  C   UNL     1      34.211 -12.426 -26.984  0.00  0.00    -0.021 C 
BRANCH  22  24
ATOM     24  N   UNL     1      34.587 -11.355 -24.832  0.00  0.00    +0.387 N 
ATOM     25  C   UNL     1      33.345 -10.662 -24.493  0.00  0.00    -0.101 C 
ATOM     26  C   UNL     1      35.415 -10.525 -25.705  0.00  0.00    -0.101 C 
ATOM     27  H   UNL     1      35.103 -11.531 -23.970  0.00  0.00    -0.080 HD
ENDBRANCH  22  24
ENDBRANCH  21  22
ENDBRANCH   2  21
TORSDOF 5
ENDMDL
MODEL 9
REMARK VINA RESULT:      -5.7      3.467      6.556
REMARK  Name = 3089
REMARK  5 active torsions:
REMARK  status: ('A' for Active; 'I' for Inactive)
REMARK    1  A    between atoms: N_2  and  C_21
REMARK    2  A    between atoms: C_8  and  S_15
REMARK    3  A    between atoms: S_15  and  N_18
REMARK    4  A    between atoms: C_21  and  C_22
REMARK    5  A    between atoms: C_22  and  N_24
REMARK                            x       y       z     vdW  Elec       q    Type
REMARK                         _______ _______ _______ _____ _____    ______ ____
ROOT
ATOM      1  S   UNL     1      34.751  -7.156 -24.748  0.00  0.00    -0.084 S 
ATOM      2  N   UNL     1      32.047  -8.200 -23.624  0.00  0.00    -0.288 N 
ATOM      3  C   UNL     1      33.017  -9.193 -23.917  0.00  0.00    +0.059 C 
ATOM      4  C   UNL     1      32.017  -6.899 -24.187  0.00  0.00    +0.058 C 
ATOM      5  C   UNL     1      34.272  -8.846 -24.454  0.00  0.00    +0.043 C 
ATOM      6  C   UNL     1      32.759 -10.568 -23.722  0.00  0.00    +0.035 C 
ATOM      7  C   UNL     1      33.175  -6.325 -24.750  0.00  0.00    +0.043 C 
ATOM      8  C   UNL     1      33.709 -11.548 -24.023  0.00  0.00    +0.123 C 
ATOM      9  C   UNL     1      35.225  -9.836 -24.751  0.00  0.00    +0.009 C 
ATOM     10  C   UNL     1      30.831  -6.135 -24.244  0.00  0.00    +0.015 C 
ATOM     11  C   UNL     1      34.945 -11.181 -24.536  0.00  0.00    +0.021 C 
ATOM     12  C   UNL     1      33.138  -5.038 -25.315  0.00  0.00    +0.008 C 
ATOM     13  C   UNL     1      30.799  -4.858 -24.811  0.00  0.00    +0.001 C 
ATOM     14  C   UNL     1      31.954  -4.308 -25.344  0.00  0.00    +0.001 C 
ENDROOT
BRANCH   8  15
ATOM     15  S   UNL     1      33.344 -13.234 -23.747  0.00  0.00    +0.063 S 
ATOM     16  O   UNL     1      34.372 -13.785 -22.871  0.00  0.00    -0.153 OA
ATOM     17  O   UNL     1      31.949 -13.334 -23.331  0.00  0.00    -0.153 OA
BRANCH  15  18
ATOM     18  N   UNL     1      33.510 -13.941 -25.316  0.00  0.00    -0.153 NA
ATOM     19  C   UNL     1      33.491 -15.423 -25.409  0.00  0.00    +0.115 C 
ATOM     20  C   UNL     1      32.772 -13.306 -26.437  0.00  0.00    +0.115 C 
ENDBRANCH  15  18
ENDBRANCH   8  15
BRANCH   2  21
ATOM     21  C   UNL     1      30.950  -8.570 -22.720  0.00  0.00    +0.075 C 
BRANCH  21  22
ATOM     22  C   UNL     1      31.318  -8.251 -21.268  0.00  0.00    -0.038 C 
ATOM     23  C   UNL     1      31.945  -9.449 -20.553  0.00  0.00    -0.021 C 
BRANCH  22  24
ATOM     24  N   UNL     1      32.274  -7.142 -21.252  0.00  0.00    +0.387 N 
ATOM     25  C   UNL     1      33.358  -7.417 -20.311  0.00  0.00    -0.101 C 
ATOM     26  C   UNL     1      31.599  -5.892 -20.906  0.00  0.00    -0.101 C 
ATOM     27  H   UNL     1      32.674  -7.045 -22.185  0.00  0.00    -0.080 HD
ENDBRANCH  22  24
ENDBRANCH  21  22
ENDBRANCH   2  21
TORSDOF 5
ENDMDL
