MODEL 1
REMARK VINA RESULT:      -6.0      0.000      0.000
REMARK  Name = 3840
REMARK  3 active torsions:
REMARK  status: ('A' for Active; 'I' for Inactive)
REMARK    1  A    between atoms: C_3  and  C_10
REMARK    2  A    between atoms: C_6  and  O_8
REMARK    3  A    between atoms: C_10  and  O_11
REMARK                            x       y       z     vdW  Elec       q    Type
REMARK                         _______ _______ _______ _____ _____    ______ ____
ROOT
ATOM      1  O   UNL     1      36.106 -24.395 -13.805  0.00  0.00    -0.449 OA
ATOM      2  O   UNL     1      39.248 -26.808 -14.646  0.00  0.00    -0.283 OA
ATOM      3  C   UNL     1      37.299 -24.271 -13.108  0.00  0.00    +0.156 C 
ATOM      4  C   UNL     1      38.370 -25.041 -13.345  0.00  0.00    +0.081 C 
ATOM      5  C   UNL     1      38.295 -26.080 -14.398  0.00  0.00    +0.235 C 
ATOM      6  C   UNL     1      37.010 -26.190 -15.127  0.00  0.00    +0.211 C 
ATOM      7  C   UNL     1      36.024 -25.354 -14.785  0.00  0.00    +0.219 C 
ENDROOT
BRANCH   6   8
ATOM      8  O   UNL     1      36.866 -27.131 -16.118  0.00  0.00    -0.501 OA
ATOM      9  H   UNL     1      36.812 -28.040 -15.896  0.00  0.00    +0.292 HD
ENDBRANCH   6   8
BRANCH   3  10
ATOM     10  C   UNL     1      37.286 -23.197 -12.068  0.00  0.00    +0.202 C 
BRANCH  10  11
ATOM     11  O   UNL     1      38.620 -22.999 -11.657  0.00  0.00    -0.375 OA
ATOM     12  H   UNL     1      38.997 -22.243 -12.133  0.00  0.00    +0.211 HD
ENDBRANCH  10  11
ENDBRANCH   3  10
TORSDOF 3
ENDMDL
MODEL 2
REMARK VINA RESULT:      -6.0      1.988      2.634
REMARK  Name = 3840
REMARK  3 active torsions:
REMARK  status: ('A' for Active; 'I' for Inactive)
REMARK    1  A    between atoms: C_3  and  C_10
REMARK    2  A    between atoms: C_6  and  O_8
REMARK    3  A    between atoms: C_10  and  O_11
REMARK                            x       y       z     vdW  Elec       q    Type
REMARK                         _______ _______ _______ _____ _____    ______ ____
ROOT
ATOM      1  O   UNL     1      36.950 -26.135 -12.576  0.00  0.00    -0.449 OA
ATOM      2  O   UNL     1      35.352 -24.708 -16.012  0.00  0.00    -0.283 OA
ATOM      3  C   UNL     1      36.203 -24.966 -12.575  0.00  0.00    +0.156 C 
ATOM      4  C   UNL     1      35.651 -24.450 -13.682  0.00  0.00    +0.081 C 
ATOM      5  C   UNL     1      35.836 -25.146 -14.976  0.00  0.00    +0.235 C 
ATOM      6  C   UNL     1      36.637 -26.392 -14.947  0.00  0.00    +0.211 C 
ATOM      7  C   UNL     1      37.128 -26.792 -13.769  0.00  0.00    +0.219 C 
ENDROOT
BRANCH   6   8
ATOM      8  O   UNL     1      36.852 -27.093 -16.109  0.00  0.00    -0.501 OA
ATOM      9  H   UNL     1      36.877 -26.642 -16.930  0.00  0.00    +0.292 HD
ENDBRANCH   6   8
BRANCH   3  10
ATOM     10  C   UNL     1      36.065 -24.334 -11.228  0.00  0.00    +0.202 C 
BRANCH  10  11
ATOM     11  O   UNL     1      35.247 -25.182 -10.452  0.00  0.00    -0.375 OA
ATOM     12  H   UNL     1      35.174 -26.046 -10.886  0.00  0.00    +0.211 HD
ENDBRANCH  10  11
ENDBRANCH   3  10
TORSDOF 3
ENDMDL
MODEL 3
REMARK VINA RESULT:      -5.9      2.146      3.565
REMARK  Name = 3840
REMARK  3 active torsions:
REMARK  status: ('A' for Active; 'I' for Inactive)
REMARK    1  A    between atoms: C_3  and  C_10
REMARK    2  A    between atoms: C_6  and  O_8
REMARK    3  A    between atoms: C_10  and  O_11
REMARK                            x       y       z     vdW  Elec       q    Type
REMARK                         _______ _______ _______ _____ _____    ______ ____
ROOT
ATOM      1  O   UNL     1      38.603 -24.184 -14.819  0.00  0.00    -0.449 OA
ATOM      2  O   UNL     1      36.453 -25.549 -11.670  0.00  0.00    -0.283 OA
ATOM      3  C   UNL     1      39.046 -25.271 -14.080  0.00  0.00    +0.156 C 
ATOM      4  C   UNL     1      38.375 -25.765 -13.030  0.00  0.00    +0.081 C 
ATOM      5  C   UNL     1      37.098 -25.133 -12.625  0.00  0.00    +0.235 C 
ATOM      6  C   UNL     1      36.649 -23.974 -13.432  0.00  0.00    +0.211 C 
ATOM      7  C   UNL     1      37.420 -23.589 -14.455  0.00  0.00    +0.219 C 
ENDROOT
BRANCH   6   8
ATOM      8  O   UNL     1      35.474 -23.337 -13.115  0.00  0.00    -0.501 OA
ATOM      9  H   UNL     1      35.353 -22.974 -12.259  0.00  0.00    +0.292 HD
ENDBRANCH   6   8
BRANCH   3  10
ATOM     10  C   UNL     1      40.338 -25.847 -14.561  0.00  0.00    +0.202 C 
BRANCH  10  11
ATOM     11  O   UNL     1      40.301 -25.834 -15.970  0.00  0.00    -0.375 OA
ATOM     12  H   UNL     1      41.089 -25.382 -16.311  0.00  0.00    +0.211 HD
ENDBRANCH  10  11
ENDBRANCH   3  10
TORSDOF 3
ENDMDL
MODEL 4
REMARK VINA RESULT:      -5.9      7.388      9.056
REMARK  Name = 3840
REMARK  3 active torsions:
REMARK  status: ('A' for Active; 'I' for Inactive)
REMARK    1  A    between atoms: C_3  and  C_10
REMARK    2  A    between atoms: C_6  and  O_8
REMARK    3  A    between atoms: C_10  and  O_11
REMARK                            x       y       z     vdW  Elec       q    Type
REMARK                         _______ _______ _______ _____ _____    ______ ____
ROOT
ATOM      1  O   UNL     1      30.011 -22.956 -14.566  0.00  0.00    -0.449 OA
ATOM      2  O   UNL     1      27.706 -24.387 -17.572  0.00  0.00    -0.283 OA
ATOM      3  C   UNL     1      30.054 -24.299 -14.911  0.00  0.00    +0.156 C 
ATOM      4  C   UNL     1      29.314 -24.826 -15.897  0.00  0.00    +0.081 C 
ATOM      5  C   UNL     1      28.402 -23.947 -16.665  0.00  0.00    +0.235 C 
ATOM      6  C   UNL     1      28.377 -22.519 -16.276  0.00  0.00    +0.211 C 
ATOM      7  C   UNL     1      29.170 -22.130 -15.271  0.00  0.00    +0.219 C 
ENDROOT
BRANCH   6   8
ATOM      8  O   UNL     1      27.555 -21.643 -16.944  0.00  0.00    -0.501 OA
ATOM      9  H   UNL     1      27.888 -21.143 -17.663  0.00  0.00    +0.292 HD
ENDBRANCH   6   8
BRANCH   3  10
ATOM     10  C   UNL     1      31.002 -25.108 -14.087  0.00  0.00    +0.202 C 
BRANCH  10  11
ATOM     11  O   UNL     1      30.611 -24.964 -12.740  0.00  0.00    -0.375 OA
ATOM     12  H   UNL     1      31.224 -24.364 -12.287  0.00  0.00    +0.211 HD
ENDBRANCH  10  11
ENDBRANCH   3  10
TORSDOF 3
ENDMDL
MODEL 5
REMARK VINA RESULT:      -5.6      7.923      8.906
REMARK  Name = 3840
REMARK  3 active torsions:
REMARK  status: ('A' for Active; 'I' for Inactive)
REMARK    1  A    between atoms: C_3  and  C_10
REMARK    2  A    between atoms: C_6  and  O_8
REMARK    3  A    between atoms: C_10  and  O_11
REMARK                            x       y       z     vdW  Elec       q    Type
REMARK                         _______ _______ _______ _____ _____    ______ ____
ROOT
ATOM      1  O   UNL     1      36.278 -19.738 -20.238  0.00  0.00    -0.449 OA
ATOM      2  O   UNL     1      32.721 -21.654 -19.959  0.00  0.00    -0.283 OA
ATOM      3  C   UNL     1      35.140 -19.205 -20.827  0.00  0.00    +0.156 C 
ATOM      4  C   UNL     1      33.939 -19.796 -20.765  0.00  0.00    +0.081 C 
ATOM      5  C   UNL     1      33.800 -21.078 -20.038  0.00  0.00    +0.235 C 
ATOM      6  C   UNL     1      35.030 -21.624 -19.419  0.00  0.00    +0.211 C 
ATOM      7  C   UNL     1      36.162 -20.926 -19.559  0.00  0.00    +0.219 C 
ENDROOT
BRANCH   6   8
ATOM      8  O   UNL     1      34.977 -22.810 -18.727  0.00  0.00    -0.501 OA
ATOM      9  H   UNL     1      34.401 -23.493 -19.011  0.00  0.00    +0.292 HD
ENDBRANCH   6   8
BRANCH   3  10
ATOM     10  C   UNL     1      35.372 -17.909 -21.535  0.00  0.00    +0.202 C 
BRANCH  10  11
ATOM     11  O   UNL     1      35.310 -16.888 -20.564  0.00  0.00    -0.375 OA
ATOM     12  H   UNL     1      35.198 -17.282 -19.686  0.00  0.00    +0.211 HD
ENDBRANCH  10  11
ENDBRANCH   3  10
TORSDOF 3
ENDMDL
MODEL 6
REMARK VINA RESULT:      -5.6     11.777     12.808
REMARK  Name = 3840
REMARK  3 active torsions:
REMARK  status: ('A' for Active; 'I' for Inactive)
REMARK    1  A    between atoms: C_3  and  C_10
REMARK    2  A    between atoms: C_6  and  O_8
REMARK    3  A    between atoms: C_10  and  O_11
REMARK                            x       y       z     vdW  Elec       q    Type
REMARK                         _______ _______ _______ _____ _____    ______ ____
ROOT
ATOM      1  O   UNL     1      34.285 -16.021 -23.467  0.00  0.00    -0.449 OA
ATOM      2  O   UNL     1      35.806 -18.405 -20.568  0.00  0.00    -0.283 OA
ATOM      3  C   UNL     1      34.719 -17.305 -23.764  0.00  0.00    +0.156 C 
ATOM      4  C   UNL     1      35.230 -18.136 -22.845  0.00  0.00    +0.081 C 
ATOM      5  C   UNL     1      35.343 -17.679 -21.440  0.00  0.00    +0.235 C 
ATOM      6  C   UNL     1      34.872 -16.305 -21.152  0.00  0.00    +0.211 C 
ATOM      7  C   UNL     1      34.384 -15.586 -22.168  0.00  0.00    +0.219 C 
ENDROOT
BRANCH   6   8
ATOM      8  O   UNL     1      34.947 -15.813 -19.871  0.00  0.00    -0.501 OA
ATOM      9  H   UNL     1      34.858 -14.893 -19.717  0.00  0.00    +0.292 HD
ENDBRANCH   6   8
BRANCH   3  10
ATOM     10  C   UNL     1      34.563 -17.682 -25.202  0.00  0.00    +0.202 C 
BRANCH  10  11
ATOM     11  O   UNL     1      34.520 -16.484 -25.944  0.00  0.00    -0.375 OA
ATOM     12  H   UNL     1      35.310 -16.420 -26.503  0.00  0.00    +0.211 HD
ENDBRANCH  10  11
ENDBRANCH   3  10
TORSDOF 3
ENDMDL
MODEL 7
REMARK VINA RESULT:      -5.6      7.941      8.820
REMARK  Name = 3840
REMARK  3 active torsions:
REMARK  status: ('A' for Active; 'I' for Inactive)
REMARK    1  A    between atoms: C_3  and  C_10
REMARK    2  A    between atoms: C_6  and  O_8
REMARK    3  A    between atoms: C_10  and  O_11
REMARK                            x       y       z     vdW  Elec       q    Type
REMARK                         _______ _______ _______ _____ _____    ______ ____
ROOT
ATOM      1  O   UNL     1      33.837 -19.431 -21.014  0.00  0.00    -0.449 OA
ATOM      2  O   UNL     1      35.471 -22.406 -18.806  0.00  0.00    -0.283 OA
ATOM      3  C   UNL     1      35.214 -19.573 -20.930  0.00  0.00    +0.156 C 
ATOM      4  C   UNL     1      35.808 -20.539 -20.215  0.00  0.00    +0.081 C 
ATOM      5  C   UNL     1      34.970 -21.509 -19.474  0.00  0.00    +0.235 C 
ATOM      6  C   UNL     1      33.504 -21.334 -19.581  0.00  0.00    +0.211 C 
ATOM      7  C   UNL     1      33.048 -20.325 -20.332  0.00  0.00    +0.219 C 
ENDROOT
BRANCH   6   8
ATOM      8  O   UNL     1      32.663 -22.196 -18.920  0.00  0.00    -0.501 OA
ATOM      9  H   UNL     1      32.281 -22.920 -19.377  0.00  0.00    +0.292 HD
ENDBRANCH   6   8
BRANCH   3  10
ATOM     10  C   UNL     1      35.979 -18.554 -21.712  0.00  0.00    +0.202 C 
BRANCH  10  11
ATOM     11  O   UNL     1      35.381 -17.302 -21.462  0.00  0.00    -0.375 OA
ATOM     12  H   UNL     1      34.490 -17.286 -21.845  0.00  0.00    +0.211 HD
ENDBRANCH  10  11
ENDBRANCH   3  10
TORSDOF 3
ENDMDL
MODEL 8
REMARK VINA RESULT:      -5.6      2.092      3.619
REMARK  Name = 3840
REMARK  3 active torsions:
REMARK  status: ('A' for Active; 'I' for Inactive)
REMARK    1  A    between atoms: C_3  and  C_10
REMARK    2  A    between atoms: C_6  and  O_8
REMARK    3  A    between atoms: C_10  and  O_11
REMARK                            x       y       z     vdW  Elec       q    Type
REMARK                         _______ _______ _______ _____ _____    ______ ____
ROOT
ATOM      1  O   UNL     1      38.765 -26.078 -13.013  0.00  0.00    -0.449 OA
ATOM      2  O   UNL     1      35.914 -23.873 -14.858  0.00  0.00    -0.283 OA
ATOM      3  C   UNL     1      39.034 -25.440 -14.215  0.00  0.00    +0.156 C 
ATOM      4  C   UNL     1      38.129 -24.698 -14.868  0.00  0.00    +0.081 C 
ATOM      5  C   UNL     1      36.773 -24.540 -14.294  0.00  0.00    +0.235 C 
ATOM      6  C   UNL     1      36.514 -25.231 -13.010  0.00  0.00    +0.211 C 
ATOM      7  C   UNL     1      37.512 -25.938 -12.469  0.00  0.00    +0.219 C 
ENDROOT
BRANCH   6   8
ATOM      8  O   UNL     1      35.278 -25.130 -12.417  0.00  0.00    -0.501 OA
ATOM      9  H   UNL     1      34.596 -25.728 -12.652  0.00  0.00    +0.292 HD
ENDBRANCH   6   8
BRANCH   3  10
ATOM     10  C   UNL     1      40.426 -25.650 -14.717  0.00  0.00    +0.202 C 
BRANCH  10  11
ATOM     11  O   UNL     1      40.334 -25.909 -16.101  0.00  0.00    -0.375 OA
ATOM     12  H   UNL     1      41.102 -25.527 -16.553  0.00  0.00    +0.211 HD
ENDBRANCH  10  11
ENDBRANCH   3  10
TORSDOF 3
ENDMDL
MODEL 9
REMARK VINA RESULT:      -5.5     11.563     12.378
REMARK  Name = 3840
REMARK  3 active torsions:
REMARK  status: ('A' for Active; 'I' for Inactive)
REMARK    1  A    between atoms: C_3  and  C_10
REMARK    2  A    between atoms: C_6  and  O_8
REMARK    3  A    between atoms: C_10  and  O_11
REMARK                            x       y       z     vdW  Elec       q    Type
REMARK                         _______ _______ _______ _____ _____    ______ ____
ROOT
ATOM      1  O   UNL     1      34.740 -19.349 -23.524  0.00  0.00    -0.449 OA
ATOM      2  O   UNL     1      35.112 -15.319 -23.400  0.00  0.00    -0.283 OA
ATOM      3  C   UNL     1      35.026 -18.703 -22.331  0.00  0.00    +0.156 C 
ATOM      4  C   UNL     1      35.160 -17.373 -22.232  0.00  0.00    +0.081 C 
ATOM      5  C   UNL     1      34.996 -16.538 -23.444  0.00  0.00    +0.235 C 
ATOM      6  C   UNL     1      34.691 -17.254 -24.704  0.00  0.00    +0.211 C 
ATOM      7  C   UNL     1      34.585 -18.586 -24.656  0.00  0.00    +0.219 C 
ENDROOT
BRANCH   6   8
ATOM      8  O   UNL     1      34.526 -16.544 -25.869  0.00  0.00    -0.501 OA
ATOM      9  H   UNL     1      33.864 -16.798 -26.482  0.00  0.00    +0.292 HD
ENDBRANCH   6   8
BRANCH   3  10
ATOM     10  C   UNL     1      35.170 -19.623 -21.161  0.00  0.00    +0.202 C 
BRANCH  10  11
ATOM     11  O   UNL     1      36.231 -19.131 -20.373  0.00  0.00    -0.375 OA
ATOM     12  H   UNL     1      35.924 -18.373 -19.853  0.00  0.00    +0.211 HD
ENDBRANCH  10  11
ENDBRANCH   3  10
TORSDOF 3
ENDMDL
