MODEL 1
REMARK VINA RESULT:      -8.5      0.000      0.000
REMARK  Name = 46937143
REMARK  8 active torsions:
REMARK  status: ('A' for Active; 'I' for Inactive)
REMARK    1  A    between atoms: O_1  and  C_4
REMARK    2  A    between atoms: O_1  and  C_13
REMARK    3  A    between atoms: C_8  and  C_12
REMARK    4  A    between atoms: C_13  and  C_14
REMARK    5  A    between atoms: C_14  and  O_15
REMARK    6  A    between atoms: C_14  and  C_17
REMARK    7  A    between atoms: C_17  and  N_18
REMARK    8  A    between atoms: N_18  and  C_21
REMARK                            x       y       z     vdW  Elec       q    Type
REMARK                         _______ _______ _______ _____ _____    ______ ____
ROOT
ATOM      1  O   UNL     1      34.814 -23.091 -17.481  0.00  0.00    -0.477 OA
ENDROOT
BRANCH   1   4
ATOM      2  N   UNL     1      33.288 -24.123 -13.138  0.00  0.00    -0.396 NA
ATOM      3  C   UNL     1      33.950 -23.596 -15.314  0.00  0.00    +0.045 C 
ATOM      4  C   UNL     1      33.766 -23.223 -16.630  0.00  0.00    +0.119 C 
ATOM      5  C   UNL     1      35.203 -23.917 -14.569  0.00  0.00    +0.101 C 
ATOM      6  C   UNL     1      32.871 -23.734 -14.427  0.00  0.00    +0.131 C 
ATOM      7  C   UNL     1      32.460 -22.984 -17.062  0.00  0.00    +0.090 C 
ATOM      8  C   UNL     1      34.581 -24.219 -13.232  0.00  0.00    +0.181 C 
ATOM      9  C   UNL     1      31.574 -23.499 -14.849  0.00  0.00    +0.028 C 
ATOM     10  C   UNL     1      31.373 -23.120 -16.180  0.00  0.00    -0.016 C 
BRANCH   8  12
ATOM     11  N   UNL     1      35.854 -24.917 -11.092  0.00  0.00    -0.189 NA
ATOM     12  C   UNL     1      35.283 -24.604 -12.053  0.00  0.00    +0.129 C 
ENDBRANCH   8  12
ENDBRANCH   1   4
BRANCH   1  13
ATOM     13  C   UNL     1      34.555 -22.478 -18.746  0.00  0.00    +0.232 C 
BRANCH  13  14
ATOM     14  C   UNL     1      35.566 -21.355 -18.966  0.00  0.00    +0.133 C 
BRANCH  14  15
ATOM     15  O   UNL     1      36.862 -21.823 -18.580  0.00  0.00    -0.383 OA
ATOM     16  H   UNL     1      36.777 -22.686 -18.144  0.00  0.00    +0.210 HD
ENDBRANCH  14  15
BRANCH  14  17
ATOM     17  C   UNL     1      35.642 -20.885 -20.420  0.00  0.00    -0.048 C 
BRANCH  17  18
ATOM     18  N   UNL     1      35.661 -19.433 -20.527  0.00  0.00    +0.388 N 
ATOM     19  H   UNL     1      35.576 -19.030 -19.594  0.00  0.00    -0.084 HD
ATOM     20  H   UNL     1      36.540 -19.149 -20.959  0.00  0.00    -0.084 HD
BRANCH  18  21
ATOM     21  C   UNL     1      34.560 -18.957 -21.353  0.00  0.00    -0.046 C 
ATOM     22  C   UNL     1      34.465 -17.433 -21.209  0.00  0.00    -0.022 C 
ATOM     23  C   UNL     1      34.848 -19.330 -22.812  0.00  0.00    -0.022 C 
ATOM     24  C   UNL     1      33.254 -19.612 -20.889  0.00  0.00    -0.022 C 
ENDBRANCH  18  21
ENDBRANCH  17  18
ENDBRANCH  14  17
ENDBRANCH  13  14
ENDBRANCH   1  13
TORSDOF 8
ENDMDL
MODEL 2
REMARK VINA RESULT:      -8.4      3.981      7.275
REMARK  Name = 46937143
REMARK  8 active torsions:
REMARK  status: ('A' for Active; 'I' for Inactive)
REMARK    1  A    between atoms: O_1  and  C_4
REMARK    2  A    between atoms: O_1  and  C_13
REMARK    3  A    between atoms: C_8  and  C_12
REMARK    4  A    between atoms: C_13  and  C_14
REMARK    5  A    between atoms: C_14  and  O_15
REMARK    6  A    between atoms: C_14  and  C_17
REMARK    7  A    between atoms: C_17  and  N_18
REMARK    8  A    between atoms: N_18  and  C_21
REMARK                            x       y       z     vdW  Elec       q    Type
REMARK                         _______ _______ _______ _____ _____    ______ ____
ROOT
ATOM      1  O   UNL     1      33.167 -23.709 -13.385  0.00  0.00    -0.477 OA
ENDROOT
BRANCH   1   4
ATOM      2  N   UNL     1      30.162 -22.706 -16.881  0.00  0.00    -0.396 NA
ATOM      3  C   UNL     1      31.722 -23.200 -15.216  0.00  0.00    +0.045 C 
ATOM      4  C   UNL     1      32.978 -23.452 -14.703  0.00  0.00    +0.119 C 
ATOM      5  C   UNL     1      30.395 -23.152 -14.534  0.00  0.00    +0.101 C 
ATOM      6  C   UNL     1      31.520 -22.933 -16.579  0.00  0.00    +0.131 C 
ATOM      7  C   UNL     1      34.058 -23.434 -15.589  0.00  0.00    +0.090 C 
ATOM      8  C   UNL     1      29.552 -22.829 -15.740  0.00  0.00    +0.181 C 
ATOM      9  C   UNL     1      32.585 -22.914 -17.462  0.00  0.00    +0.028 C 
ATOM     10  C   UNL     1      33.864 -23.167 -16.956  0.00  0.00    -0.016 C 
BRANCH   8  12
ATOM     11  N   UNL     1      26.987 -22.500 -15.748  0.00  0.00    -0.189 NA
ATOM     12  C   UNL     1      28.138 -22.648 -15.745  0.00  0.00    +0.129 C 
ENDBRANCH   8  12
ENDBRANCH   1   4
BRANCH   1  13
ATOM     13  C   UNL     1      34.189 -24.647 -13.041  0.00  0.00    +0.232 C 
BRANCH  13  14
ATOM     14  C   UNL     1      35.146 -23.992 -12.048  0.00  0.00    +0.133 C 
BRANCH  14  15
ATOM     15  O   UNL     1      35.405 -24.912 -10.984  0.00  0.00    -0.383 OA
ATOM     16  H   UNL     1      35.733 -25.748 -11.353  0.00  0.00    +0.210 HD
ENDBRANCH  14  15
BRANCH  14  17
ATOM     17  C   UNL     1      36.485 -23.593 -12.672  0.00  0.00    -0.048 C 
BRANCH  17  18
ATOM     18  N   UNL     1      37.521 -24.585 -12.426  0.00  0.00    +0.388 N 
ATOM     19  H   UNL     1      38.317 -24.132 -11.978  0.00  0.00    -0.084 HD
ATOM     20  H   UNL     1      37.139 -25.313 -11.821  0.00  0.00    -0.084 HD
BRANCH  18  21
ATOM     21  C   UNL     1      37.961 -25.199 -13.672  0.00  0.00    -0.046 C 
ATOM     22  C   UNL     1      39.483 -25.380 -13.615  0.00  0.00    -0.022 C 
ATOM     23  C   UNL     1      37.274 -26.561 -13.814  0.00  0.00    -0.022 C 
ATOM     24  C   UNL     1      37.583 -24.292 -14.848  0.00  0.00    -0.022 C 
ENDBRANCH  18  21
ENDBRANCH  17  18
ENDBRANCH  14  17
ENDBRANCH  13  14
ENDBRANCH   1  13
TORSDOF 8
ENDMDL
MODEL 3
REMARK VINA RESULT:      -8.4      1.045      1.497
REMARK  Name = 46937143
REMARK  8 active torsions:
REMARK  status: ('A' for Active; 'I' for Inactive)
REMARK    1  A    between atoms: O_1  and  C_4
REMARK    2  A    between atoms: O_1  and  C_13
REMARK    3  A    between atoms: C_8  and  C_12
REMARK    4  A    between atoms: C_13  and  C_14
REMARK    5  A    between atoms: C_14  and  O_15
REMARK    6  A    between atoms: C_14  and  C_17
REMARK    7  A    between atoms: C_17  and  N_18
REMARK    8  A    between atoms: N_18  and  C_21
REMARK                            x       y       z     vdW  Elec       q    Type
REMARK                         _______ _______ _______ _____ _____    ______ ____
ROOT
ATOM      1  O   UNL     1      34.121 -23.511 -17.541  0.00  0.00    -0.477 OA
ENDROOT
BRANCH   1   4
ATOM      2  N   UNL     1      33.303 -23.995 -12.919  0.00  0.00    -0.396 NA
ATOM      3  C   UNL     1      33.614 -23.729 -15.218  0.00  0.00    +0.045 C 
ATOM      4  C   UNL     1      33.240 -23.431 -16.512  0.00  0.00    +0.119 C 
ATOM      5  C   UNL     1      34.932 -24.169 -14.673  0.00  0.00    +0.101 C 
ATOM      6  C   UNL     1      32.708 -23.646 -14.149  0.00  0.00    +0.131 C 
ATOM      7  C   UNL     1      31.917 -23.040 -16.734  0.00  0.00    +0.090 C 
ATOM      8  C   UNL     1      34.534 -24.280 -13.225  0.00  0.00    +0.181 C 
ATOM      9  C   UNL     1      31.396 -23.261 -14.362  0.00  0.00    +0.028 C 
ATOM     10  C   UNL     1      31.003 -22.955 -15.668  0.00  0.00    -0.016 C 
BRANCH   8  12
ATOM     11  N   UNL     1      36.080 -24.996 -11.280  0.00  0.00    -0.189 NA
ATOM     12  C   UNL     1      35.386 -24.674 -12.153  0.00  0.00    +0.129 C 
ENDBRANCH   8  12
ENDBRANCH   1   4
BRANCH   1  13
ATOM     13  C   UNL     1      34.712 -22.291 -17.992  0.00  0.00    +0.232 C 
BRANCH  13  14
ATOM     14  C   UNL     1      34.469 -22.151 -19.493  0.00  0.00    +0.133 C 
BRANCH  14  15
ATOM     15  O   UNL     1      33.062 -22.019 -19.719  0.00  0.00    -0.383 OA
ATOM     16  H   UNL     1      32.707 -21.322 -19.145  0.00  0.00    +0.210 HD
ENDBRANCH  14  15
BRANCH  14  17
ATOM     17  C   UNL     1      35.169 -20.938 -20.109  0.00  0.00    -0.048 C 
BRANCH  17  18
ATOM     18  N   UNL     1      34.222 -19.995 -20.688  0.00  0.00    +0.388 N 
ATOM     19  H   UNL     1      33.576 -20.501 -21.294  0.00  0.00    -0.084 HD
ATOM     20  H   UNL     1      33.716 -19.535 -19.932  0.00  0.00    -0.084 HD
BRANCH  18  21
ATOM     21  C   UNL     1      34.913 -18.979 -21.471  0.00  0.00    -0.046 C 
ATOM     22  C   UNL     1      34.799 -19.346 -22.956  0.00  0.00    -0.022 C 
ATOM     23  C   UNL     1      34.244 -17.625 -21.212  0.00  0.00    -0.022 C 
ATOM     24  C   UNL     1      36.386 -18.928 -21.053  0.00  0.00    -0.022 C 
ENDBRANCH  18  21
ENDBRANCH  17  18
ENDBRANCH  14  17
ENDBRANCH  13  14
ENDBRANCH   1  13
TORSDOF 8
ENDMDL
MODEL 4
REMARK VINA RESULT:      -8.4      2.380      4.074
REMARK  Name = 46937143
REMARK  8 active torsions:
REMARK  status: ('A' for Active; 'I' for Inactive)
REMARK    1  A    between atoms: O_1  and  C_4
REMARK    2  A    between atoms: O_1  and  C_13
REMARK    3  A    between atoms: C_8  and  C_12
REMARK    4  A    between atoms: C_13  and  C_14
REMARK    5  A    between atoms: C_14  and  O_15
REMARK    6  A    between atoms: C_14  and  C_17
REMARK    7  A    between atoms: C_17  and  N_18
REMARK    8  A    between atoms: N_18  and  C_21
REMARK                            x       y       z     vdW  Elec       q    Type
REMARK                         _______ _______ _______ _____ _____    ______ ____
ROOT
ATOM      1  O   UNL     1      32.982 -23.211 -18.109  0.00  0.00    -0.477 OA
ENDROOT
BRANCH   1   4
ATOM      2  N   UNL     1      29.865 -22.941 -14.578  0.00  0.00    -0.396 NA
ATOM      3  C   UNL     1      31.478 -23.091 -16.259  0.00  0.00    +0.045 C 
ATOM      4  C   UNL     1      32.746 -23.267 -16.774  0.00  0.00    +0.119 C 
ATOM      5  C   UNL     1      30.184 -22.824 -16.953  0.00  0.00    +0.101 C 
ATOM      6  C   UNL     1      31.227 -23.148 -14.879  0.00  0.00    +0.131 C 
ATOM      7  C   UNL     1      33.787 -23.505 -15.874  0.00  0.00    +0.090 C 
ATOM      8  C   UNL     1      29.301 -22.764 -15.735  0.00  0.00    +0.181 C 
ATOM      9  C   UNL     1      32.253 -23.383 -13.982  0.00  0.00    +0.028 C 
ATOM     10  C   UNL     1      33.543 -23.563 -14.490  0.00  0.00    -0.016 C 
BRANCH   8  12
ATOM     11  N   UNL     1      26.751 -22.337 -15.735  0.00  0.00    -0.189 NA
ATOM     12  C   UNL     1      27.895 -22.529 -15.735  0.00  0.00    +0.129 C 
ENDBRANCH   8  12
ENDBRANCH   1   4
BRANCH   1  13
ATOM     13  C   UNL     1      34.079 -22.406 -18.547  0.00  0.00    +0.232 C 
BRANCH  13  14
ATOM     14  C   UNL     1      33.625 -21.560 -19.734  0.00  0.00    +0.133 C 
BRANCH  14  15
ATOM     15  O   UNL     1      32.461 -20.821 -19.353  0.00  0.00    -0.383 OA
ATOM     16  H   UNL     1      32.715 -20.110 -18.743  0.00  0.00    +0.210 HD
ENDBRANCH  14  15
BRANCH  14  17
ATOM     17  C   UNL     1      34.688 -20.566 -20.209  0.00  0.00    -0.048 C 
BRANCH  17  18
ATOM     18  N   UNL     1      34.102 -19.427 -20.902  0.00  0.00    +0.388 N 
ATOM     19  H   UNL     1      33.477 -19.767 -21.632  0.00  0.00    -0.084 HD
ATOM     20  H   UNL     1      33.587 -18.864 -20.226  0.00  0.00    -0.084 HD
BRANCH  18  21
ATOM     21  C   UNL     1      35.136 -18.598 -21.507  0.00  0.00    -0.046 C 
ATOM     22  C   UNL     1      35.060 -18.758 -23.030  0.00  0.00    -0.022 C 
ATOM     23  C   UNL     1      34.881 -17.138 -21.117  0.00  0.00    -0.022 C 
ATOM     24  C   UNL     1      36.511 -19.047 -20.999  0.00  0.00    -0.022 C 
ENDBRANCH  18  21
ENDBRANCH  17  18
ENDBRANCH  14  17
ENDBRANCH  13  14
ENDBRANCH   1  13
TORSDOF 8
ENDMDL
MODEL 5
REMARK VINA RESULT:      -8.2      6.652     12.174
REMARK  Name = 46937143
REMARK  8 active torsions:
REMARK  status: ('A' for Active; 'I' for Inactive)
REMARK    1  A    between atoms: O_1  and  C_4
REMARK    2  A    between atoms: O_1  and  C_13
REMARK    3  A    between atoms: C_8  and  C_12
REMARK    4  A    between atoms: C_13  and  C_14
REMARK    5  A    between atoms: C_14  and  O_15
REMARK    6  A    between atoms: C_14  and  C_17
REMARK    7  A    between atoms: C_17  and  N_18
REMARK    8  A    between atoms: N_18  and  C_21
REMARK                            x       y       z     vdW  Elec       q    Type
REMARK                         _______ _______ _______ _____ _____    ______ ____
ROOT
ATOM      1  O   UNL     1      32.106 -14.134 -22.085  0.00  0.00    -0.477 OA
ENDROOT
BRANCH   1   4
ATOM      2  N   UNL     1      33.524 -10.005 -23.873  0.00  0.00    -0.396 NA
ATOM      3  C   UNL     1      32.768 -11.999 -22.923  0.00  0.00    +0.045 C 
ATOM      4  C   UNL     1      32.052 -12.780 -22.038  0.00  0.00    +0.119 C 
ATOM      5  C   UNL     1      33.684 -12.394 -24.034  0.00  0.00    +0.101 C 
ATOM      6  C   UNL     1      32.717 -10.597 -22.880  0.00  0.00    +0.131 C 
ATOM      7  C   UNL     1      31.265 -12.128 -21.086  0.00  0.00    +0.090 C 
ATOM      8  C   UNL     1      34.051 -11.012 -24.504  0.00  0.00    +0.181 C 
ATOM      9  C   UNL     1      31.939  -9.946 -21.939  0.00  0.00    +0.028 C 
ATOM     10  C   UNL     1      31.209 -10.724 -21.037  0.00  0.00    -0.016 C 
BRANCH   8  12
ATOM     11  N   UNL     1      35.648 -10.454 -26.460  0.00  0.00    -0.189 NA
ATOM     12  C   UNL     1      34.931 -10.704 -25.582  0.00  0.00    +0.129 C 
ENDBRANCH   8  12
ENDBRANCH   1   4
BRANCH   1  13
ATOM     13  C   UNL     1      32.716 -14.804 -20.979  0.00  0.00    +0.232 C 
BRANCH  13  14
ATOM     14  C   UNL     1      34.151 -15.166 -21.354  0.00  0.00    +0.133 C 
BRANCH  14  15
ATOM     15  O   UNL     1      34.986 -14.977 -20.207  0.00  0.00    -0.383 OA
ATOM     16  H   UNL     1      34.450 -15.052 -19.401  0.00  0.00    +0.210 HD
ENDBRANCH  14  15
BRANCH  14  17
ATOM     17  C   UNL     1      34.305 -16.615 -21.824  0.00  0.00    -0.048 C 
BRANCH  17  18
ATOM     18  N   UNL     1      35.068 -17.419 -20.880  0.00  0.00    +0.388 N 
ATOM     19  H   UNL     1      36.000 -17.018 -20.777  0.00  0.00    -0.084 HD
ATOM     20  H   UNL     1      34.580 -17.421 -19.984  0.00  0.00    -0.084 HD
BRANCH  18  21
ATOM     21  C   UNL     1      35.190 -18.794 -21.346  0.00  0.00    -0.046 C 
ATOM     22  C   UNL     1      36.450 -19.409 -20.727  0.00  0.00    -0.022 C 
ATOM     23  C   UNL     1      33.949 -19.573 -20.897  0.00  0.00    -0.022 C 
ATOM     24  C   UNL     1      35.296 -18.805 -22.875  0.00  0.00    -0.022 C 
ENDBRANCH  18  21
ENDBRANCH  17  18
ENDBRANCH  14  17
ENDBRANCH  13  14
ENDBRANCH   1  13
TORSDOF 8
ENDMDL
MODEL 6
REMARK VINA RESULT:      -8.1      7.937     11.730
REMARK  Name = 46937143
REMARK  8 active torsions:
REMARK  status: ('A' for Active; 'I' for Inactive)
REMARK    1  A    between atoms: O_1  and  C_4
REMARK    2  A    between atoms: O_1  and  C_13
REMARK    3  A    between atoms: C_8  and  C_12
REMARK    4  A    between atoms: C_13  and  C_14
REMARK    5  A    between atoms: C_14  and  O_15
REMARK    6  A    between atoms: C_14  and  C_17
REMARK    7  A    between atoms: C_17  and  N_18
REMARK    8  A    between atoms: N_18  and  C_21
REMARK                            x       y       z     vdW  Elec       q    Type
REMARK                         _______ _______ _______ _____ _____    ______ ____
ROOT
ATOM      1  O   UNL     1      33.290 -12.772 -22.926  0.00  0.00    -0.477 OA
ENDROOT
BRANCH   1   4
ATOM      2  N   UNL     1      34.720 -17.226 -23.537  0.00  0.00    -0.396 NA
ATOM      3  C   UNL     1      33.987 -15.019 -23.329  0.00  0.00    +0.045 C 
ATOM      4  C   UNL     1      33.450 -13.825 -23.766  0.00  0.00    +0.119 C 
ATOM      5  C   UNL     1      34.478 -15.418 -21.977  0.00  0.00    +0.101 C 
ATOM      6  C   UNL     1      34.155 -16.113 -24.193  0.00  0.00    +0.131 C 
ATOM      7  C   UNL     1      33.073 -13.732 -25.107  0.00  0.00    +0.090 C 
ATOM      8  C   UNL     1      34.892 -16.826 -22.313  0.00  0.00    +0.181 C 
ATOM      9  C   UNL     1      33.783 -16.028 -25.523  0.00  0.00    +0.028 C 
ATOM     10  C   UNL     1      33.238 -14.824 -25.979  0.00  0.00    -0.016 C 
BRANCH   8  12
ATOM     11  N   UNL     1      35.922 -18.533 -20.665  0.00  0.00    -0.189 NA
ATOM     12  C   UNL     1      35.460 -17.767 -21.405  0.00  0.00    +0.129 C 
ENDBRANCH   8  12
ENDBRANCH   1   4
BRANCH   1  13
ATOM     13  C   UNL     1      32.143 -12.784 -22.072  0.00  0.00    +0.232 C 
BRANCH  13  14
ATOM     14  C   UNL     1      31.382 -11.472 -22.251  0.00  0.00    +0.133 C 
BRANCH  14  15
ATOM     15  O   UNL     1      30.247 -11.479 -21.380  0.00  0.00    -0.383 OA
ATOM     16  H   UNL     1      29.540 -12.013 -21.775  0.00  0.00    +0.210 HD
ENDBRANCH  14  15
BRANCH  14  17
ATOM     17  C   UNL     1      32.225 -10.236 -21.929  0.00  0.00    -0.048 C 
BRANCH  17  18
ATOM     18  N   UNL     1      32.861  -9.683 -23.116  0.00  0.00    +0.388 N 
ATOM     19  H   UNL     1      33.773 -10.122 -23.241  0.00  0.00    -0.084 HD
ATOM     20  H   UNL     1      32.263  -9.866 -23.922  0.00  0.00    -0.084 HD
BRANCH  18  21
ATOM     21  C   UNL     1      33.040  -8.243 -22.988  0.00  0.00    -0.046 C 
ATOM     22  C   UNL     1      34.442  -7.879 -23.491  0.00  0.00    -0.022 C 
ATOM     23  C   UNL     1      31.976  -7.541 -23.839  0.00  0.00    -0.022 C 
ATOM     24  C   UNL     1      32.888  -7.840 -21.517  0.00  0.00    -0.022 C 
ENDBRANCH  18  21
ENDBRANCH  17  18
ENDBRANCH  14  17
ENDBRANCH  13  14
ENDBRANCH   1  13
TORSDOF 8
ENDMDL
MODEL 7
REMARK VINA RESULT:      -8.0      7.200     10.845
REMARK  Name = 46937143
REMARK  8 active torsions:
REMARK  status: ('A' for Active; 'I' for Inactive)
REMARK    1  A    between atoms: O_1  and  C_4
REMARK    2  A    between atoms: O_1  and  C_13
REMARK    3  A    between atoms: C_8  and  C_12
REMARK    4  A    between atoms: C_13  and  C_14
REMARK    5  A    between atoms: C_14  and  O_15
REMARK    6  A    between atoms: C_14  and  C_17
REMARK    7  A    between atoms: C_17  and  N_18
REMARK    8  A    between atoms: N_18  and  C_21
REMARK                            x       y       z     vdW  Elec       q    Type
REMARK                         _______ _______ _______ _____ _____    ______ ____
ROOT
ATOM      1  O   UNL     1      33.509 -14.098 -22.419  0.00  0.00    -0.477 OA
ENDROOT
BRANCH   1   4
ATOM      2  N   UNL     1      35.486 -18.317 -23.161  0.00  0.00    -0.396 NA
ATOM      3  C   UNL     1      34.487 -16.224 -22.890  0.00  0.00    +0.045 C 
ATOM      4  C   UNL     1      33.833 -15.079 -23.298  0.00  0.00    +0.119 C 
ATOM      5  C   UNL     1      34.956 -16.635 -21.533  0.00  0.00    +0.101 C 
ATOM      6  C   UNL     1      34.825 -17.244 -23.793  0.00  0.00    +0.131 C 
ATOM      7  C   UNL     1      33.513 -14.960 -24.652  0.00  0.00    +0.090 C 
ATOM      8  C   UNL     1      35.550 -17.965 -21.911  0.00  0.00    +0.181 C 
ATOM      9  C   UNL     1      34.511 -17.132 -25.136  0.00  0.00    +0.028 C 
ATOM     10  C   UNL     1      33.848 -15.978 -25.563  0.00  0.00    -0.016 C 
BRANCH   8  12
ATOM     11  N   UNL     1      36.695 -19.625 -20.292  0.00  0.00    -0.189 NA
ATOM     12  C   UNL     1      36.182 -18.880 -21.019  0.00  0.00    +0.129 C 
ENDBRANCH   8  12
ENDBRANCH   1   4
BRANCH   1  13
ATOM     13  C   UNL     1      32.948 -12.898 -22.957  0.00  0.00    +0.232 C 
BRANCH  13  14
ATOM     14  C   UNL     1      31.807 -12.439 -22.052  0.00  0.00    +0.133 C 
BRANCH  14  15
ATOM     15  O   UNL     1      32.136 -12.765 -20.698  0.00  0.00    -0.383 OA
ATOM     16  H   UNL     1      31.992 -13.713 -20.550  0.00  0.00    +0.210 HD
ENDBRANCH  14  15
BRANCH  14  17
ATOM     17  C   UNL     1      31.542 -10.933 -22.130  0.00  0.00    -0.048 C 
BRANCH  17  18
ATOM     18  N   UNL     1      32.504 -10.252 -22.984  0.00  0.00    +0.388 N 
ATOM     19  H   UNL     1      33.434 -10.629 -22.806  0.00  0.00    -0.084 HD
ATOM     20  H   UNL     1      32.239 -10.401 -23.958  0.00  0.00    -0.084 HD
BRANCH  18  21
ATOM     21  C   UNL     1      32.512  -8.819 -22.719  0.00  0.00    -0.046 C 
ATOM     22  C   UNL     1      32.395  -8.602 -21.206  0.00  0.00    -0.022 C 
ATOM     23  C   UNL     1      33.832  -8.235 -23.234  0.00  0.00    -0.022 C 
ATOM     24  C   UNL     1      31.328  -8.162 -23.437  0.00  0.00    -0.022 C 
ENDBRANCH  18  21
ENDBRANCH  17  18
ENDBRANCH  14  17
ENDBRANCH  13  14
ENDBRANCH   1  13
TORSDOF 8
ENDMDL
MODEL 8
REMARK VINA RESULT:      -7.9      4.267      6.571
REMARK  Name = 46937143
REMARK  8 active torsions:
REMARK  status: ('A' for Active; 'I' for Inactive)
REMARK    1  A    between atoms: O_1  and  C_4
REMARK    2  A    between atoms: O_1  and  C_13
REMARK    3  A    between atoms: C_8  and  C_12
REMARK    4  A    between atoms: C_13  and  C_14
REMARK    5  A    between atoms: C_14  and  O_15
REMARK    6  A    between atoms: C_14  and  C_17
REMARK    7  A    between atoms: C_17  and  N_18
REMARK    8  A    between atoms: N_18  and  C_21
REMARK                            x       y       z     vdW  Elec       q    Type
REMARK                         _______ _______ _______ _____ _____    ______ ____
ROOT
ATOM      1  O   UNL     1      34.677 -24.851 -14.484  0.00  0.00    -0.477 OA
ENDROOT
BRANCH   1   4
ATOM      2  N   UNL     1      39.251 -24.103 -15.366  0.00  0.00    -0.396 NA
ATOM      3  C   UNL     1      36.967 -24.389 -14.977  0.00  0.00    +0.045 C 
ATOM      4  C   UNL     1      35.629 -24.059 -15.039  0.00  0.00    +0.119 C 
ATOM      5  C   UNL     1      37.642 -25.565 -14.352  0.00  0.00    +0.101 C 
ATOM      6  C   UNL     1      37.956 -23.575 -15.550  0.00  0.00    +0.131 C 
ATOM      7  C   UNL     1      35.280 -22.878 -15.697  0.00  0.00    +0.090 C 
ATOM      8  C   UNL     1      39.060 -25.204 -14.703  0.00  0.00    +0.181 C 
ATOM      9  C   UNL     1      37.618 -22.404 -16.203  0.00  0.00    +0.028 C 
ATOM     10  C   UNL     1      36.265 -22.057 -16.274  0.00  0.00    -0.016 C 
BRANCH   8  12
ATOM     11  N   UNL     1      41.165 -26.581 -14.101  0.00  0.00    -0.189 NA
ATOM     12  C   UNL     1      40.221 -25.962 -14.371  0.00  0.00    +0.129 C 
ENDBRANCH   8  12
ENDBRANCH   1   4
BRANCH   1  13
ATOM     13  C   UNL     1      33.704 -24.217 -13.651  0.00  0.00    +0.232 C 
BRANCH  13  14
ATOM     14  C   UNL     1      32.310 -24.623 -14.125  0.00  0.00    +0.133 C 
BRANCH  14  15
ATOM     15  O   UNL     1      31.522 -24.973 -12.984  0.00  0.00    -0.383 OA
ATOM     16  H   UNL     1      32.033 -25.561 -12.406  0.00  0.00    +0.210 HD
ENDBRANCH  14  15
BRANCH  14  17
ATOM     17  C   UNL     1      31.583 -23.512 -14.886  0.00  0.00    -0.048 C 
BRANCH  17  18
ATOM     18  N   UNL     1      30.761 -24.036 -15.967  0.00  0.00    +0.388 N 
ATOM     19  H   UNL     1      31.024 -23.577 -16.839  0.00  0.00    -0.084 HD
ATOM     20  H   UNL     1      30.913 -25.042 -16.034  0.00  0.00    -0.084 HD
BRANCH  18  21
ATOM     21  C   UNL     1      29.347 -23.795 -15.710  0.00  0.00    -0.046 C 
ATOM     22  C   UNL     1      28.801 -24.952 -14.865  0.00  0.00    -0.022 C 
ATOM     23  C   UNL     1      29.209 -22.474 -14.945  0.00  0.00    -0.022 C 
ATOM     24  C   UNL     1      28.594 -23.714 -17.042  0.00  0.00    -0.022 C 
ENDBRANCH  18  21
ENDBRANCH  17  18
ENDBRANCH  14  17
ENDBRANCH  13  14
ENDBRANCH   1  13
TORSDOF 8
ENDMDL
MODEL 9
REMARK VINA RESULT:      -7.9      2.225      8.045
REMARK  Name = 46937143
REMARK  8 active torsions:
REMARK  status: ('A' for Active; 'I' for Inactive)
REMARK    1  A    between atoms: O_1  and  C_4
REMARK    2  A    between atoms: O_1  and  C_13
REMARK    3  A    between atoms: C_8  and  C_12
REMARK    4  A    between atoms: C_13  and  C_14
REMARK    5  A    between atoms: C_14  and  O_15
REMARK    6  A    between atoms: C_14  and  C_17
REMARK    7  A    between atoms: C_17  and  N_18
REMARK    8  A    between atoms: N_18  and  C_21
REMARK                            x       y       z     vdW  Elec       q    Type
REMARK                         _______ _______ _______ _____ _____    ______ ____
ROOT
ATOM      1  O   UNL     1      37.019 -22.051 -18.033  0.00  0.00    -0.477 OA
ENDROOT
BRANCH   1   4
ATOM      2  N   UNL     1      34.147 -19.880 -21.082  0.00  0.00    -0.396 NA
ATOM      3  C   UNL     1      35.491 -21.003 -19.539  0.00  0.00    +0.045 C 
ATOM      4  C   UNL     1      35.761 -21.885 -18.512  0.00  0.00    +0.119 C 
ATOM      5  C   UNL     1      36.405 -20.102 -20.301  0.00  0.00    +0.101 C 
ATOM      6  C   UNL     1      34.192 -20.827 -20.039  0.00  0.00    +0.131 C 
ATOM      7  C   UNL     1      34.692 -22.608 -17.978  0.00  0.00    +0.090 C 
ATOM      8  C   UNL     1      35.380 -19.489 -21.216  0.00  0.00    +0.181 C 
ATOM      9  C   UNL     1      33.128 -21.540 -19.514  0.00  0.00    +0.028 C 
ATOM     10  C   UNL     1      33.387 -22.438 -18.474  0.00  0.00    -0.016 C 
BRANCH   8  12
ATOM     11  N   UNL     1      35.847 -17.714 -23.038  0.00  0.00    -0.189 NA
ATOM     12  C   UNL     1      35.637 -18.511 -22.221  0.00  0.00    +0.129 C 
ENDBRANCH   8  12
ENDBRANCH   1   4
BRANCH   1  13
ATOM     13  C   UNL     1      37.218 -21.845 -16.633  0.00  0.00    +0.232 C 
BRANCH  13  14
ATOM     14  C   UNL     1      37.467 -23.196 -15.967  0.00  0.00    +0.133 C 
BRANCH  14  15
ATOM     15  O   UNL     1      38.879 -23.398 -15.853  0.00  0.00    -0.383 OA
ATOM     16  H   UNL     1      39.065 -24.348 -15.781  0.00  0.00    +0.210 HD
ENDBRANCH  14  15
BRANCH  14  17
ATOM     17  C   UNL     1      36.854 -23.303 -14.568  0.00  0.00    -0.048 C 
BRANCH  17  18
ATOM     18  N   UNL     1      36.670 -24.686 -14.155  0.00  0.00    +0.388 N 
ATOM     19  H   UNL     1      35.740 -24.997 -14.436  0.00  0.00    -0.084 HD
ATOM     20  H   UNL     1      37.387 -25.259 -14.601  0.00  0.00    -0.084 HD
BRANCH  18  21
ATOM     21  C   UNL     1      36.801 -24.820 -12.710  0.00  0.00    -0.046 C 
ATOM     22  C   UNL     1      37.258 -26.249 -12.392  0.00  0.00    -0.022 C 
ATOM     23  C   UNL     1      37.845 -23.812 -12.220  0.00  0.00    -0.022 C 
ATOM     24  C   UNL     1      35.447 -24.542 -12.048  0.00  0.00    -0.022 C 
ENDBRANCH  18  21
ENDBRANCH  17  18
ENDBRANCH  14  17
ENDBRANCH  13  14
ENDBRANCH   1  13
TORSDOF 8
ENDMDL
