MODEL 1
REMARK VINA RESULT:      -8.0      0.000      0.000
REMARK  Name = 445651
REMARK  13 active torsions:
REMARK  status: ('A' for Active; 'I' for Inactive)
REMARK    1  A    between atoms: N_1  and  C_3
REMARK    2  A    between atoms: N_1  and  C_11
REMARK    3  A    between atoms: N_1  and  C_21
REMARK    4  A    between atoms: C_3  and  C_4
REMARK    5  A    between atoms: C_4  and  C_5
REMARK    6  A    between atoms: C_5  and  C_6
REMARK    7  A    between atoms: C_6  and  C_8
REMARK    8  A    between atoms: C_8  and  O_9
REMARK    9  A    between atoms: C_11  and  C_12
REMARK   10  A    between atoms: C_17  and  N_20
REMARK   11  A    between atoms: C_21  and  P_22
REMARK   12  A    between atoms: P_22  and  O_24
REMARK   13  A    between atoms: P_22  and  O_26
REMARK                            x       y       z     vdW  Elec       q    Type
REMARK                         _______ _______ _______ _____ _____    ______ ____
ROOT
ATOM      1  N   UNL     1      34.724 -17.578 -22.771  0.00  0.00    +0.398 N 
ATOM      2  H   UNL     1      33.850 -17.757 -22.275  0.00  0.00    -0.078 HD
ENDROOT
BRANCH   1   3
ATOM      3  C   UNL     1      34.525 -17.804 -24.197  0.00  0.00    -0.076 C 
BRANCH   3   4
ATOM      4  C   UNL     1      34.698 -16.521 -25.010  0.00  0.00    -0.022 C 
BRANCH   4   5
ATOM      5  C   UNL     1      33.381 -15.999 -25.596  0.00  0.00    +0.009 C 
BRANCH   5   6
ATOM      6  C   UNL     1      33.373 -14.481 -25.750  0.00  0.00    +0.109 C 
BRANCH   6   8
ATOM      7  O   UNL     1      32.204 -13.916 -23.712  0.00  0.00    -0.250 OA
ATOM      8  C   UNL     1      33.182 -13.769 -24.433  0.00  0.00    +0.314 C 
BRANCH   8   9
ATOM      9  O   UNL     1      34.219 -12.949 -24.129  0.00  0.00    -0.480 OA
ATOM     10  H   UNL     1      34.902 -12.805 -24.753  0.00  0.00    +0.295 HD
ENDBRANCH   8   9
ENDBRANCH   6   8
ENDBRANCH   5   6
ENDBRANCH   4   5
ENDBRANCH   3   4
ENDBRANCH   1   3
BRANCH   1  11
ATOM     11  C   UNL     1      35.748 -18.500 -22.265  0.00  0.00    -0.049 C 
BRANCH  11  12
ATOM     12  C   UNL     1      35.171 -19.505 -21.303  0.00  0.00    -0.043 C 
ATOM     13  C   UNL     1      36.019 -20.324 -20.558  0.00  0.00    -0.005 C 
ATOM     14  C   UNL     1      33.788 -19.616 -21.157  0.00  0.00    -0.005 C 
ATOM     15  C   UNL     1      35.485 -21.253 -19.666  0.00  0.00    +0.024 C 
ATOM     16  C   UNL     1      33.254 -20.546 -20.266  0.00  0.00    +0.024 C 
ATOM     17  C   UNL     1      34.101 -21.364 -19.520  0.00  0.00    +0.143 C 
BRANCH  17  20
ATOM     18  O   UNL     1      32.325 -22.291 -18.380  0.00  0.00    -0.126 OA
ATOM     19  O   UNL     1      34.325 -23.138 -18.065  0.00  0.00    -0.126 OA
ATOM     20  N   UNL     1      33.557 -22.310 -18.611  0.00  0.00    +0.058 N 
ENDBRANCH  17  20
ENDBRANCH  11  12
ENDBRANCH   1  11
BRANCH   1  21
ATOM     21  C   UNL     1      35.094 -16.182 -22.519  0.00  0.00    +0.042 C 
BRANCH  21  22
ATOM     22  P   UNL     1      34.060 -15.704 -21.143  0.00  0.00    +0.316 P 
ATOM     23  O   UNL     1      32.728 -16.383 -21.039  0.00  0.00    -0.260 OA
BRANCH  22  24
ATOM     24  O   UNL     1      35.033 -15.954 -19.873  0.00  0.00    -0.325 OA
ATOM     25  H   UNL     1      35.191 -15.113 -19.417  0.00  0.00    +0.220 HD
ENDBRANCH  22  24
BRANCH  22  26
ATOM     26  O   UNL     1      34.004 -14.090 -21.234  0.00  0.00    -0.325 OA
ATOM     27  H   UNL     1      34.579 -13.708 -20.552  0.00  0.00    +0.220 HD
ENDBRANCH  22  26
ENDBRANCH  21  22
ENDBRANCH   1  21
TORSDOF 13
ENDMDL
MODEL 2
REMARK VINA RESULT:      -7.8      8.868     11.776
REMARK  Name = 445651
REMARK  13 active torsions:
REMARK  status: ('A' for Active; 'I' for Inactive)
REMARK    1  A    between atoms: N_1  and  C_3
REMARK    2  A    between atoms: N_1  and  C_11
REMARK    3  A    between atoms: N_1  and  C_21
REMARK    4  A    between atoms: C_3  and  C_4
REMARK    5  A    between atoms: C_4  and  C_5
REMARK    6  A    between atoms: C_5  and  C_6
REMARK    7  A    between atoms: C_6  and  C_8
REMARK    8  A    between atoms: C_8  and  O_9
REMARK    9  A    between atoms: C_11  and  C_12
REMARK   10  A    between atoms: C_17  and  N_20
REMARK   11  A    between atoms: C_21  and  P_22
REMARK   12  A    between atoms: P_22  and  O_24
REMARK   13  A    between atoms: P_22  and  O_26
REMARK                            x       y       z     vdW  Elec       q    Type
REMARK                         _______ _______ _______ _____ _____    ______ ____
ROOT
ATOM      1  N   UNL     1      35.699 -24.236 -13.925  0.00  0.00    +0.398 N 
ATOM      2  H   UNL     1      36.677 -24.138 -13.654  0.00  0.00    -0.078 HD
ENDROOT
BRANCH   1   3
ATOM      3  C   UNL     1      35.562 -25.366 -14.836  0.00  0.00    -0.076 C 
BRANCH   3   4
ATOM      4  C   UNL     1      36.885 -26.109 -15.028  0.00  0.00    -0.022 C 
BRANCH   4   5
ATOM      5  C   UNL     1      38.104 -25.177 -15.017  0.00  0.00    +0.009 C 
BRANCH   5   6
ATOM      6  C   UNL     1      39.161 -25.614 -14.007  0.00  0.00    +0.109 C 
BRANCH   6   8
ATOM      7  O   UNL     1      41.315 -26.707 -14.075  0.00  0.00    -0.250 OA
ATOM      8  C   UNL     1      40.412 -26.135 -14.671  0.00  0.00    +0.314 C 
BRANCH   8   9
ATOM      9  O   UNL     1      40.427 -25.905 -16.008  0.00  0.00    -0.480 OA
ATOM     10  H   UNL     1      40.149 -25.077 -16.345  0.00  0.00    +0.295 HD
ENDBRANCH   8   9
ENDBRANCH   6   8
ENDBRANCH   5   6
ENDBRANCH   4   5
ENDBRANCH   3   4
ENDBRANCH   1   3
BRANCH   1  11
ATOM     11  C   UNL     1      35.275 -23.005 -14.603  0.00  0.00    -0.049 C 
BRANCH  11  12
ATOM     12  C   UNL     1      33.853 -23.096 -15.091  0.00  0.00    -0.043 C 
ATOM     13  C   UNL     1      33.589 -23.191 -16.458  0.00  0.00    -0.005 C 
ATOM     14  C   UNL     1      32.800 -23.086 -14.177  0.00  0.00    -0.005 C 
ATOM     15  C   UNL     1      32.273 -23.276 -16.910  0.00  0.00    +0.024 C 
ATOM     16  C   UNL     1      31.483 -23.171 -14.629  0.00  0.00    +0.024 C 
ATOM     17  C   UNL     1      31.220 -23.266 -15.995  0.00  0.00    +0.143 C 
BRANCH  17  20
ATOM     18  O   UNL     1      29.395 -22.397 -17.106  0.00  0.00    -0.126 OA
ATOM     19  O   UNL     1      29.216 -24.388 -16.200  0.00  0.00    -0.126 OA
ATOM     20  N   UNL     1      29.879 -23.355 -16.455  0.00  0.00    +0.058 N 
ENDBRANCH  17  20
ENDBRANCH  11  12
ENDBRANCH   1  11
BRANCH   1  21
ATOM     21  C   UNL     1      34.923 -24.464 -12.703  0.00  0.00    +0.042 C 
BRANCH  21  22
ATOM     22  P   UNL     1      36.163 -24.591 -11.424  0.00  0.00    +0.316 P 
ATOM     23  O   UNL     1      37.156 -23.472 -11.339  0.00  0.00    -0.260 OA
BRANCH  22  24
ATOM     24  O   UNL     1      35.268 -24.786 -10.089  0.00  0.00    -0.325 OA
ATOM     25  H   UNL     1      35.832 -25.096  -9.364  0.00  0.00    +0.220 HD
ENDBRANCH  22  24
BRANCH  22  26
ATOM     26  O   UNL     1      36.802 -26.062 -11.639  0.00  0.00    -0.325 OA
ATOM     27  H   UNL     1      36.929 -26.224 -12.587  0.00  0.00    +0.220 HD
ENDBRANCH  22  26
ENDBRANCH  21  22
ENDBRANCH   1  21
TORSDOF 13
ENDMDL
MODEL 3
REMARK VINA RESULT:      -7.8      8.525     11.043
REMARK  Name = 445651
REMARK  13 active torsions:
REMARK  status: ('A' for Active; 'I' for Inactive)
REMARK    1  A    between atoms: N_1  and  C_3
REMARK    2  A    between atoms: N_1  and  C_11
REMARK    3  A    between atoms: N_1  and  C_21
REMARK    4  A    between atoms: C_3  and  C_4
REMARK    5  A    between atoms: C_4  and  C_5
REMARK    6  A    between atoms: C_5  and  C_6
REMARK    7  A    between atoms: C_6  and  C_8
REMARK    8  A    between atoms: C_8  and  O_9
REMARK    9  A    between atoms: C_11  and  C_12
REMARK   10  A    between atoms: C_17  and  N_20
REMARK   11  A    between atoms: C_21  and  P_22
REMARK   12  A    between atoms: P_22  and  O_24
REMARK   13  A    between atoms: P_22  and  O_26
REMARK                            x       y       z     vdW  Elec       q    Type
REMARK                         _______ _______ _______ _____ _____    ______ ____
ROOT
ATOM      1  N   UNL     1      34.980 -23.866 -14.864  0.00  0.00    +0.398 N 
ATOM      2  H   UNL     1      34.615 -23.871 -15.817  0.00  0.00    -0.078 HD
ENDROOT
BRANCH   1   3
ATOM      3  C   UNL     1      35.719 -25.099 -14.623  0.00  0.00    -0.076 C 
BRANCH   3   4
ATOM      4  C   UNL     1      36.479 -25.061 -13.297  0.00  0.00    -0.022 C 
BRANCH   4   5
ATOM      5  C   UNL     1      37.630 -26.072 -13.236  0.00  0.00    +0.009 C 
BRANCH   5   6
ATOM      6  C   UNL     1      39.000 -25.399 -13.276  0.00  0.00    +0.109 C 
BRANCH   6   8
ATOM      7  O   UNL     1      41.008 -26.355 -14.222  0.00  0.00    -0.250 OA
ATOM      8  C   UNL     1      39.871 -25.931 -14.388  0.00  0.00    +0.314 C 
BRANCH   8   9
ATOM      9  O   UNL     1      39.255 -25.895 -15.595  0.00  0.00    -0.480 OA
ATOM     10  H   UNL     1      38.320 -25.913 -15.646  0.00  0.00    +0.295 HD
ENDBRANCH   8   9
ENDBRANCH   6   8
ENDBRANCH   5   6
ENDBRANCH   4   5
ENDBRANCH   3   4
ENDBRANCH   1   3
BRANCH   1  11
ATOM     11  C   UNL     1      33.851 -23.779 -13.930  0.00  0.00    -0.049 C 
BRANCH  11  12
ATOM     12  C   UNL     1      32.555 -23.498 -14.644  0.00  0.00    -0.043 C 
ATOM     13  C   UNL     1      32.551 -23.266 -16.019  0.00  0.00    -0.005 C 
ATOM     14  C   UNL     1      31.357 -23.472 -13.929  0.00  0.00    -0.005 C 
ATOM     15  C   UNL     1      31.351 -23.009 -16.679  0.00  0.00    +0.024 C 
ATOM     16  C   UNL     1      30.157 -23.214 -14.589  0.00  0.00    +0.024 C 
ATOM     17  C   UNL     1      30.153 -22.982 -15.964  0.00  0.00    +0.143 C 
BRANCH  17  20
ATOM     18  O   UNL     1      28.202 -21.782 -16.234  0.00  0.00    -0.126 OA
ATOM     19  O   UNL     1      28.611 -23.435 -17.618  0.00  0.00    -0.126 OA
ATOM     20  N   UNL     1      28.930 -22.721 -16.638  0.00  0.00    +0.058 N 
ENDBRANCH  17  20
ENDBRANCH  11  12
ENDBRANCH   1  11
BRANCH   1  21
ATOM     21  C   UNL     1      35.865 -22.704 -14.738  0.00  0.00    +0.042 C 
BRANCH  21  22
ATOM     22  P   UNL     1      36.576 -22.525 -16.367  0.00  0.00    +0.316 P 
ATOM     23  O   UNL     1      35.669 -22.801 -17.528  0.00  0.00    -0.260 OA
BRANCH  22  24
ATOM     24  O   UNL     1      37.162 -21.017 -16.328  0.00  0.00    -0.325 OA
ATOM     25  H   UNL     1      37.393 -20.737 -17.227  0.00  0.00    +0.220 HD
ENDBRANCH  22  24
BRANCH  22  26
ATOM     26  O   UNL     1      37.917 -23.428 -16.313  0.00  0.00    -0.325 OA
ATOM     27  H   UNL     1      37.907 -24.067 -17.044  0.00  0.00    +0.220 HD
ENDBRANCH  22  26
ENDBRANCH  21  22
ENDBRANCH   1  21
TORSDOF 13
ENDMDL
MODEL 4
REMARK VINA RESULT:      -7.7      4.337      9.919
REMARK  Name = 445651
REMARK  13 active torsions:
REMARK  status: ('A' for Active; 'I' for Inactive)
REMARK    1  A    between atoms: N_1  and  C_3
REMARK    2  A    between atoms: N_1  and  C_11
REMARK    3  A    between atoms: N_1  and  C_21
REMARK    4  A    between atoms: C_3  and  C_4
REMARK    5  A    between atoms: C_4  and  C_5
REMARK    6  A    between atoms: C_5  and  C_6
REMARK    7  A    between atoms: C_6  and  C_8
REMARK    8  A    between atoms: C_8  and  O_9
REMARK    9  A    between atoms: C_11  and  C_12
REMARK   10  A    between atoms: C_17  and  N_20
REMARK   11  A    between atoms: C_21  and  P_22
REMARK   12  A    between atoms: P_22  and  O_24
REMARK   13  A    between atoms: P_22  and  O_26
REMARK                            x       y       z     vdW  Elec       q    Type
REMARK                         _______ _______ _______ _____ _____    ______ ____
ROOT
ATOM      1  N   UNL     1      33.468 -23.002 -16.934  0.00  0.00    +0.398 N 
ATOM      2  H   UNL     1      32.978 -22.107 -16.895  0.00  0.00    -0.078 HD
ENDROOT
BRANCH   1   3
ATOM      3  C   UNL     1      34.733 -22.892 -16.218  0.00  0.00    -0.076 C 
BRANCH   3   4
ATOM      4  C   UNL     1      34.946 -24.057 -15.251  0.00  0.00    -0.022 C 
BRANCH   4   5
ATOM      5  C   UNL     1      36.424 -24.424 -15.071  0.00  0.00    +0.009 C 
BRANCH   5   6
ATOM      6  C   UNL     1      36.611 -25.707 -14.266  0.00  0.00    +0.109 C 
BRANCH   6   8
ATOM      7  O   UNL     1      38.472 -27.200 -14.654  0.00  0.00    -0.250 OA
ATOM      8  C   UNL     1      37.394 -26.753 -15.023  0.00  0.00    +0.314 C 
BRANCH   8   9
ATOM      9  O   UNL     1      36.768 -27.152 -16.158  0.00  0.00    -0.480 OA
ATOM     10  H   UNL     1      37.254 -27.249 -16.952  0.00  0.00    +0.295 HD
ENDBRANCH   8   9
ENDBRANCH   6   8
ENDBRANCH   5   6
ENDBRANCH   4   5
ENDBRANCH   3   4
ENDBRANCH   1   3
BRANCH   1  11
ATOM     11  C   UNL     1      33.728 -23.332 -18.341  0.00  0.00    -0.049 C 
BRANCH  11  12
ATOM     12  C   UNL     1      34.051 -22.106 -19.154  0.00  0.00    -0.043 C 
ATOM     13  C   UNL     1      35.378 -21.798 -19.453  0.00  0.00    -0.005 C 
ATOM     14  C   UNL     1      33.023 -21.279 -19.607  0.00  0.00    -0.005 C 
ATOM     15  C   UNL     1      35.677 -20.664 -20.207  0.00  0.00    +0.024 C 
ATOM     16  C   UNL     1      33.323 -20.144 -20.361  0.00  0.00    +0.024 C 
ATOM     17  C   UNL     1      34.650 -19.837 -20.661  0.00  0.00    +0.143 C 
BRANCH  17  20
ATOM     18  O   UNL     1      34.684 -18.678 -22.655  0.00  0.00    -0.126 OA
ATOM     19  O   UNL     1      35.485 -17.697 -20.863  0.00  0.00    -0.126 OA
ATOM     20  N   UNL     1      34.955 -18.682 -21.430  0.00  0.00    +0.058 N 
ENDBRANCH  17  20
ENDBRANCH  11  12
ENDBRANCH   1  11
BRANCH   1  21
ATOM     21  C   UNL     1      32.605 -24.005 -16.304  0.00  0.00    +0.042 C 
BRANCH  21  22
ATOM     22  P   UNL     1      31.051 -23.154 -16.078  0.00  0.00    +0.316 P 
ATOM     23  O   UNL     1      30.614 -22.249 -17.191  0.00  0.00    -0.260 OA
BRANCH  22  24
ATOM     24  O   UNL     1      30.028 -24.372 -15.775  0.00  0.00    -0.325 OA
ATOM     25  H   UNL     1      30.018 -24.981 -16.529  0.00  0.00    +0.220 HD
ENDBRANCH  22  24
BRANCH  22  26
ATOM     26  O   UNL     1      31.196 -22.444 -14.632  0.00  0.00    -0.325 OA
ATOM     27  H   UNL     1      30.616 -21.667 -14.594  0.00  0.00    +0.220 HD
ENDBRANCH  22  26
ENDBRANCH  21  22
ENDBRANCH   1  21
TORSDOF 13
ENDMDL
MODEL 5
REMARK VINA RESULT:      -7.6      6.331      9.354
REMARK  Name = 445651
REMARK  13 active torsions:
REMARK  status: ('A' for Active; 'I' for Inactive)
REMARK    1  A    between atoms: N_1  and  C_3
REMARK    2  A    between atoms: N_1  and  C_11
REMARK    3  A    between atoms: N_1  and  C_21
REMARK    4  A    between atoms: C_3  and  C_4
REMARK    5  A    between atoms: C_4  and  C_5
REMARK    6  A    between atoms: C_5  and  C_6
REMARK    7  A    between atoms: C_6  and  C_8
REMARK    8  A    between atoms: C_8  and  O_9
REMARK    9  A    between atoms: C_11  and  C_12
REMARK   10  A    between atoms: C_17  and  N_20
REMARK   11  A    between atoms: C_21  and  P_22
REMARK   12  A    between atoms: P_22  and  O_24
REMARK   13  A    between atoms: P_22  and  O_26
REMARK                            x       y       z     vdW  Elec       q    Type
REMARK                         _______ _______ _______ _____ _____    ______ ____
ROOT
ATOM      1  N   UNL     1      35.591 -23.359 -14.326  0.00  0.00    +0.398 N 
ATOM      2  H   UNL     1      34.962 -23.037 -13.590  0.00  0.00    -0.078 HD
ENDROOT
BRANCH   1   3
ATOM      3  C   UNL     1      36.104 -22.210 -15.060  0.00  0.00    -0.076 C 
BRANCH   3   4
ATOM      4  C   UNL     1      36.985 -22.629 -16.238  0.00  0.00    -0.022 C 
BRANCH   4   5
ATOM      5  C   UNL     1      36.939 -21.636 -17.405  0.00  0.00    +0.009 C 
BRANCH   5   6
ATOM      6  C   UNL     1      35.860 -21.986 -18.426  0.00  0.00    +0.109 C 
BRANCH   6   8
ATOM      7  O   UNL     1      36.658 -20.253 -19.910  0.00  0.00    -0.250 OA
ATOM      8  C   UNL     1      35.729 -20.942 -19.508  0.00  0.00    +0.314 C 
BRANCH   8   9
ATOM      9  O   UNL     1      34.466 -20.851 -19.993  0.00  0.00    -0.480 OA
ATOM     10  H   UNL     1      34.310 -20.935 -20.913  0.00  0.00    +0.295 HD
ENDBRANCH   8   9
ENDBRANCH   6   8
ENDBRANCH   5   6
ENDBRANCH   4   5
ENDBRANCH   3   4
ENDBRANCH   1   3
BRANCH   1  11
ATOM     11  C   UNL     1      34.836 -24.228 -15.238  0.00  0.00    -0.049 C 
BRANCH  11  12
ATOM     12  C   UNL     1      33.426 -23.739 -15.439  0.00  0.00    -0.043 C 
ATOM     13  C   UNL     1      32.578 -23.585 -14.342  0.00  0.00    -0.005 C 
ATOM     14  C   UNL     1      32.967 -23.440 -16.722  0.00  0.00    -0.005 C 
ATOM     15  C   UNL     1      31.273 -23.131 -14.528  0.00  0.00    +0.024 C 
ATOM     16  C   UNL     1      31.662 -22.986 -16.907  0.00  0.00    +0.024 C 
ATOM     17  C   UNL     1      30.815 -22.832 -15.811  0.00  0.00    +0.143 C 
BRANCH  17  20
ATOM     18  O   UNL     1      28.822 -22.002 -15.000  0.00  0.00    -0.126 OA
ATOM     19  O   UNL     1      29.012 -22.337 -17.161  0.00  0.00    -0.126 OA
ATOM     20  N   UNL     1      29.486 -22.369 -15.999  0.00  0.00    +0.058 N 
ENDBRANCH  17  20
ENDBRANCH  11  12
ENDBRANCH   1  11
BRANCH   1  21
ATOM     21  C   UNL     1      36.686 -24.090 -13.682  0.00  0.00    +0.042 C 
BRANCH  21  22
ATOM     22  P   UNL     1      36.358 -23.904 -11.936  0.00  0.00    +0.316 P 
ATOM     23  O   UNL     1      37.237 -22.948 -11.187  0.00  0.00    -0.260 OA
BRANCH  22  24
ATOM     24  O   UNL     1      34.787 -23.516 -11.916  0.00  0.00    -0.325 OA
ATOM     25  H   UNL     1      34.541 -23.212 -11.028  0.00  0.00    +0.220 HD
ENDBRANCH  22  24
BRANCH  22  26
ATOM     26  O   UNL     1      36.355 -25.421 -11.372  0.00  0.00    -0.325 OA
ATOM     27  H   UNL     1      35.489 -25.619 -10.984  0.00  0.00    +0.220 HD
ENDBRANCH  22  26
ENDBRANCH  21  22
ENDBRANCH   1  21
TORSDOF 13
ENDMDL
MODEL 6
REMARK VINA RESULT:      -7.5      4.669      8.918
REMARK  Name = 445651
REMARK  13 active torsions:
REMARK  status: ('A' for Active; 'I' for Inactive)
REMARK    1  A    between atoms: N_1  and  C_3
REMARK    2  A    between atoms: N_1  and  C_11
REMARK    3  A    between atoms: N_1  and  C_21
REMARK    4  A    between atoms: C_3  and  C_4
REMARK    5  A    between atoms: C_4  and  C_5
REMARK    6  A    between atoms: C_5  and  C_6
REMARK    7  A    between atoms: C_6  and  C_8
REMARK    8  A    between atoms: C_8  and  O_9
REMARK    9  A    between atoms: C_11  and  C_12
REMARK   10  A    between atoms: C_17  and  N_20
REMARK   11  A    between atoms: C_21  and  P_22
REMARK   12  A    between atoms: P_22  and  O_24
REMARK   13  A    between atoms: P_22  and  O_26
REMARK                            x       y       z     vdW  Elec       q    Type
REMARK                         _______ _______ _______ _____ _____    ______ ____
ROOT
ATOM      1  N   UNL     1      34.067 -23.493 -16.726  0.00  0.00    +0.398 N 
ATOM      2  H   UNL     1      34.365 -24.422 -16.428  0.00  0.00    -0.078 HD
ENDROOT
BRANCH   1   3
ATOM      3  C   UNL     1      33.000 -23.024 -15.849  0.00  0.00    -0.076 C 
BRANCH   3   4
ATOM      4  C   UNL     1      31.615 -23.349 -16.410  0.00  0.00    -0.022 C 
BRANCH   4   5
ATOM      5  C   UNL     1      30.475 -22.904 -15.485  0.00  0.00    +0.009 C 
BRANCH   5   6
ATOM      6  C   UNL     1      29.214 -23.744 -15.671  0.00  0.00    +0.109 C 
BRANCH   6   8
ATOM      7  O   UNL     1      27.736 -24.049 -17.558  0.00  0.00    -0.250 OA
ATOM      8  C   UNL     1      28.389 -23.293 -16.850  0.00  0.00    +0.314 C 
BRANCH   8   9
ATOM      9  O   UNL     1      28.444 -21.951 -17.042  0.00  0.00    -0.480 OA
ATOM     10  H   UNL     1      27.655 -21.447 -17.061  0.00  0.00    +0.295 HD
ENDBRANCH   8   9
ENDBRANCH   6   8
ENDBRANCH   5   6
ENDBRANCH   4   5
ENDBRANCH   3   4
ENDBRANCH   1   3
BRANCH   1  11
ATOM     11  C   UNL     1      33.567 -23.581 -18.103  0.00  0.00    -0.049 C 
BRANCH  11  12
ATOM     12  C   UNL     1      33.982 -22.391 -18.927  0.00  0.00    -0.043 C 
ATOM     13  C   UNL     1      35.323 -22.216 -19.273  0.00  0.00    -0.005 C 
ATOM     14  C   UNL     1      33.027 -21.465 -19.345  0.00  0.00    -0.005 C 
ATOM     15  C   UNL     1      35.706 -21.114 -20.037  0.00  0.00    +0.024 C 
ATOM     16  C   UNL     1      33.411 -20.363 -20.108  0.00  0.00    +0.024 C 
ATOM     17  C   UNL     1      34.750 -20.188 -20.455  0.00  0.00    +0.143 C 
BRANCH  17  20
ATOM     18  O   UNL     1      35.069 -19.140 -22.484  0.00  0.00    -0.126 OA
ATOM     19  O   UNL     1      35.548 -18.033 -20.651  0.00  0.00    -0.126 OA
ATOM     20  N   UNL     1      35.142 -19.067 -21.234  0.00  0.00    +0.058 N 
ENDBRANCH  17  20
ENDBRANCH  11  12
ENDBRANCH   1  11
BRANCH   1  21
ATOM     21  C   UNL     1      35.231 -22.608 -16.638  0.00  0.00    +0.042 C 
BRANCH  21  22
ATOM     22  P   UNL     1      36.286 -23.401 -15.435  0.00  0.00    +0.316 P 
ATOM     23  O   UNL     1      36.095 -22.996 -14.005  0.00  0.00    -0.260 OA
BRANCH  22  24
ATOM     24  O   UNL     1      36.019 -24.972 -15.721  0.00  0.00    -0.325 OA
ATOM     25  H   UNL     1      36.847 -25.466 -15.609  0.00  0.00    +0.220 HD
ENDBRANCH  22  24
BRANCH  22  26
ATOM     26  O   UNL     1      37.780 -23.184 -16.017  0.00  0.00    -0.325 OA
ATOM     27  H   UNL     1      37.780 -23.339 -16.975  0.00  0.00    +0.220 HD
ENDBRANCH  22  26
ENDBRANCH  21  22
ENDBRANCH   1  21
TORSDOF 13
ENDMDL
MODEL 7
REMARK VINA RESULT:      -7.5      2.080      2.840
REMARK  Name = 445651
REMARK  13 active torsions:
REMARK  status: ('A' for Active; 'I' for Inactive)
REMARK    1  A    between atoms: N_1  and  C_3
REMARK    2  A    between atoms: N_1  and  C_11
REMARK    3  A    between atoms: N_1  and  C_21
REMARK    4  A    between atoms: C_3  and  C_4
REMARK    5  A    between atoms: C_4  and  C_5
REMARK    6  A    between atoms: C_5  and  C_6
REMARK    7  A    between atoms: C_6  and  C_8
REMARK    8  A    between atoms: C_8  and  O_9
REMARK    9  A    between atoms: C_11  and  C_12
REMARK   10  A    between atoms: C_17  and  N_20
REMARK   11  A    between atoms: C_21  and  P_22
REMARK   12  A    between atoms: P_22  and  O_24
REMARK   13  A    between atoms: P_22  and  O_26
REMARK                            x       y       z     vdW  Elec       q    Type
REMARK                         _______ _______ _______ _____ _____    ______ ____
ROOT
ATOM      1  N   UNL     1      35.186 -17.468 -22.082  0.00  0.00    +0.398 N 
ATOM      2  H   UNL     1      35.762 -16.697 -22.418  0.00  0.00    -0.078 HD
ENDROOT
BRANCH   1   3
ATOM      3  C   UNL     1      34.470 -17.051 -20.884  0.00  0.00    -0.076 C 
BRANCH   3   4
ATOM      4  C   UNL     1      34.251 -15.538 -20.846  0.00  0.00    -0.022 C 
BRANCH   4   5
ATOM      5  C   UNL     1      32.772 -15.143 -20.937  0.00  0.00    +0.009 C 
BRANCH   5   6
ATOM      6  C   UNL     1      32.558 -13.642 -20.763  0.00  0.00    +0.109 C 
BRANCH   6   8
ATOM      7  O   UNL     1      32.878 -13.085 -23.093  0.00  0.00    -0.250 OA
ATOM      8  C   UNL     1      32.227 -12.952 -22.064  0.00  0.00    +0.314 C 
BRANCH   8   9
ATOM      9  O   UNL     1      31.122 -12.171 -21.973  0.00  0.00    -0.480 OA
ATOM     10  H   UNL     1      30.438 -12.394 -21.375  0.00  0.00    +0.295 HD
ENDBRANCH   8   9
ENDBRANCH   6   8
ENDBRANCH   5   6
ENDBRANCH   4   5
ENDBRANCH   3   4
ENDBRANCH   1   3
BRANCH   1  11
ATOM     11  C   UNL     1      36.061 -18.602 -21.762  0.00  0.00    -0.049 C 
BRANCH  11  12
ATOM     12  C   UNL     1      35.342 -19.658 -20.965  0.00  0.00    -0.043 C 
ATOM     13  C   UNL     1      36.066 -20.543 -20.165  0.00  0.00    -0.005 C 
ATOM     14  C   UNL     1      33.951 -19.750 -21.025  0.00  0.00    -0.005 C 
ATOM     15  C   UNL     1      35.399 -21.519 -19.426  0.00  0.00    +0.024 C 
ATOM     16  C   UNL     1      33.285 -20.727 -20.286  0.00  0.00    +0.024 C 
ATOM     17  C   UNL     1      34.008 -21.611 -19.486  0.00  0.00    +0.143 C 
BRANCH  17  20
ATOM     18  O   UNL     1      32.270 -22.298 -18.135  0.00  0.00    -0.126 OA
ATOM     19  O   UNL     1      33.807 -23.764 -18.686  0.00  0.00    -0.126 OA
ATOM     20  N   UNL     1      33.329 -22.605 -18.733  0.00  0.00    +0.058 N 
ENDBRANCH  17  20
ENDBRANCH  11  12
ENDBRANCH   1  11
BRANCH   1  21
ATOM     21  C   UNL     1      34.243 -17.811 -23.152  0.00  0.00    +0.042 C 
BRANCH  21  22
ATOM     22  P   UNL     1      34.617 -16.639 -24.447  0.00  0.00    +0.316 P 
ATOM     23  O   UNL     1      34.823 -17.202 -25.821  0.00  0.00    -0.260 OA
BRANCH  22  24
ATOM     24  O   UNL     1      33.387 -15.593 -24.336  0.00  0.00    -0.325 OA
ATOM     25  H   UNL     1      33.030 -15.607 -23.434  0.00  0.00    +0.220 HD
ENDBRANCH  22  24
BRANCH  22  26
ATOM     26  O   UNL     1      35.861 -15.787 -23.860  0.00  0.00    -0.325 OA
ATOM     27  H   UNL     1      36.646 -16.353 -23.810  0.00  0.00    +0.220 HD
ENDBRANCH  22  26
ENDBRANCH  21  22
ENDBRANCH   1  21
TORSDOF 13
ENDMDL
MODEL 8
REMARK VINA RESULT:      -7.2      4.904     10.215
REMARK  Name = 445651
REMARK  13 active torsions:
REMARK  status: ('A' for Active; 'I' for Inactive)
REMARK    1  A    between atoms: N_1  and  C_3
REMARK    2  A    between atoms: N_1  and  C_11
REMARK    3  A    between atoms: N_1  and  C_21
REMARK    4  A    between atoms: C_3  and  C_4
REMARK    5  A    between atoms: C_4  and  C_5
REMARK    6  A    between atoms: C_5  and  C_6
REMARK    7  A    between atoms: C_6  and  C_8
REMARK    8  A    between atoms: C_8  and  O_9
REMARK    9  A    between atoms: C_11  and  C_12
REMARK   10  A    between atoms: C_17  and  N_20
REMARK   11  A    between atoms: C_21  and  P_22
REMARK   12  A    between atoms: P_22  and  O_24
REMARK   13  A    between atoms: P_22  and  O_26
REMARK                            x       y       z     vdW  Elec       q    Type
REMARK                         _______ _______ _______ _____ _____    ______ ____
ROOT
ATOM      1  N   UNL     1      32.949 -23.153 -16.466  0.00  0.00    +0.398 N 
ATOM      2  H   UNL     1      32.424 -22.311 -16.704  0.00  0.00    -0.078 HD
ENDROOT
BRANCH   1   3
ATOM      3  C   UNL     1      33.892 -22.848 -15.398  0.00  0.00    -0.076 C 
BRANCH   3   4
ATOM      4  C   UNL     1      34.704 -24.076 -14.983  0.00  0.00    -0.022 C 
BRANCH   4   5
ATOM      5  C   UNL     1      35.596 -23.821 -13.762  0.00  0.00    +0.009 C 
BRANCH   5   6
ATOM      6  C   UNL     1      34.857 -24.045 -12.445  0.00  0.00    +0.109 C 
BRANCH   6   8
ATOM      7  O   UNL     1      36.530 -25.636 -11.731  0.00  0.00    -0.250 OA
ATOM      8  C   UNL     1      35.693 -24.793 -11.436  0.00  0.00    +0.314 C 
BRANCH   8   9
ATOM      9  O   UNL     1      35.420 -24.426 -10.159  0.00  0.00    -0.480 OA
ATOM     10  H   UNL     1      36.119 -24.243  -9.564  0.00  0.00    +0.295 HD
ENDBRANCH   8   9
ENDBRANCH   6   8
ENDBRANCH   5   6
ENDBRANCH   4   5
ENDBRANCH   3   4
ENDBRANCH   1   3
BRANCH   1  11
ATOM     11  C   UNL     1      33.682 -23.601 -17.657  0.00  0.00    -0.049 C 
BRANCH  11  12
ATOM     12  C   UNL     1      34.014 -22.453 -18.574  0.00  0.00    -0.043 C 
ATOM     13  C   UNL     1      35.346 -22.132 -18.836  0.00  0.00    -0.005 C 
ATOM     14  C   UNL     1      32.989 -21.712 -19.162  0.00  0.00    -0.005 C 
ATOM     15  C   UNL     1      35.653 -21.071 -19.686  0.00  0.00    +0.024 C 
ATOM     16  C   UNL     1      33.296 -20.651 -20.013  0.00  0.00    +0.024 C 
ATOM     17  C   UNL     1      34.628 -20.330 -20.275  0.00  0.00    +0.143 C 
BRANCH  17  20
ATOM     18  O   UNL     1      35.572 -18.266 -20.685  0.00  0.00    -0.126 OA
ATOM     19  O   UNL     1      34.579 -19.309 -22.342  0.00  0.00    -0.126 OA
ATOM     20  N   UNL     1      34.941 -19.250 -21.142  0.00  0.00    +0.058 N 
ENDBRANCH  17  20
ENDBRANCH  11  12
ENDBRANCH   1  11
BRANCH   1  21
ATOM     21  C   UNL     1      31.983 -24.164 -16.026  0.00  0.00    +0.042 C 
BRANCH  21  22
ATOM     22  P   UNL     1      30.441 -23.270 -15.923  0.00  0.00    +0.316 P 
ATOM     23  O   UNL     1      29.189 -24.094 -15.888  0.00  0.00    -0.260 OA
BRANCH  22  24
ATOM     24  O   UNL     1      30.661 -22.344 -14.613  0.00  0.00    -0.325 OA
ATOM     25  H   UNL     1      31.578 -22.430 -14.307  0.00  0.00    +0.220 HD
ENDBRANCH  22  24
BRANCH  22  26
ATOM     26  O   UNL     1      30.524 -22.199 -17.132  0.00  0.00    -0.325 OA
ATOM     27  H   UNL     1      30.594 -21.303 -16.766  0.00  0.00    +0.220 HD
ENDBRANCH  22  26
ENDBRANCH  21  22
ENDBRANCH   1  21
TORSDOF 13
ENDMDL
MODEL 9
REMARK VINA RESULT:      -7.1      2.808      3.539
REMARK  Name = 445651
REMARK  13 active torsions:
REMARK  status: ('A' for Active; 'I' for Inactive)
REMARK    1  A    between atoms: N_1  and  C_3
REMARK    2  A    between atoms: N_1  and  C_11
REMARK    3  A    between atoms: N_1  and  C_21
REMARK    4  A    between atoms: C_3  and  C_4
REMARK    5  A    between atoms: C_4  and  C_5
REMARK    6  A    between atoms: C_5  and  C_6
REMARK    7  A    between atoms: C_6  and  C_8
REMARK    8  A    between atoms: C_8  and  O_9
REMARK    9  A    between atoms: C_11  and  C_12
REMARK   10  A    between atoms: C_17  and  N_20
REMARK   11  A    between atoms: C_21  and  P_22
REMARK   12  A    between atoms: P_22  and  O_24
REMARK   13  A    between atoms: P_22  and  O_26
REMARK                            x       y       z     vdW  Elec       q    Type
REMARK                         _______ _______ _______ _____ _____    ______ ____
ROOT
ATOM      1  N   UNL     1      34.298 -16.670 -22.051  0.00  0.00    +0.398 N 
ATOM      2  H   UNL     1      35.129 -17.261 -22.030  0.00  0.00    -0.078 HD
ENDROOT
BRANCH   1   3
ATOM      3  C   UNL     1      34.499 -15.524 -21.172  0.00  0.00    -0.076 C 
BRANCH   3   4
ATOM      4  C   UNL     1      33.189 -15.047 -20.544  0.00  0.00    -0.022 C 
BRANCH   4   5
ATOM      5  C   UNL     1      32.593 -13.826 -21.255  0.00  0.00    +0.009 C 
BRANCH   5   6
ATOM      6  C   UNL     1      32.071 -12.779 -20.274  0.00  0.00    +0.109 C 
BRANCH   6   8
ATOM      7  O   UNL     1      31.305 -10.496 -20.469  0.00  0.00    -0.250 OA
ATOM      8  C   UNL     1      31.428 -11.606 -20.971  0.00  0.00    +0.314 C 
BRANCH   8   9
ATOM      9  O   UNL     1      31.004 -11.912 -22.223  0.00  0.00    -0.480 OA
ATOM     10  H   UNL     1      30.830 -12.802 -22.454  0.00  0.00    +0.295 HD
ENDBRANCH   8   9
ENDBRANCH   6   8
ENDBRANCH   5   6
ENDBRANCH   4   5
ENDBRANCH   3   4
ENDBRANCH   1   3
BRANCH   1  11
ATOM     11  C   UNL     1      33.152 -17.456 -21.578  0.00  0.00    -0.049 C 
BRANCH  11  12
ATOM     12  C   UNL     1      33.583 -18.762 -20.965  0.00  0.00    -0.043 C 
ATOM     13  C   UNL     1      34.936 -19.098 -20.919  0.00  0.00    -0.005 C 
ATOM     14  C   UNL     1      32.629 -19.635 -20.442  0.00  0.00    -0.005 C 
ATOM     15  C   UNL     1      35.335 -20.306 -20.349  0.00  0.00    +0.024 C 
ATOM     16  C   UNL     1      33.028 -20.844 -19.872  0.00  0.00    +0.024 C 
ATOM     17  C   UNL     1      34.381 -21.179 -19.826  0.00  0.00    +0.143 C 
BRANCH  17  20
ATOM     18  O   UNL     1      35.769 -22.418 -18.463  0.00  0.00    -0.126 OA
ATOM     19  O   UNL     1      34.153 -23.454 -19.527  0.00  0.00    -0.126 OA
ATOM     20  N   UNL     1      34.788 -22.410 -19.244  0.00  0.00    +0.058 N 
ENDBRANCH  17  20
ENDBRANCH  11  12
ENDBRANCH   1  11
BRANCH   1  21
ATOM     21  C   UNL     1      34.105 -16.229 -23.435  0.00  0.00    +0.042 C 
BRANCH  21  22
ATOM     22  P   UNL     1      34.782 -17.563 -24.410  0.00  0.00    +0.316 P 
ATOM     23  O   UNL     1      33.866 -18.715 -24.697  0.00  0.00    -0.260 OA
BRANCH  22  24
ATOM     24  O   UNL     1      35.313 -16.795 -25.732  0.00  0.00    -0.325 OA
ATOM     25  H   UNL     1      35.081 -15.855 -25.675  0.00  0.00    +0.220 HD
ENDBRANCH  22  24
BRANCH  22  26
ATOM     26  O   UNL     1      36.156 -17.951 -23.649  0.00  0.00    -0.325 OA
ATOM     27  H   UNL     1      36.760 -17.192 -23.667  0.00  0.00    +0.220 HD
ENDBRANCH  22  26
ENDBRANCH  21  22
ENDBRANCH   1  21
TORSDOF 13
ENDMDL
