MODEL 1
REMARK VINA RESULT:      -8.0      0.000      0.000
REMARK  Name = 84836
REMARK  4 active torsions:
REMARK  status: ('A' for Active; 'I' for Inactive)
REMARK    1  A    between atoms: O_1  and  C_2
REMARK    2  A    between atoms: O_1  and  C_10
REMARK    3  A    between atoms: C_2  and  N_5
REMARK    4  A    between atoms: C_10  and  N_13
REMARK                            x       y       z     vdW  Elec       q    Type
REMARK                         _______ _______ _______ _____ _____    ______ ____
ROOT
ATOM      1  O   UNL     1      34.733 -18.654 -22.583  0.00  0.00    -0.313 OA
ENDROOT
BRANCH   1   2
ATOM      2  C   UNL     1      35.579 -17.573 -22.950  0.00  0.00    +0.251 C 
BRANCH   2   5
ATOM      3  O   UNL     1      34.590 -17.744 -25.756  0.00  0.00    -0.269 OA
ATOM      4  O   UNL     1      34.544 -14.895 -22.139  0.00  0.00    -0.269 OA
ATOM      5  N   UNL     1      34.802 -16.615 -23.712  0.00  0.00    -0.196 N 
ATOM      6  C   UNL     1      34.398 -16.800 -25.007  0.00  0.00    +0.257 C 
ATOM      7  C   UNL     1      34.377 -15.406 -23.233  0.00  0.00    +0.257 C 
ATOM      8  C   UNL     1      33.643 -15.594 -25.379  0.00  0.00    +0.063 C 
ATOM      9  C   UNL     1      33.631 -14.769 -24.330  0.00  0.00    +0.063 C 
ENDBRANCH   2   5
ENDBRANCH   1   2
BRANCH   1  10
ATOM     10  C   UNL     1      34.316 -18.550 -21.230  0.00  0.00    +0.251 C 
BRANCH  10  13
ATOM     11  O   UNL     1      36.970 -19.608 -20.379  0.00  0.00    -0.269 OA
ATOM     12  O   UNL     1      32.507 -20.737 -20.311  0.00  0.00    -0.269 OA
ATOM     13  N   UNL     1      34.635 -19.775 -20.558  0.00  0.00    -0.196 N 
ATOM     14  C   UNL     1      35.906 -20.177 -20.204  0.00  0.00    +0.257 C 
ATOM     15  C   UNL     1      33.718 -20.728 -20.172  0.00  0.00    +0.257 C 
ATOM     16  C   UNL     1      35.770 -21.483 -19.541  0.00  0.00    +0.063 C 
ATOM     17  C   UNL     1      34.477 -21.809 -19.521  0.00  0.00    +0.063 C 
ENDBRANCH  10  13
ENDBRANCH   1  10
TORSDOF 4
ENDMDL
MODEL 2
REMARK VINA RESULT:      -8.0      0.040      1.817
REMARK  Name = 84836
REMARK  4 active torsions:
REMARK  status: ('A' for Active; 'I' for Inactive)
REMARK    1  A    between atoms: O_1  and  C_2
REMARK    2  A    between atoms: O_1  and  C_10
REMARK    3  A    between atoms: C_2  and  N_5
REMARK    4  A    between atoms: C_10  and  N_13
REMARK                            x       y       z     vdW  Elec       q    Type
REMARK                         _______ _______ _______ _____ _____    ______ ____
ROOT
ATOM      1  O   UNL     1      34.692 -18.685 -22.568  0.00  0.00    -0.313 OA
ENDROOT
BRANCH   1   2
ATOM      2  C   UNL     1      35.557 -17.622 -22.941  0.00  0.00    +0.251 C 
BRANCH   2   5
ATOM      3  O   UNL     1      34.539 -14.952 -22.095  0.00  0.00    -0.269 OA
ATOM      4  O   UNL     1      34.573 -17.746 -25.754  0.00  0.00    -0.269 OA
ATOM      5  N   UNL     1      34.794 -16.647 -23.695  0.00  0.00    -0.196 N 
ATOM      6  C   UNL     1      34.376 -15.440 -23.201  0.00  0.00    +0.257 C 
ATOM      7  C   UNL     1      34.394 -16.810 -24.993  0.00  0.00    +0.257 C 
ATOM      8  C   UNL     1      33.646 -14.778 -24.294  0.00  0.00    +0.063 C 
ATOM      9  C   UNL     1      33.657 -15.589 -25.353  0.00  0.00    +0.063 C 
ENDBRANCH   2   5
ENDBRANCH   1   2
BRANCH   1  10
ATOM     10  C   UNL     1      34.296 -18.578 -21.208  0.00  0.00    +0.251 C 
BRANCH  10  13
ATOM     11  O   UNL     1      36.954 -19.619 -20.356  0.00  0.00    -0.269 OA
ATOM     12  O   UNL     1      32.500 -20.779 -20.298  0.00  0.00    -0.269 OA
ATOM     13  N   UNL     1      34.622 -19.802 -20.540  0.00  0.00    -0.196 N 
ATOM     14  C   UNL     1      35.895 -20.196 -20.184  0.00  0.00    +0.257 C 
ATOM     15  C   UNL     1      33.710 -20.762 -20.157  0.00  0.00    +0.257 C 
ATOM     16  C   UNL     1      35.766 -21.505 -19.525  0.00  0.00    +0.063 C 
ATOM     17  C   UNL     1      34.475 -21.840 -19.508  0.00  0.00    +0.063 C 
ENDBRANCH  10  13
ENDBRANCH   1  10
TORSDOF 4
ENDMDL
MODEL 3
REMARK VINA RESULT:      -8.0      0.035      1.817
REMARK  Name = 84836
REMARK  4 active torsions:
REMARK  status: ('A' for Active; 'I' for Inactive)
REMARK    1  A    between atoms: O_1  and  C_2
REMARK    2  A    between atoms: O_1  and  C_10
REMARK    3  A    between atoms: C_2  and  N_5
REMARK    4  A    between atoms: C_10  and  N_13
REMARK                            x       y       z     vdW  Elec       q    Type
REMARK                         _______ _______ _______ _____ _____    ______ ____
ROOT
ATOM      1  O   UNL     1      34.792 -18.679 -22.601  0.00  0.00    -0.313 OA
ENDROOT
BRANCH   1   2
ATOM      2  C   UNL     1      35.625 -17.583 -22.952  0.00  0.00    +0.251 C 
BRANCH   2   5
ATOM      3  O   UNL     1      34.613 -17.735 -25.751  0.00  0.00    -0.269 OA
ATOM      4  O   UNL     1      34.582 -14.918 -22.110  0.00  0.00    -0.269 OA
ATOM      5  N   UNL     1      34.836 -16.623 -23.699  0.00  0.00    -0.196 N 
ATOM      6  C   UNL     1      34.423 -16.799 -24.992  0.00  0.00    +0.257 C 
ATOM      7  C   UNL     1      34.408 -15.420 -23.207  0.00  0.00    +0.257 C 
ATOM      8  C   UNL     1      33.658 -15.594 -25.348  0.00  0.00    +0.063 C 
ATOM      9  C   UNL     1      33.650 -14.778 -24.292  0.00  0.00    +0.063 C 
ENDBRANCH   2   5
ENDBRANCH   1   2
BRANCH   1  10
ATOM     10  C   UNL     1      34.326 -18.569 -21.264  0.00  0.00    +0.251 C 
BRANCH  10  13
ATOM     11  O   UNL     1      32.502 -20.728 -20.321  0.00  0.00    -0.269 OA
ATOM     12  O   UNL     1      36.970 -19.621 -20.367  0.00  0.00    -0.269 OA
ATOM     13  N   UNL     1      34.636 -19.784 -20.571  0.00  0.00    -0.196 N 
ATOM     14  C   UNL     1      33.712 -20.728 -20.175  0.00  0.00    +0.257 C 
ATOM     15  C   UNL     1      35.902 -20.183 -20.199  0.00  0.00    +0.257 C 
ATOM     16  C   UNL     1      34.462 -21.803 -19.506  0.00  0.00    +0.063 C 
ATOM     17  C   UNL     1      35.756 -21.481 -19.521  0.00  0.00    +0.063 C 
ENDBRANCH  10  13
ENDBRANCH   1  10
TORSDOF 4
ENDMDL
MODEL 4
REMARK VINA RESULT:      -8.0      0.037      6.194
REMARK  Name = 84836
REMARK  4 active torsions:
REMARK  status: ('A' for Active; 'I' for Inactive)
REMARK    1  A    between atoms: O_1  and  C_2
REMARK    2  A    between atoms: O_1  and  C_10
REMARK    3  A    between atoms: C_2  and  N_5
REMARK    4  A    between atoms: C_10  and  N_13
REMARK                            x       y       z     vdW  Elec       q    Type
REMARK                         _______ _______ _______ _____ _____    ______ ____
ROOT
ATOM      1  O   UNL     1      34.796 -18.645 -22.594  0.00  0.00    -0.313 OA
ENDROOT
BRANCH   1   2
ATOM      2  C   UNL     1      34.337 -18.548 -21.254  0.00  0.00    +0.251 C 
BRANCH   2   5
ATOM      3  O   UNL     1      36.981 -19.602 -20.373  0.00  0.00    -0.269 OA
ATOM      4  O   UNL     1      32.518 -20.730 -20.343  0.00  0.00    -0.269 OA
ATOM      5  N   UNL     1      34.652 -19.785 -20.565  0.00  0.00    -0.196 N 
ATOM      6  C   UNL     1      35.915 -20.170 -20.205  0.00  0.00    +0.257 C 
ATOM      7  C   UNL     1      33.727 -20.721 -20.191  0.00  0.00    +0.257 C 
ATOM      8  C   UNL     1      35.773 -21.473 -19.536  0.00  0.00    +0.063 C 
ATOM      9  C   UNL     1      34.479 -21.799 -19.529  0.00  0.00    +0.063 C 
ENDBRANCH   2   5
ENDBRANCH   1   2
BRANCH   1  10
ATOM     10  C   UNL     1      35.619 -17.541 -22.941  0.00  0.00    +0.251 C 
BRANCH  10  13
ATOM     11  O   UNL     1      34.613 -17.706 -25.741  0.00  0.00    -0.269 OA
ATOM     12  O   UNL     1      34.552 -14.884 -22.105  0.00  0.00    -0.269 OA
ATOM     13  N   UNL     1      34.833 -16.600 -23.683  0.00  0.00    -0.196 N 
ATOM     14  C   UNL     1      34.414 -16.771 -24.985  0.00  0.00    +0.257 C 
ATOM     15  C   UNL     1      34.386 -15.390 -23.201  0.00  0.00    +0.257 C 
ATOM     16  C   UNL     1      33.640 -15.572 -25.343  0.00  0.00    +0.063 C 
ATOM     17  C   UNL     1      33.622 -14.756 -24.289  0.00  0.00    +0.063 C 
ENDBRANCH  10  13
ENDBRANCH   1  10
TORSDOF 4
ENDMDL
MODEL 5
REMARK VINA RESULT:      -8.0      0.035      6.127
REMARK  Name = 84836
REMARK  4 active torsions:
REMARK  status: ('A' for Active; 'I' for Inactive)
REMARK    1  A    between atoms: O_1  and  C_2
REMARK    2  A    between atoms: O_1  and  C_10
REMARK    3  A    between atoms: C_2  and  N_5
REMARK    4  A    between atoms: C_10  and  N_13
REMARK                            x       y       z     vdW  Elec       q    Type
REMARK                         _______ _______ _______ _____ _____    ______ ____
ROOT
ATOM      1  O   UNL     1      34.749 -18.683 -22.575  0.00  0.00    -0.313 OA
ENDROOT
BRANCH   1   2
ATOM      2  C   UNL     1      34.311 -18.579 -21.229  0.00  0.00    +0.251 C 
BRANCH   2   5
ATOM      3  O   UNL     1      32.497 -20.752 -20.296  0.00  0.00    -0.269 OA
ATOM      4  O   UNL     1      36.962 -19.633 -20.356  0.00  0.00    -0.269 OA
ATOM      5  N   UNL     1      34.632 -19.815 -20.541  0.00  0.00    -0.196 N 
ATOM      6  C   UNL     1      33.709 -20.750 -20.157  0.00  0.00    +0.257 C 
ATOM      7  C   UNL     1      35.897 -20.200 -20.188  0.00  0.00    +0.257 C 
ATOM      8  C   UNL     1      34.464 -21.830 -19.503  0.00  0.00    +0.063 C 
ATOM      9  C   UNL     1      35.758 -21.504 -19.521  0.00  0.00    +0.063 C 
ENDBRANCH   2   5
ENDBRANCH   1   2
BRANCH   1  10
ATOM     10  C   UNL     1      35.593 -17.598 -22.932  0.00  0.00    +0.251 C 
BRANCH  10  13
ATOM     11  O   UNL     1      34.554 -14.931 -22.103  0.00  0.00    -0.269 OA
ATOM     12  O   UNL     1      34.591 -17.756 -25.737  0.00  0.00    -0.269 OA
ATOM     13  N   UNL     1      34.823 -16.648 -23.680  0.00  0.00    -0.196 N 
ATOM     14  C   UNL     1      34.388 -15.430 -23.203  0.00  0.00    +0.257 C 
ATOM     15  C   UNL     1      34.408 -16.816 -24.983  0.00  0.00    +0.257 C 
ATOM     16  C   UNL     1      33.644 -14.786 -24.296  0.00  0.00    +0.063 C 
ATOM     17  C   UNL     1      33.656 -15.605 -25.349  0.00  0.00    +0.063 C 
ENDBRANCH  10  13
ENDBRANCH   1  10
TORSDOF 4
ENDMDL
MODEL 6
REMARK VINA RESULT:      -8.0      0.034      6.159
REMARK  Name = 84836
REMARK  4 active torsions:
REMARK  status: ('A' for Active; 'I' for Inactive)
REMARK    1  A    between atoms: O_1  and  C_2
REMARK    2  A    between atoms: O_1  and  C_10
REMARK    3  A    between atoms: C_2  and  N_5
REMARK    4  A    between atoms: C_10  and  N_13
REMARK                            x       y       z     vdW  Elec       q    Type
REMARK                         _______ _______ _______ _____ _____    ______ ____
ROOT
ATOM      1  O   UNL     1      34.799 -18.667 -22.597  0.00  0.00    -0.313 OA
ENDROOT
BRANCH   1   2
ATOM      2  C   UNL     1      34.336 -18.568 -21.258  0.00  0.00    +0.251 C 
BRANCH   2   5
ATOM      3  O   UNL     1      32.525 -20.735 -20.310  0.00  0.00    -0.269 OA
ATOM      4  O   UNL     1      36.990 -19.616 -20.386  0.00  0.00    -0.269 OA
ATOM      5  N   UNL     1      34.659 -19.799 -20.565  0.00  0.00    -0.196 N 
ATOM      6  C   UNL     1      33.737 -20.732 -20.174  0.00  0.00    +0.257 C 
ATOM      7  C   UNL     1      35.924 -20.182 -20.213  0.00  0.00    +0.257 C 
ATOM      8  C   UNL     1      34.493 -21.809 -19.515  0.00  0.00    +0.063 C 
ATOM      9  C   UNL     1      35.787 -21.483 -19.538  0.00  0.00    +0.063 C 
ENDBRANCH   2   5
ENDBRANCH   1   2
BRANCH   1  10
ATOM     10  C   UNL     1      35.623 -17.564 -22.945  0.00  0.00    +0.251 C 
BRANCH  10  13
ATOM     11  O   UNL     1      34.603 -17.733 -25.740  0.00  0.00    -0.269 OA
ATOM     12  O   UNL     1      34.570 -14.900 -22.111  0.00  0.00    -0.269 OA
ATOM     13  N   UNL     1      34.837 -16.622 -23.686  0.00  0.00    -0.196 N 
ATOM     14  C   UNL     1      34.411 -16.795 -24.986  0.00  0.00    +0.257 C 
ATOM     15  C   UNL     1      34.397 -15.408 -23.205  0.00  0.00    +0.257 C 
ATOM     16  C   UNL     1      33.641 -15.594 -25.344  0.00  0.00    +0.063 C 
ATOM     17  C   UNL     1      33.631 -14.774 -24.292  0.00  0.00    +0.063 C 
ENDBRANCH  10  13
ENDBRANCH   1  10
TORSDOF 4
ENDMDL
MODEL 7
REMARK VINA RESULT:      -7.8      5.814     10.114
REMARK  Name = 84836
REMARK  4 active torsions:
REMARK  status: ('A' for Active; 'I' for Inactive)
REMARK    1  A    between atoms: O_1  and  C_2
REMARK    2  A    between atoms: O_1  and  C_10
REMARK    3  A    between atoms: C_2  and  N_5
REMARK    4  A    between atoms: C_10  and  N_13
REMARK                            x       y       z     vdW  Elec       q    Type
REMARK                         _______ _______ _______ _____ _____    ______ ____
ROOT
ATOM      1  O   UNL     1      35.058 -24.378 -16.251  0.00  0.00    -0.313 OA
ENDROOT
BRANCH   1   2
ATOM      2  C   UNL     1      35.287 -24.656 -14.877  0.00  0.00    +0.251 C 
BRANCH   2   5
ATOM      3  O   UNL     1      37.504 -23.177 -13.544  0.00  0.00    -0.269 OA
ATOM      4  O   UNL     1      36.702 -27.125 -15.771  0.00  0.00    -0.269 OA
ATOM      5  N   UNL     1      36.676 -25.036 -14.707  0.00  0.00    -0.196 N 
ATOM      6  C   UNL     1      37.616 -24.271 -14.070  0.00  0.00    +0.257 C 
ATOM      7  C   UNL     1      37.221 -26.206 -15.161  0.00  0.00    +0.257 C 
ATOM      8  C   UNL     1      38.873 -25.033 -14.126  0.00  0.00    +0.063 C 
ATOM      9  C   UNL     1      38.639 -26.177 -14.773  0.00  0.00    +0.063 C 
ENDBRANCH   2   5
ENDBRANCH   1   2
BRANCH   1  10
ATOM     10  C   UNL     1      34.408 -23.128 -16.426  0.00  0.00    +0.251 C 
BRANCH  10  13
ATOM     11  O   UNL     1      33.141 -22.579 -19.066  0.00  0.00    -0.269 OA
ATOM     12  O   UNL     1      37.131 -21.984 -16.849  0.00  0.00    -0.269 OA
ATOM     13  N   UNL     1      34.957 -22.486 -17.583  0.00  0.00    -0.196 N 
ATOM     14  C   UNL     1      34.283 -22.277 -18.768  0.00  0.00    +0.257 C 
ATOM     15  C   UNL     1      36.238 -21.987 -17.679  0.00  0.00    +0.257 C 
ATOM     16  C   UNL     1      35.217 -21.590 -19.673  0.00  0.00    +0.063 C 
ATOM     17  C   UNL     1      36.372 -21.417 -19.030  0.00  0.00    +0.063 C 
ENDBRANCH  10  13
ENDBRANCH   1  10
TORSDOF 4
ENDMDL
MODEL 8
REMARK VINA RESULT:      -7.8      5.830      8.455
REMARK  Name = 84836
REMARK  4 active torsions:
REMARK  status: ('A' for Active; 'I' for Inactive)
REMARK    1  A    between atoms: O_1  and  C_2
REMARK    2  A    between atoms: O_1  and  C_10
REMARK    3  A    between atoms: C_2  and  N_5
REMARK    4  A    between atoms: C_10  and  N_13
REMARK                            x       y       z     vdW  Elec       q    Type
REMARK                         _______ _______ _______ _____ _____    ______ ____
ROOT
ATOM      1  O   UNL     1      35.067 -24.383 -16.246  0.00  0.00    -0.313 OA
ENDROOT
BRANCH   1   2
ATOM      2  C   UNL     1      34.472 -23.102 -16.384  0.00  0.00    +0.251 C 
BRANCH   2   5
ATOM      3  O   UNL     1      33.161 -22.588 -19.010  0.00  0.00    -0.269 OA
ATOM      4  O   UNL     1      37.187 -21.964 -16.867  0.00  0.00    -0.269 OA
ATOM      5  N   UNL     1      35.008 -22.467 -17.572  0.00  0.00    -0.196 N 
ATOM      6  C   UNL     1      34.308 -22.281 -18.734  0.00  0.00    +0.257 C 
ATOM      7  C   UNL     1      36.280 -21.976 -17.682  0.00  0.00    +0.257 C 
ATOM      8  C   UNL     1      35.226 -21.605 -19.664  0.00  0.00    +0.063 C 
ATOM      9  C   UNL     1      36.393 -21.426 -19.041  0.00  0.00    +0.063 C 
ENDBRANCH   2   5
ENDBRANCH   1   2
BRANCH   1  10
ATOM     10  C   UNL     1      35.280 -24.712 -14.881  0.00  0.00    +0.251 C 
BRANCH  10  13
ATOM     11  O   UNL     1      36.744 -27.151 -15.770  0.00  0.00    -0.269 OA
ATOM     12  O   UNL     1      37.461 -23.200 -13.519  0.00  0.00    -0.269 OA
ATOM     13  N   UNL     1      36.659 -25.061 -14.704  0.00  0.00    -0.196 N 
ATOM     14  C   UNL     1      37.246 -26.224 -15.158  0.00  0.00    +0.257 C 
ATOM     15  C   UNL     1      37.595 -24.286 -14.055  0.00  0.00    +0.257 C 
ATOM     16  C   UNL     1      38.662 -26.167 -14.762  0.00  0.00    +0.063 C 
ATOM     17  C   UNL     1      38.869 -25.022 -14.111  0.00  0.00    +0.063 C 
ENDBRANCH  10  13
ENDBRANCH   1  10
TORSDOF 4
ENDMDL
MODEL 9
REMARK VINA RESULT:      -7.8      5.822      9.817
REMARK  Name = 84836
REMARK  4 active torsions:
REMARK  status: ('A' for Active; 'I' for Inactive)
REMARK    1  A    between atoms: O_1  and  C_2
REMARK    2  A    between atoms: O_1  and  C_10
REMARK    3  A    between atoms: C_2  and  N_5
REMARK    4  A    between atoms: C_10  and  N_13
REMARK                            x       y       z     vdW  Elec       q    Type
REMARK                         _______ _______ _______ _____ _____    ______ ____
ROOT
ATOM      1  O   UNL     1      35.045 -24.369 -16.255  0.00  0.00    -0.313 OA
ENDROOT
BRANCH   1   2
ATOM      2  C   UNL     1      35.265 -24.676 -14.886  0.00  0.00    +0.251 C 
BRANCH   2   5
ATOM      3  O   UNL     1      36.700 -27.129 -15.780  0.00  0.00    -0.269 OA
ATOM      4  O   UNL     1      37.465 -23.187 -13.529  0.00  0.00    -0.269 OA
ATOM      5  N   UNL     1      36.656 -25.043 -14.711  0.00  0.00    -0.196 N 
ATOM      6  C   UNL     1      37.213 -26.207 -15.169  0.00  0.00    +0.257 C 
ATOM      7  C   UNL     1      37.586 -24.274 -14.067  0.00  0.00    +0.257 C 
ATOM      8  C   UNL     1      38.631 -26.166 -14.778  0.00  0.00    +0.063 C 
ATOM      9  C   UNL     1      38.851 -25.023 -14.126  0.00  0.00    +0.063 C 
ENDBRANCH   2   5
ENDBRANCH   1   2
BRANCH   1  10
ATOM     10  C   UNL     1      34.443 -23.092 -16.410  0.00  0.00    +0.251 C 
BRANCH  10  13
ATOM     11  O   UNL     1      37.150 -21.926 -16.850  0.00  0.00    -0.269 OA
ATOM     12  O   UNL     1      33.171 -22.603 -19.064  0.00  0.00    -0.269 OA
ATOM     13  N   UNL     1      34.986 -22.469 -17.580  0.00  0.00    -0.196 N 
ATOM     14  C   UNL     1      36.263 -21.958 -17.685  0.00  0.00    +0.257 C 
ATOM     15  C   UNL     1      34.311 -22.291 -18.768  0.00  0.00    +0.257 C 
ATOM     16  C   UNL     1      36.395 -21.420 -19.048  0.00  0.00    +0.063 C 
ATOM     17  C   UNL     1      35.242 -21.617 -19.689  0.00  0.00    +0.063 C 
ENDBRANCH  10  13
ENDBRANCH   1  10
TORSDOF 4
ENDMDL
