MODEL 1
REMARK VINA RESULT:     -11.2      0.000      0.000
REMARK  Name = 1540
REMARK  4 active torsions:
REMARK  status: ('A' for Active; 'I' for Inactive)
REMARK    1  A    between atoms: N_5  and  C_14
REMARK    2  A    between atoms: C_6  and  O_20
REMARK    3  A    between atoms: O_20  and  C_21
REMARK    4  A    between atoms: C_21  and  C_22
REMARK                            x       y       z     vdW  Elec       q    Type
REMARK                         _______ _______ _______ _____ _____    ______ ____
ROOT
ATOM      1  N   UNL     1      33.741 -23.597 -15.695  0.00  0.00    -0.293 NA
ATOM      2  N   UNL     1      37.418 -23.634 -15.773  0.00  0.00    -0.266 NA
ATOM      3  N   UNL     1      34.771 -24.576 -13.712  0.00  0.00    -0.316 NA
ATOM      4  N   UNL     1      37.201 -24.595 -13.774  0.00  0.00    -0.296 N 
ATOM      5  N   UNL     1      32.446 -24.425 -13.928  0.00  0.00    -0.238 N 
ATOM      6  C   UNL     1      34.947 -23.351 -16.253  0.00  0.00    +0.288 C 
ATOM      7  C   UNL     1      36.074 -23.716 -15.545  0.00  0.00    +0.215 C 
ATOM      8  C   UNL     1      35.964 -24.317 -14.297  0.00  0.00    +0.196 C 
ATOM      9  C   UNL     1      33.727 -24.186 -14.476  0.00  0.00    +0.207 C 
ATOM     10  C   UNL     1      38.051 -24.173 -14.684  0.00  0.00    +0.164 C 
ATOM     11  H   UNL     1      37.852 -23.256 -16.572  0.00  0.00    +0.126 HD
ATOM     12  H   UNL     1      37.406 -25.018 -12.908  0.00  0.00    +0.150 HD
ATOM     13  H   UNL     1      32.467 -24.853 -13.042  0.00  0.00    +0.166 HD
ENDROOT
BRANCH   5  14
ATOM     14  C   UNL     1      31.147 -24.170 -14.403  0.00  0.00    +0.058 C 
ATOM     15  C   UNL     1      30.730 -22.858 -14.637  0.00  0.00    +0.015 C 
ATOM     16  C   UNL     1      30.267 -25.229 -14.643  0.00  0.00    +0.015 C 
ATOM     17  C   UNL     1      29.441 -22.606 -15.107  0.00  0.00    +0.001 C 
ATOM     18  C   UNL     1      28.979 -24.976 -15.114  0.00  0.00    +0.001 C 
ATOM     19  C   UNL     1      28.566 -23.665 -15.346  0.00  0.00    +0.000 C 
ENDBRANCH   5  14
BRANCH   6  20
ATOM     20  O   UNL     1      34.997 -22.756 -17.489  0.00  0.00    -0.453 OA
BRANCH  20  21
ATOM     21  C   UNL     1      33.801 -22.746 -18.247  0.00  0.00    +0.208 C 
BRANCH  21  22
ATOM     22  C   UNL     1      34.035 -21.918 -19.509  0.00  0.00    +0.044 C 
ATOM     23  C   UNL     1      32.938 -20.857 -19.672  0.00  0.00    +0.004 C 
ATOM     24  C   UNL     1      35.425 -21.268 -19.481  0.00  0.00    +0.004 C 
ATOM     25  C   UNL     1      33.179 -19.981 -20.898  0.00  0.00    +0.000 C 
ATOM     26  C   UNL     1      35.661 -20.391 -20.708  0.00  0.00    +0.000 C 
ATOM     27  C   UNL     1      34.564 -19.344 -20.871  0.00  0.00    +0.000 C 
ENDBRANCH  21  22
ENDBRANCH  20  21
ENDBRANCH   6  20
TORSDOF 4
ENDMDL
MODEL 2
REMARK VINA RESULT:     -11.0      1.646      5.036
REMARK  Name = 1540
REMARK  4 active torsions:
REMARK  status: ('A' for Active; 'I' for Inactive)
REMARK    1  A    between atoms: N_5  and  C_14
REMARK    2  A    between atoms: C_6  and  O_20
REMARK    3  A    between atoms: O_20  and  C_21
REMARK    4  A    between atoms: C_21  and  C_22
REMARK                            x       y       z     vdW  Elec       q    Type
REMARK                         _______ _______ _______ _____ _____    ______ ____
ROOT
ATOM      1  N   UNL     1      32.996 -23.493 -15.893  0.00  0.00    -0.293 NA
ATOM      2  N   UNL     1      29.512 -22.913 -16.919  0.00  0.00    -0.266 NA
ATOM      3  N   UNL     1      31.340 -24.246 -14.269  0.00  0.00    -0.316 NA
ATOM      4  N   UNL     1      29.040 -23.858 -14.957  0.00  0.00    -0.296 N 
ATOM      5  N   UNL     1      33.632 -24.492 -13.873  0.00  0.00    -0.238 N 
ATOM      6  C   UNL     1      32.035 -23.059 -16.738  0.00  0.00    +0.288 C 
ATOM      7  C   UNL     1      30.718 -23.216 -16.354  0.00  0.00    +0.215 C 
ATOM      8  C   UNL     1      30.399 -23.802 -15.136  0.00  0.00    +0.196 C 
ATOM      9  C   UNL     1      32.595 -24.052 -14.727  0.00  0.00    +0.207 C 
ATOM     10  C   UNL     1      28.538 -23.316 -16.045  0.00  0.00    +0.164 C 
ATOM     11  H   UNL     1      29.369 -22.483 -17.794  0.00  0.00    +0.126 HD
ATOM     12  H   UNL     1      28.550 -24.223 -14.184  0.00  0.00    +0.150 HD
ATOM     13  H   UNL     1      33.312 -24.894 -13.034  0.00  0.00    +0.166 HD
ENDROOT
BRANCH   5  14
ATOM     14  C   UNL     1      35.033 -24.467 -13.989  0.00  0.00    +0.058 C 
ATOM     15  C   UNL     1      35.785 -23.574 -13.222  0.00  0.00    +0.015 C 
ATOM     16  C   UNL     1      35.681 -25.336 -14.872  0.00  0.00    +0.015 C 
ATOM     17  C   UNL     1      37.175 -23.549 -13.337  0.00  0.00    +0.001 C 
ATOM     18  C   UNL     1      37.071 -25.310 -14.986  0.00  0.00    +0.001 C 
ATOM     19  C   UNL     1      37.818 -24.417 -14.219  0.00  0.00    +0.000 C 
ENDBRANCH   5  14
BRANCH   6  20
ATOM     20  O   UNL     1      32.406 -22.486 -17.929  0.00  0.00    -0.453 OA
BRANCH  20  21
ATOM     21  C   UNL     1      33.731 -22.722 -18.369  0.00  0.00    +0.208 C 
BRANCH  21  22
ATOM     22  C   UNL     1      33.993 -21.857 -19.601  0.00  0.00    +0.044 C 
ATOM     23  C   UNL     1      32.917 -20.771 -19.739  0.00  0.00    +0.004 C 
ATOM     24  C   UNL     1      35.394 -21.234 -19.538  0.00  0.00    +0.004 C 
ATOM     25  C   UNL     1      33.187 -19.859 -20.933  0.00  0.00    +0.000 C 
ATOM     26  C   UNL     1      35.659 -20.321 -20.732  0.00  0.00    +0.000 C 
ATOM     27  C   UNL     1      34.583 -19.249 -20.871  0.00  0.00    +0.000 C 
ENDBRANCH  21  22
ENDBRANCH  20  21
ENDBRANCH   6  20
TORSDOF 4
ENDMDL
MODEL 3
REMARK VINA RESULT:     -10.5      1.442      1.946
REMARK  Name = 1540
REMARK  4 active torsions:
REMARK  status: ('A' for Active; 'I' for Inactive)
REMARK    1  A    between atoms: N_5  and  C_14
REMARK    2  A    between atoms: C_6  and  O_20
REMARK    3  A    between atoms: O_20  and  C_21
REMARK    4  A    between atoms: C_21  and  C_22
REMARK                            x       y       z     vdW  Elec       q    Type
REMARK                         _______ _______ _______ _____ _____    ______ ____
ROOT
ATOM      1  N   UNL     1      34.604 -23.895 -14.572  0.00  0.00    -0.293 NA
ATOM      2  N   UNL     1      38.067 -23.787 -13.341  0.00  0.00    -0.266 NA
ATOM      3  N   UNL     1      34.805 -24.057 -12.146  0.00  0.00    -0.316 NA
ATOM      4  N   UNL     1      37.099 -23.984 -11.343  0.00  0.00    -0.296 N 
ATOM      5  N   UNL     1      32.717 -24.100 -13.200  0.00  0.00    -0.238 N 
ATOM      6  C   UNL     1      35.944 -23.808 -14.721  0.00  0.00    +0.288 C 
ATOM      7  C   UNL     1      36.725 -23.845 -13.584  0.00  0.00    +0.215 C 
ATOM      8  C   UNL     1      36.145 -23.967 -12.328  0.00  0.00    +0.196 C 
ATOM      9  C   UNL     1      34.124 -24.012 -13.311  0.00  0.00    +0.207 C 
ATOM     10  C   UNL     1      38.242 -23.874 -11.984  0.00  0.00    +0.164 C 
ATOM     11  H   UNL     1      38.779 -23.698 -14.016  0.00  0.00    +0.126 HD
ATOM     12  H   UNL     1      36.959 -24.062 -10.371  0.00  0.00    +0.150 HD
ATOM     13  H   UNL     1      32.397 -24.184 -12.273  0.00  0.00    +0.166 HD
ENDROOT
BRANCH   5  14
ATOM     14  C   UNL     1      31.686 -24.091 -14.155  0.00  0.00    +0.058 C 
ATOM     15  C   UNL     1      31.494 -22.973 -14.971  0.00  0.00    +0.015 C 
ATOM     16  C   UNL     1      30.848 -25.201 -14.295  0.00  0.00    +0.015 C 
ATOM     17  C   UNL     1      30.470 -22.964 -15.918  0.00  0.00    +0.001 C 
ATOM     18  C   UNL     1      29.825 -25.191 -15.243  0.00  0.00    +0.001 C 
ATOM     19  C   UNL     1      29.636 -24.074 -16.054  0.00  0.00    +0.000 C 
ENDBRANCH   5  14
BRANCH   6  20
ATOM     20  O   UNL     1      36.464 -23.689 -15.986  0.00  0.00    -0.453 OA
BRANCH  20  21
ATOM     21  C   UNL     1      36.618 -22.378 -16.497  0.00  0.00    +0.208 C 
BRANCH  21  22
ATOM     22  C   UNL     1      36.030 -22.336 -17.906  0.00  0.00    +0.044 C 
ATOM     23  C   UNL     1      34.496 -22.349 -17.854  0.00  0.00    +0.004 C 
ATOM     24  C   UNL     1      36.541 -21.106 -18.670  0.00  0.00    +0.004 C 
ATOM     25  C   UNL     1      33.884 -22.254 -19.249  0.00  0.00    +0.000 C 
ATOM     26  C   UNL     1      35.924 -21.013 -20.063  0.00  0.00    +0.000 C 
ATOM     27  C   UNL     1      34.400 -21.035 -20.008  0.00  0.00    +0.000 C 
ENDBRANCH  21  22
ENDBRANCH  20  21
ENDBRANCH   6  20
TORSDOF 4
ENDMDL
MODEL 4
REMARK VINA RESULT:     -10.4      1.958      6.683
REMARK  Name = 1540
REMARK  4 active torsions:
REMARK  status: ('A' for Active; 'I' for Inactive)
REMARK    1  A    between atoms: N_5  and  C_14
REMARK    2  A    between atoms: C_6  and  O_20
REMARK    3  A    between atoms: O_20  and  C_21
REMARK    4  A    between atoms: C_21  and  C_22
REMARK                            x       y       z     vdW  Elec       q    Type
REMARK                         _______ _______ _______ _____ _____    ______ ____
ROOT
ATOM      1  N   UNL     1      33.652 -22.895 -16.352  0.00  0.00    -0.293 NA
ATOM      2  N   UNL     1      32.179 -24.619 -13.456  0.00  0.00    -0.266 NA
ATOM      3  N   UNL     1      31.314 -23.525 -16.650  0.00  0.00    -0.316 NA
ATOM      4  N   UNL     1      30.350 -24.664 -14.729  0.00  0.00    -0.296 N 
ATOM      5  N   UNL     1      32.500 -22.416 -18.334  0.00  0.00    -0.238 N 
ATOM      6  C   UNL     1      33.680 -23.421 -15.108  0.00  0.00    +0.288 C 
ATOM      7  C   UNL     1      32.526 -24.003 -14.625  0.00  0.00    +0.215 C 
ATOM      8  C   UNL     1      31.374 -24.043 -15.399  0.00  0.00    +0.196 C 
ATOM      9  C   UNL     1      32.487 -22.978 -17.037  0.00  0.00    +0.207 C 
ATOM     10  C   UNL     1      30.866 -24.996 -13.567  0.00  0.00    +0.164 C 
ATOM     11  H   UNL     1      32.764 -24.764 -12.677  0.00  0.00    +0.126 HD
ATOM     12  H   UNL     1      29.432 -24.824 -15.049  0.00  0.00    +0.150 HD
ATOM     13  H   UNL     1      31.640 -22.491 -18.807  0.00  0.00    +0.166 HD
ENDROOT
BRANCH   5  14
ATOM     14  C   UNL     1      33.502 -21.771 -19.080  0.00  0.00    +0.058 C 
ATOM     15  C   UNL     1      33.176 -20.702 -19.917  0.00  0.00    +0.015 C 
ATOM     16  C   UNL     1      34.830 -22.197 -18.987  0.00  0.00    +0.015 C 
ATOM     17  C   UNL     1      34.171 -20.063 -20.657  0.00  0.00    +0.001 C 
ATOM     18  C   UNL     1      35.824 -21.557 -19.728  0.00  0.00    +0.001 C 
ATOM     19  C   UNL     1      35.495 -20.491 -20.562  0.00  0.00    +0.000 C 
ENDBRANCH   5  14
BRANCH   6  20
ATOM     20  O   UNL     1      34.846 -23.354 -14.386  0.00  0.00    -0.453 OA
BRANCH  20  21
ATOM     21  C   UNL     1      36.016 -22.978 -15.088  0.00  0.00    +0.208 C 
BRANCH  21  22
ATOM     22  C   UNL     1      37.213 -23.670 -14.439  0.00  0.00    +0.044 C 
ATOM     23  C   UNL     1      37.148 -23.548 -12.911  0.00  0.00    +0.004 C 
ATOM     24  C   UNL     1      37.287 -25.142 -14.868  0.00  0.00    +0.004 C 
ATOM     25  C   UNL     1      38.306 -24.278 -12.237  0.00  0.00    +0.000 C 
ATOM     26  C   UNL     1      38.445 -25.869 -14.190  0.00  0.00    +0.000 C 
ATOM     27  C   UNL     1      38.380 -25.739 -12.672  0.00  0.00    +0.000 C 
ENDBRANCH  21  22
ENDBRANCH  20  21
ENDBRANCH   6  20
TORSDOF 4
ENDMDL
MODEL 5
REMARK VINA RESULT:     -10.4      1.534      5.221
REMARK  Name = 1540
REMARK  4 active torsions:
REMARK  status: ('A' for Active; 'I' for Inactive)
REMARK    1  A    between atoms: N_5  and  C_14
REMARK    2  A    between atoms: C_6  and  O_20
REMARK    3  A    between atoms: O_20  and  C_21
REMARK    4  A    between atoms: C_21  and  C_22
REMARK                            x       y       z     vdW  Elec       q    Type
REMARK                         _______ _______ _______ _____ _____    ______ ____
ROOT
ATOM      1  N   UNL     1      34.777 -23.857 -15.646  0.00  0.00    -0.293 NA
ATOM      2  N   UNL     1      31.609 -22.732 -17.136  0.00  0.00    -0.266 NA
ATOM      3  N   UNL     1      32.811 -24.329 -14.282  0.00  0.00    -0.316 NA
ATOM      4  N   UNL     1      30.722 -23.581 -15.276  0.00  0.00    -0.296 N 
ATOM      5  N   UNL     1      34.957 -24.937 -13.576  0.00  0.00    -0.238 N 
ATOM      6  C   UNL     1      34.025 -23.279 -16.608  0.00  0.00    +0.288 C 
ATOM      7  C   UNL     1      32.660 -23.222 -16.414  0.00  0.00    +0.215 C 
ATOM      8  C   UNL     1      32.084 -23.744 -15.264  0.00  0.00    +0.196 C 
ATOM      9  C   UNL     1      34.133 -24.340 -14.558  0.00  0.00    +0.207 C 
ATOM     10  C   UNL     1      30.470 -22.971 -16.413  0.00  0.00    +0.164 C 
ATOM     11  H   UNL     1      31.661 -22.289 -18.014  0.00  0.00    +0.126 HD
ATOM     12  H   UNL     1      30.077 -23.859 -14.586  0.00  0.00    +0.150 HD
ATOM     13  H   UNL     1      34.462 -25.279 -12.797  0.00  0.00    +0.166 HD
ENDROOT
BRANCH   5  14
ATOM     14  C   UNL     1      36.347 -25.137 -13.495  0.00  0.00    +0.058 C 
ATOM     15  C   UNL     1      36.974 -26.055 -14.339  0.00  0.00    +0.015 C 
ATOM     16  C   UNL     1      37.107 -24.416 -12.569  0.00  0.00    +0.015 C 
ATOM     17  C   UNL     1      38.353 -26.254 -14.258  0.00  0.00    +0.001 C 
ATOM     18  C   UNL     1      38.485 -24.615 -12.489  0.00  0.00    +0.001 C 
ATOM     19  C   UNL     1      39.108 -25.533 -13.333  0.00  0.00    +0.000 C 
ENDBRANCH   5  14
BRANCH   6  20
ATOM     20  O   UNL     1      34.647 -22.778 -17.725  0.00  0.00    -0.453 OA
BRANCH  20  21
ATOM     21  C   UNL     1      33.850 -22.610 -18.883  0.00  0.00    +0.208 C 
BRANCH  21  22
ATOM     22  C   UNL     1      34.095 -21.209 -19.440  0.00  0.00    +0.044 C 
ATOM     23  C   UNL     1      35.422 -21.155 -20.208  0.00  0.00    +0.004 C 
ATOM     24  C   UNL     1      32.927 -20.770 -20.334  0.00  0.00    +0.004 C 
ATOM     25  C   UNL     1      35.664 -19.777 -20.820  0.00  0.00    +0.000 C 
ATOM     26  C   UNL     1      33.173 -19.393 -20.946  0.00  0.00    +0.000 C 
ATOM     27  C   UNL     1      34.497 -19.341 -21.701  0.00  0.00    +0.000 C 
ENDBRANCH  21  22
ENDBRANCH  20  21
ENDBRANCH   6  20
TORSDOF 4
ENDMDL
MODEL 6
REMARK VINA RESULT:     -10.4      1.570      5.781
REMARK  Name = 1540
REMARK  4 active torsions:
REMARK  status: ('A' for Active; 'I' for Inactive)
REMARK    1  A    between atoms: N_5  and  C_14
REMARK    2  A    between atoms: C_6  and  O_20
REMARK    3  A    between atoms: O_20  and  C_21
REMARK    4  A    between atoms: C_21  and  C_22
REMARK                            x       y       z     vdW  Elec       q    Type
REMARK                         _______ _______ _______ _____ _____    ______ ____
ROOT
ATOM      1  N   UNL     1      35.402 -23.509 -15.857  0.00  0.00    -0.293 NA
ATOM      2  N   UNL     1      36.242 -25.327 -12.773  0.00  0.00    -0.266 NA
ATOM      3  N   UNL     1      37.768 -23.430 -15.267  0.00  0.00    -0.316 NA
ATOM      4  N   UNL     1      38.312 -24.635 -13.226  0.00  0.00    -0.296 N 
ATOM      5  N   UNL     1      36.954 -22.359 -17.181  0.00  0.00    -0.238 N 
ATOM      6  C   UNL     1      35.111 -24.261 -14.773  0.00  0.00    +0.288 C 
ATOM      7  C   UNL     1      36.147 -24.604 -13.927  0.00  0.00    +0.215 C 
ATOM      8  C   UNL     1      37.445 -24.185 -14.189  0.00  0.00    +0.196 C 
ATOM      9  C   UNL     1      36.694 -23.145 -16.035  0.00  0.00    +0.207 C 
ATOM     10  C   UNL     1      37.558 -25.317 -12.391  0.00  0.00    +0.164 C 
ATOM     11  H   UNL     1      35.502 -25.773 -12.301  0.00  0.00    +0.126 HD
ATOM     12  H   UNL     1      39.283 -24.481 -13.172  0.00  0.00    +0.150 HD
ATOM     13  H   UNL     1      37.901 -22.110 -17.284  0.00  0.00    +0.166 HD
ENDROOT
BRANCH   5  14
ATOM     14  C   UNL     1      36.124 -21.863 -18.201  0.00  0.00    +0.058 C 
ATOM     15  C   UNL     1      36.648 -21.023 -19.187  0.00  0.00    +0.015 C 
ATOM     16  C   UNL     1      34.770 -22.208 -18.235  0.00  0.00    +0.015 C 
ATOM     17  C   UNL     1      35.824 -20.531 -20.199  0.00  0.00    +0.001 C 
ATOM     18  C   UNL     1      33.947 -21.715 -19.248  0.00  0.00    +0.001 C 
ATOM     19  C   UNL     1      34.473 -20.877 -20.229  0.00  0.00    +0.000 C 
ENDBRANCH   5  14
BRANCH   6  20
ATOM     20  O   UNL     1      33.811 -24.647 -14.562  0.00  0.00    -0.453 OA
BRANCH  20  21
ATOM     21  C   UNL     1      33.064 -23.901 -13.619  0.00  0.00    +0.208 C 
BRANCH  21  22
ATOM     22  C   UNL     1      31.640 -23.740 -14.148  0.00  0.00    +0.044 C 
ATOM     23  C   UNL     1      31.653 -23.183 -15.578  0.00  0.00    +0.004 C 
ATOM     24  C   UNL     1      30.884 -25.074 -14.087  0.00  0.00    +0.004 C 
ATOM     25  C   UNL     1      30.242 -23.062 -16.148  0.00  0.00    +0.000 C 
ATOM     26  C   UNL     1      29.475 -24.950 -14.661  0.00  0.00    +0.000 C 
ATOM     27  C   UNL     1      29.492 -24.389 -16.078  0.00  0.00    +0.000 C 
ENDBRANCH  21  22
ENDBRANCH  20  21
ENDBRANCH   6  20
TORSDOF 4
ENDMDL
MODEL 7
REMARK VINA RESULT:     -10.4      1.372      2.025
REMARK  Name = 1540
REMARK  4 active torsions:
REMARK  status: ('A' for Active; 'I' for Inactive)
REMARK    1  A    between atoms: N_5  and  C_14
REMARK    2  A    between atoms: C_6  and  O_20
REMARK    3  A    between atoms: O_20  and  C_21
REMARK    4  A    between atoms: C_21  and  C_22
REMARK                            x       y       z     vdW  Elec       q    Type
REMARK                         _______ _______ _______ _____ _____    ______ ____
ROOT
ATOM      1  N   UNL     1      35.356 -23.321 -15.543  0.00  0.00    -0.293 NA
ATOM      2  N   UNL     1      38.988 -23.899 -15.548  0.00  0.00    -0.266 NA
ATOM      3  N   UNL     1      36.052 -25.305 -14.306  0.00  0.00    -0.316 NA
ATOM      4  N   UNL     1      38.455 -25.678 -14.315  0.00  0.00    -0.296 N 
ATOM      5  N   UNL     1      33.798 -24.699 -14.466  0.00  0.00    -0.238 N 
ATOM      6  C   UNL     1      36.632 -23.026 -15.874  0.00  0.00    +0.288 C 
ATOM      7  C   UNL     1      37.628 -23.869 -15.423  0.00  0.00    +0.215 C 
ATOM      8  C   UNL     1      37.321 -24.983 -14.653  0.00  0.00    +0.196 C 
ATOM      9  C   UNL     1      35.147 -24.427 -14.790  0.00  0.00    +0.207 C 
ATOM     10  C   UNL     1      39.437 -25.000 -14.868  0.00  0.00    +0.164 C 
ATOM     11  H   UNL     1      39.543 -23.249 -16.037  0.00  0.00    +0.126 HD
ATOM     12  H   UNL     1      38.518 -26.501 -13.779  0.00  0.00    +0.150 HD
ATOM     13  H   UNL     1      33.676 -25.507 -13.919  0.00  0.00    +0.166 HD
ENDROOT
BRANCH   5  14
ATOM     14  C   UNL     1      32.595 -24.039 -14.775  0.00  0.00    +0.058 C 
ATOM     15  C   UNL     1      32.352 -23.596 -16.077  0.00  0.00    +0.015 C 
ATOM     16  C   UNL     1      31.637 -23.824 -13.781  0.00  0.00    +0.015 C 
ATOM     17  C   UNL     1      31.159 -22.941 -16.384  0.00  0.00    +0.001 C 
ATOM     18  C   UNL     1      30.444 -23.169 -14.089  0.00  0.00    +0.001 C 
ATOM     19  C   UNL     1      30.205 -22.728 -15.389  0.00  0.00    +0.000 C 
ENDBRANCH   5  14
BRANCH   6  20
ATOM     20  O   UNL     1      36.880 -21.912 -16.637  0.00  0.00    -0.453 OA
BRANCH  20  21
ATOM     21  C   UNL     1      36.906 -22.089 -18.042  0.00  0.00    +0.208 C 
BRANCH  21  22
ATOM     22  C   UNL     1      35.797 -21.239 -18.657  0.00  0.00    +0.044 C 
ATOM     23  C   UNL     1      36.261 -20.618 -19.982  0.00  0.00    +0.004 C 
ATOM     24  C   UNL     1      34.524 -22.072 -18.860  0.00  0.00    +0.004 C 
ATOM     25  C   UNL     1      35.151 -19.806 -20.643  0.00  0.00    +0.000 C 
ATOM     26  C   UNL     1      33.417 -21.258 -19.524  0.00  0.00    +0.000 C 
ATOM     27  C   UNL     1      33.885 -20.636 -20.836  0.00  0.00    +0.000 C 
ENDBRANCH  21  22
ENDBRANCH  20  21
ENDBRANCH   6  20
TORSDOF 4
ENDMDL
MODEL 8
REMARK VINA RESULT:     -10.3      8.348     12.016
REMARK  Name = 1540
REMARK  4 active torsions:
REMARK  status: ('A' for Active; 'I' for Inactive)
REMARK    1  A    between atoms: N_5  and  C_14
REMARK    2  A    between atoms: C_6  and  O_20
REMARK    3  A    between atoms: O_20  and  C_21
REMARK    4  A    between atoms: C_21  and  C_22
REMARK                            x       y       z     vdW  Elec       q    Type
REMARK                         _______ _______ _______ _____ _____    ______ ____
ROOT
ATOM      1  N   UNL     1      34.108 -15.715 -23.409  0.00  0.00    -0.293 NA
ATOM      2  N   UNL     1      33.069 -12.959 -25.611  0.00  0.00    -0.266 NA
ATOM      3  N   UNL     1      34.089 -16.287 -25.781  0.00  0.00    -0.316 NA
ATOM      4  N   UNL     1      33.401 -14.457 -27.227  0.00  0.00    -0.296 N 
ATOM      5  N   UNL     1      34.710 -17.851 -24.157  0.00  0.00    -0.238 N 
ATOM      6  C   UNL     1      33.696 -14.454 -23.665  0.00  0.00    +0.288 C 
ATOM      7  C   UNL     1      33.476 -14.100 -24.980  0.00  0.00    +0.215 C 
ATOM      8  C   UNL     1      33.676 -15.016 -26.005  0.00  0.00    +0.196 C 
ATOM      9  C   UNL     1      34.277 -16.542 -24.468  0.00  0.00    +0.207 C 
ATOM     10  C   UNL     1      33.040 -13.222 -26.955  0.00  0.00    +0.164 C 
ATOM     11  H   UNL     1      32.840 -12.104 -25.179  0.00  0.00    +0.126 HD
ATOM     12  H   UNL     1      33.460 -14.886 -28.111  0.00  0.00    +0.150 HD
ATOM     13  H   UNL     1      34.824 -18.430 -24.945  0.00  0.00    +0.166 HD
ENDROOT
BRANCH   5  14
ATOM     14  C   UNL     1      35.008 -18.489 -22.939  0.00  0.00    +0.058 C 
ATOM     15  C   UNL     1      36.279 -18.365 -22.374  0.00  0.00    +0.015 C 
ATOM     16  C   UNL     1      34.033 -19.251 -22.289  0.00  0.00    +0.015 C 
ATOM     17  C   UNL     1      36.575 -18.999 -21.167  0.00  0.00    +0.001 C 
ATOM     18  C   UNL     1      34.330 -19.884 -21.081  0.00  0.00    +0.001 C 
ATOM     19  C   UNL     1      35.599 -19.758 -20.521  0.00  0.00    +0.000 C 
ENDBRANCH   5  14
BRANCH   6  20
ATOM     20  O   UNL     1      33.514 -13.590 -22.614  0.00  0.00    -0.453 OA
BRANCH  20  21
ATOM     21  C   UNL     1      32.391 -13.816 -21.782  0.00  0.00    +0.208 C 
BRANCH  21  22
ATOM     22  C   UNL     1      31.708 -12.476 -21.516  0.00  0.00    +0.044 C 
ATOM     23  C   UNL     1      31.875 -12.064 -20.047  0.00  0.00    +0.004 C 
ATOM     24  C   UNL     1      32.257 -11.392 -22.454  0.00  0.00    +0.004 C 
ATOM     25  C   UNL     1      31.246 -10.702 -19.768  0.00  0.00    +0.000 C 
ATOM     26  C   UNL     1      31.627 -10.031 -22.170  0.00  0.00    +0.000 C 
ATOM     27  C   UNL     1      31.788  -9.629 -20.708  0.00  0.00    +0.000 C 
ENDBRANCH  21  22
ENDBRANCH  20  21
ENDBRANCH   6  20
TORSDOF 4
ENDMDL
MODEL 9
REMARK VINA RESULT:     -10.1      1.941      6.573
REMARK  Name = 1540
REMARK  4 active torsions:
REMARK  status: ('A' for Active; 'I' for Inactive)
REMARK    1  A    between atoms: N_5  and  C_14
REMARK    2  A    between atoms: C_6  and  O_20
REMARK    3  A    between atoms: O_20  and  C_21
REMARK    4  A    between atoms: C_21  and  C_22
REMARK                            x       y       z     vdW  Elec       q    Type
REMARK                         _______ _______ _______ _____ _____    ______ ____
ROOT
ATOM      1  N   UNL     1      35.136 -23.395 -16.298  0.00  0.00    -0.293 NA
ATOM      2  N   UNL     1      33.233 -22.030 -19.133  0.00  0.00    -0.266 NA
ATOM      3  N   UNL     1      36.470 -22.060 -17.844  0.00  0.00    -0.316 NA
ATOM      4  N   UNL     1      35.202 -21.162 -19.714  0.00  0.00    -0.296 N 
ATOM      5  N   UNL     1      37.426 -23.050 -15.952  0.00  0.00    -0.238 N 
ATOM      6  C   UNL     1      34.016 -23.200 -17.027  0.00  0.00    +0.288 C 
ATOM      7  C   UNL     1      34.114 -22.434 -18.171  0.00  0.00    +0.215 C 
ATOM      8  C   UNL     1      35.330 -21.883 -18.554  0.00  0.00    +0.196 C 
ATOM      9  C   UNL     1      36.278 -22.821 -16.744  0.00  0.00    +0.207 C 
ATOM     10  C   UNL     1      33.931 -21.270 -20.034  0.00  0.00    +0.164 C 
ATOM     11  H   UNL     1      32.272 -22.243 -19.171  0.00  0.00    +0.126 HD
ATOM     12  H   UNL     1      35.906 -20.673 -20.199  0.00  0.00    +0.150 HD
ATOM     13  H   UNL     1      38.241 -22.621 -16.300  0.00  0.00    +0.166 HD
ENDROOT
BRANCH   5  14
ATOM     14  C   UNL     1      37.632 -23.772 -14.763  0.00  0.00    +0.058 C 
ATOM     15  C   UNL     1      38.261 -25.018 -14.798  0.00  0.00    +0.015 C 
ATOM     16  C   UNL     1      37.207 -23.245 -13.539  0.00  0.00    +0.015 C 
ATOM     17  C   UNL     1      38.465 -25.734 -13.618  0.00  0.00    +0.001 C 
ATOM     18  C   UNL     1      37.411 -23.962 -12.360  0.00  0.00    +0.001 C 
ATOM     19  C   UNL     1      38.039 -25.206 -12.399  0.00  0.00    +0.000 C 
ENDBRANCH   5  14
BRANCH   6  20
ATOM     20  O   UNL     1      32.840 -23.769 -16.603  0.00  0.00    -0.453 OA
BRANCH  20  21
ATOM     21  C   UNL     1      32.479 -23.565 -15.250  0.00  0.00    +0.208 C 
BRANCH  21  22
ATOM     22  C   UNL     1      30.956 -23.485 -15.162  0.00  0.00    +0.044 C 
ATOM     23  C   UNL     1      30.381 -22.736 -16.371  0.00  0.00    +0.004 C 
ATOM     24  C   UNL     1      30.346 -24.889 -15.047  0.00  0.00    +0.004 C 
ATOM     25  C   UNL     1      28.856 -22.690 -16.333  0.00  0.00    +0.000 C 
ATOM     26  C   UNL     1      28.821 -24.839 -15.012  0.00  0.00    +0.000 C 
ATOM     27  C   UNL     1      28.254 -24.086 -16.211  0.00  0.00    +0.000 C 
ENDBRANCH  21  22
ENDBRANCH  20  21
ENDBRANCH   6  20
TORSDOF 4
ENDMDL
