MODEL 1
REMARK VINA RESULT:      -8.2      0.000      0.000
REMARK  Name = 4474224
REMARK  2 active torsions:
REMARK  status: ('A' for Active; 'I' for Inactive)
REMARK    1  A    between atoms: C_3  and  N_15
REMARK    2  A    between atoms: C_5  and  S_11
REMARK                            x       y       z     vdW  Elec       q    Type
REMARK                         _______ _______ _______ _____ _____    ______ ____
ROOT
ATOM      1  C   UNL     1      33.687 -23.634 -14.711  0.00  0.00    +0.013 C 
ATOM      2  C   UNL     1      34.919 -23.351 -15.346  0.00  0.00    +0.002 C 
ATOM      3  C   UNL     1      32.499 -23.587 -15.459  0.00  0.00    +0.048 C 
ATOM      4  C   UNL     1      36.105 -23.399 -14.597  0.00  0.00    +0.019 C 
ATOM      5  C   UNL     1      36.078 -23.723 -13.240  0.00  0.00    +0.112 C 
ATOM      6  C   UNL     1      33.678 -23.959 -13.343  0.00  0.00    +0.003 C 
ATOM      7  C   UNL     1      34.927 -23.027 -16.713  0.00  0.00    +0.000 C 
ATOM      8  C   UNL     1      32.527 -23.263 -16.816  0.00  0.00    +0.015 C 
ATOM      9  C   UNL     1      34.866 -24.002 -12.614  0.00  0.00    +0.019 C 
ATOM     10  C   UNL     1      33.738 -22.983 -17.442  0.00  0.00    +0.001 C 
ENDROOT
BRANCH   5  11
ATOM     11  S   UNL     1      37.564 -23.774 -12.325  0.00  0.00    +0.042 S 
ATOM     12  O   UNL     1      37.865 -22.222 -11.908  0.00  0.00    -0.065 OA
ATOM     13  O   UNL     1      37.308 -24.504 -11.092  0.00  0.00    -0.065 OA
ATOM     14  O   UNL     1      38.610 -24.206 -13.239  0.00  0.00    -0.065 OA
ENDBRANCH   5  11
BRANCH   3  15
ATOM     15  N   UNL     1      31.240 -23.862 -14.872  0.00  0.00    -0.304 N 
ATOM     16  C   UNL     1      30.319 -22.783 -14.588  0.00  0.00    +0.112 C 
ATOM     17  C   UNL     1      30.863 -25.223 -14.564  0.00  0.00    +0.112 C 
ENDBRANCH   3  15
TORSDOF 2
ENDMDL
MODEL 2
REMARK VINA RESULT:      -8.0     11.010     12.601
REMARK  Name = 4474224
REMARK  2 active torsions:
REMARK  status: ('A' for Active; 'I' for Inactive)
REMARK    1  A    between atoms: C_3  and  N_15
REMARK    2  A    between atoms: C_5  and  S_11
REMARK                            x       y       z     vdW  Elec       q    Type
REMARK                         _______ _______ _______ _____ _____    ______ ____
ROOT
ATOM      1  C   UNL     1      33.885 -14.719 -23.726  0.00  0.00    +0.013 C 
ATOM      2  C   UNL     1      34.063 -15.891 -24.498  0.00  0.00    +0.002 C 
ATOM      3  C   UNL     1      33.289 -13.592 -24.315  0.00  0.00    +0.048 C 
ATOM      4  C   UNL     1      34.659 -17.017 -23.909  0.00  0.00    +0.019 C 
ATOM      5  C   UNL     1      35.071 -16.990 -22.576  0.00  0.00    +0.112 C 
ATOM      6  C   UNL     1      34.305 -14.709 -22.386  0.00  0.00    +0.003 C 
ATOM      7  C   UNL     1      33.643 -15.901 -25.838  0.00  0.00    +0.000 C 
ATOM      8  C   UNL     1      32.877 -13.620 -25.648  0.00  0.00    +0.015 C 
ATOM      9  C   UNL     1      34.895 -15.837 -21.816  0.00  0.00    +0.019 C 
ATOM     10  C   UNL     1      33.053 -14.772 -26.408  0.00  0.00    +0.001 C 
ENDROOT
BRANCH   5  11
ATOM     11  S   UNL     1      35.812 -18.400 -21.862  0.00  0.00    +0.042 S 
ATOM     12  O   UNL     1      34.909 -19.664 -22.374  0.00  0.00    -0.065 OA
ATOM     13  O   UNL     1      37.135 -18.559 -22.447  0.00  0.00    -0.065 OA
ATOM     14  O   UNL     1      35.647 -18.283 -20.422  0.00  0.00    -0.065 OA
ENDBRANCH   5  11
BRANCH   3  15
ATOM     15  N   UNL     1      33.086 -12.394 -23.587  0.00  0.00    -0.304 N 
ATOM     16  C   UNL     1      33.835 -11.203 -23.924  0.00  0.00    +0.112 C 
ATOM     17  C   UNL     1      32.122 -12.351 -22.510  0.00  0.00    +0.112 C 
ENDBRANCH   3  15
TORSDOF 2
ENDMDL
MODEL 3
REMARK VINA RESULT:      -8.0      6.421      8.079
REMARK  Name = 4474224
REMARK  2 active torsions:
REMARK  status: ('A' for Active; 'I' for Inactive)
REMARK    1  A    between atoms: C_3  and  N_15
REMARK    2  A    between atoms: C_5  and  S_11
REMARK                            x       y       z     vdW  Elec       q    Type
REMARK                         _______ _______ _______ _____ _____    ______ ____
ROOT
ATOM      1  C   UNL     1      34.937 -19.618 -21.009  0.00  0.00    +0.013 C 
ATOM      2  C   UNL     1      35.855 -20.416 -20.285  0.00  0.00    +0.002 C 
ATOM      3  C   UNL     1      35.423 -18.609 -21.857  0.00  0.00    +0.048 C 
ATOM      4  C   UNL     1      35.369 -21.424 -19.438  0.00  0.00    +0.019 C 
ATOM      5  C   UNL     1      33.997 -21.645 -19.307  0.00  0.00    +0.112 C 
ATOM      6  C   UNL     1      33.560 -19.855 -20.866  0.00  0.00    +0.003 C 
ATOM      7  C   UNL     1      37.232 -20.180 -20.429  0.00  0.00    +0.000 C 
ATOM      8  C   UNL     1      36.794 -18.389 -21.987  0.00  0.00    +0.015 C 
ATOM      9  C   UNL     1      33.094 -20.861 -20.020  0.00  0.00    +0.019 C 
ATOM     10  C   UNL     1      37.697 -19.172 -21.275  0.00  0.00    +0.001 C 
ENDROOT
BRANCH   5  11
ATOM     11  S   UNL     1      33.413 -22.903 -18.247  0.00  0.00    +0.042 S 
ATOM     12  O   UNL     1      34.355 -22.812 -16.914  0.00  0.00    -0.065 OA
ATOM     13  O   UNL     1      32.061 -22.554 -17.836  0.00  0.00    -0.065 OA
ATOM     14  O   UNL     1      33.684 -24.172 -18.904  0.00  0.00    -0.065 OA
ENDBRANCH   5  11
BRANCH   3  15
ATOM     15  N   UNL     1      34.547 -17.783 -22.604  0.00  0.00    -0.304 N 
ATOM     16  C   UNL     1      33.960 -16.610 -21.996  0.00  0.00    +0.112 C 
ATOM     17  C   UNL     1      34.245 -18.101 -23.982  0.00  0.00    +0.112 C 
ENDBRANCH   3  15
TORSDOF 2
ENDMDL
MODEL 4
REMARK VINA RESULT:      -8.0     10.636     12.294
REMARK  Name = 4474224
REMARK  2 active torsions:
REMARK  status: ('A' for Active; 'I' for Inactive)
REMARK    1  A    between atoms: C_3  and  N_15
REMARK    2  A    between atoms: C_5  and  S_11
REMARK                            x       y       z     vdW  Elec       q    Type
REMARK                         _______ _______ _______ _____ _____    ______ ____
ROOT
ATOM      1  C   UNL     1      33.581 -14.727 -23.021  0.00  0.00    +0.013 C 
ATOM      2  C   UNL     1      33.285 -15.126 -21.696  0.00  0.00    +0.002 C 
ATOM      3  C   UNL     1      33.145 -13.471 -23.475  0.00  0.00    +0.048 C 
ATOM      4  C   UNL     1      33.721 -16.381 -21.243  0.00  0.00    +0.019 C 
ATOM      5  C   UNL     1      34.441 -17.231 -22.084  0.00  0.00    +0.112 C 
ATOM      6  C   UNL     1      34.308 -15.595 -23.853  0.00  0.00    +0.003 C 
ATOM      7  C   UNL     1      32.559 -14.258 -20.864  0.00  0.00    +0.000 C 
ATOM      8  C   UNL     1      32.426 -12.622 -22.634  0.00  0.00    +0.015 C 
ATOM      9  C   UNL     1      34.734 -16.838 -23.387  0.00  0.00    +0.019 C 
ATOM     10  C   UNL     1      32.133 -13.014 -21.331  0.00  0.00    +0.001 C 
ENDROOT
BRANCH   5  11
ATOM     11  S   UNL     1      34.973 -18.789 -21.502  0.00  0.00    +0.042 S 
ATOM     12  O   UNL     1      33.701 -19.393 -20.671  0.00  0.00    -0.065 OA
ATOM     13  O   UNL     1      35.178 -19.653 -22.654  0.00  0.00    -0.065 OA
ATOM     14  O   UNL     1      36.052 -18.543 -20.557  0.00  0.00    -0.065 OA
ENDBRANCH   5  11
BRANCH   3  15
ATOM     15  N   UNL     1      33.415 -13.024 -24.791  0.00  0.00    -0.304 N 
ATOM     16  C   UNL     1      33.007 -13.820 -25.928  0.00  0.00    +0.112 C 
ATOM     17  C   UNL     1      34.089 -11.763 -25.008  0.00  0.00    +0.112 C 
ENDBRANCH   3  15
TORSDOF 2
ENDMDL
MODEL 5
REMARK VINA RESULT:      -7.8     15.227     16.519
REMARK  Name = 4474224
REMARK  2 active torsions:
REMARK  status: ('A' for Active; 'I' for Inactive)
REMARK    1  A    between atoms: C_3  and  N_15
REMARK    2  A    between atoms: C_5  and  S_11
REMARK                            x       y       z     vdW  Elec       q    Type
REMARK                         _______ _______ _______ _____ _____    ______ ____
ROOT
ATOM      1  C   UNL     1      32.952  -9.397 -22.962  0.00  0.00    +0.013 C 
ATOM      2  C   UNL     1      33.923 -10.018 -23.782  0.00  0.00    +0.002 C 
ATOM      3  C   UNL     1      32.959  -7.999 -22.825  0.00  0.00    +0.048 C 
ATOM      4  C   UNL     1      33.915 -11.415 -23.919  0.00  0.00    +0.019 C 
ATOM      5  C   UNL     1      32.962 -12.190 -23.257  0.00  0.00    +0.112 C 
ATOM      6  C   UNL     1      31.999 -10.193 -22.303  0.00  0.00    +0.003 C 
ATOM      7  C   UNL     1      34.875  -9.222 -24.440  0.00  0.00    +0.000 C 
ATOM      8  C   UNL     1      33.912  -7.225 -23.487  0.00  0.00    +0.015 C 
ATOM      9  C   UNL     1      32.005 -11.580 -22.451  0.00  0.00    +0.019 C 
ATOM     10  C   UNL     1      34.869  -7.834 -24.293  0.00  0.00    +0.001 C 
ENDROOT
BRANCH   5  11
ATOM     11  S   UNL     1      32.970 -13.926 -23.438  0.00  0.00    +0.042 S 
ATOM     12  O   UNL     1      34.529 -14.372 -23.220  0.00  0.00    -0.065 OA
ATOM     13  O   UNL     1      32.207 -14.497 -22.339  0.00  0.00    -0.065 OA
ATOM     14  O   UNL     1      32.609 -14.211 -24.818  0.00  0.00    -0.065 OA
ENDBRANCH   5  11
BRANCH   3  15
ATOM     15  N   UNL     1      32.009  -7.328 -22.016  0.00  0.00    -0.304 N 
ATOM     16  C   UNL     1      32.188  -7.267 -20.582  0.00  0.00    +0.112 C 
ATOM     17  C   UNL     1      30.860  -6.690 -22.620  0.00  0.00    +0.112 C 
ENDBRANCH   3  15
TORSDOF 2
ENDMDL
MODEL 6
REMARK VINA RESULT:      -7.7      4.442      5.565
REMARK  Name = 4474224
REMARK  2 active torsions:
REMARK  status: ('A' for Active; 'I' for Inactive)
REMARK    1  A    between atoms: C_3  and  N_15
REMARK    2  A    between atoms: C_5  and  S_11
REMARK                            x       y       z     vdW  Elec       q    Type
REMARK                         _______ _______ _______ _____ _____    ______ ____
ROOT
ATOM      1  C   UNL     1      35.033 -23.690 -14.370  0.00  0.00    +0.013 C 
ATOM      2  C   UNL     1      34.748 -23.170 -15.654  0.00  0.00    +0.002 C 
ATOM      3  C   UNL     1      36.367 -23.750 -13.933  0.00  0.00    +0.048 C 
ATOM      4  C   UNL     1      33.415 -23.110 -16.090  0.00  0.00    +0.019 C 
ATOM      5  C   UNL     1      32.377 -23.555 -15.271  0.00  0.00    +0.112 C 
ATOM      6  C   UNL     1      33.976 -24.134 -13.558  0.00  0.00    +0.003 C 
ATOM      7  C   UNL     1      35.805 -22.727 -16.465  0.00  0.00    +0.000 C 
ATOM      8  C   UNL     1      37.404 -23.305 -14.752  0.00  0.00    +0.015 C 
ATOM      9  C   UNL     1      32.657 -24.066 -14.007  0.00  0.00    +0.019 C 
ATOM     10  C   UNL     1      37.125 -22.794 -16.016  0.00  0.00    +0.001 C 
ENDROOT
BRANCH   5  11
ATOM     11  S   UNL     1      30.725 -23.474 -15.833  0.00  0.00    +0.042 S 
ATOM     12  O   UNL     1      29.913 -22.676 -14.660  0.00  0.00    -0.065 OA
ATOM     13  O   UNL     1      30.694 -22.633 -17.019  0.00  0.00    -0.065 OA
ATOM     14  O   UNL     1      30.225 -24.840 -15.877  0.00  0.00    -0.065 OA
ENDBRANCH   5  11
BRANCH   3  15
ATOM     15  N   UNL     1      36.707 -24.262 -12.657  0.00  0.00    -0.304 N 
ATOM     16  C   UNL     1      37.006 -25.668 -12.493  0.00  0.00    +0.112 C 
ATOM     17  C   UNL     1      36.768 -23.380 -11.512  0.00  0.00    +0.112 C 
ENDBRANCH   3  15
TORSDOF 2
ENDMDL
MODEL 7
REMARK VINA RESULT:      -7.5     12.028     13.667
REMARK  Name = 4474224
REMARK  2 active torsions:
REMARK  status: ('A' for Active; 'I' for Inactive)
REMARK    1  A    between atoms: C_3  and  N_15
REMARK    2  A    between atoms: C_5  and  S_11
REMARK                            x       y       z     vdW  Elec       q    Type
REMARK                         _______ _______ _______ _____ _____    ______ ____
ROOT
ATOM      1  C   UNL     1      34.386 -16.101 -23.188  0.00  0.00    +0.013 C 
ATOM      2  C   UNL     1      33.983 -14.757 -22.999  0.00  0.00    +0.002 C 
ATOM      3  C   UNL     1      34.753 -16.872 -22.074  0.00  0.00    +0.048 C 
ATOM      4  C   UNL     1      33.616 -13.987 -24.113  0.00  0.00    +0.019 C 
ATOM      5  C   UNL     1      33.645 -14.533 -25.397  0.00  0.00    +0.112 C 
ATOM      6  C   UNL     1      34.408 -16.634 -24.488  0.00  0.00    +0.003 C 
ATOM      7  C   UNL     1      33.961 -14.225 -21.699  0.00  0.00    +0.000 C 
ATOM      8  C   UNL     1      34.724 -16.326 -20.790  0.00  0.00    +0.015 C 
ATOM      9  C   UNL     1      34.040 -15.854 -25.584  0.00  0.00    +0.019 C 
ATOM     10  C   UNL     1      34.329 -15.005 -20.603  0.00  0.00    +0.001 C 
ENDROOT
BRANCH   5  11
ATOM     11  S   UNL     1      33.187 -13.557 -26.771  0.00  0.00    +0.042 S 
ATOM     12  O   UNL     1      33.446 -12.011 -26.304  0.00  0.00    -0.065 OA
ATOM     13  O   UNL     1      34.119 -13.836 -27.852  0.00  0.00    -0.065 OA
ATOM     14  O   UNL     1      31.756 -13.736 -26.960  0.00  0.00    -0.065 OA
ENDBRANCH   5  11
BRANCH   3  15
ATOM     15  N   UNL     1      35.164 -18.221 -22.208  0.00  0.00    -0.304 N 
ATOM     16  C   UNL     1      36.550 -18.536 -22.477  0.00  0.00    +0.112 C 
ATOM     17  C   UNL     1      34.203 -19.292 -22.065  0.00  0.00    +0.112 C 
ENDBRANCH   3  15
TORSDOF 2
ENDMDL
MODEL 8
REMARK VINA RESULT:      -7.5      1.655      3.247
REMARK  Name = 4474224
REMARK  2 active torsions:
REMARK  status: ('A' for Active; 'I' for Inactive)
REMARK    1  A    between atoms: C_3  and  N_15
REMARK    2  A    between atoms: C_5  and  S_11
REMARK                            x       y       z     vdW  Elec       q    Type
REMARK                         _______ _______ _______ _____ _____    ______ ____
ROOT
ATOM      1  C   UNL     1      34.436 -23.474 -15.588  0.00  0.00    +0.013 C 
ATOM      2  C   UNL     1      33.647 -23.833 -14.470  0.00  0.00    +0.002 C 
ATOM      3  C   UNL     1      33.804 -23.053 -16.769  0.00  0.00    +0.048 C 
ATOM      4  C   UNL     1      34.279 -24.255 -13.290  0.00  0.00    +0.019 C 
ATOM      5  C   UNL     1      35.671 -24.319 -13.211  0.00  0.00    +0.112 C 
ATOM      6  C   UNL     1      35.836 -23.545 -15.491  0.00  0.00    +0.003 C 
ATOM      7  C   UNL     1      32.247 -23.762 -14.567  0.00  0.00    +0.000 C 
ATOM      8  C   UNL     1      32.413 -22.988 -16.847  0.00  0.00    +0.015 C 
ATOM      9  C   UNL     1      36.448 -23.965 -14.311  0.00  0.00    +0.019 C 
ATOM     10  C   UNL     1      31.635 -23.342 -15.749  0.00  0.00    +0.001 C 
ENDROOT
BRANCH   5  11
ATOM     11  S   UNL     1      36.438 -24.848 -11.735  0.00  0.00    +0.042 S 
ATOM     12  O   UNL     1      35.225 -24.989 -10.648  0.00  0.00    -0.065 OA
ATOM     13  O   UNL     1      36.968 -26.185 -11.956  0.00  0.00    -0.065 OA
ATOM     14  O   UNL     1      37.309 -23.767 -11.299  0.00  0.00    -0.065 OA
ENDBRANCH   5  11
BRANCH   3  15
ATOM     15  N   UNL     1      34.547 -22.682 -17.917  0.00  0.00    -0.304 N 
ATOM     16  C   UNL     1      34.038 -22.973 -19.239  0.00  0.00    +0.112 C 
ATOM     17  C   UNL     1      35.814 -21.999 -17.774  0.00  0.00    +0.112 C 
ENDBRANCH   3  15
TORSDOF 2
ENDMDL
MODEL 9
REMARK VINA RESULT:      -7.4      1.876      3.034
REMARK  Name = 4474224
REMARK  2 active torsions:
REMARK  status: ('A' for Active; 'I' for Inactive)
REMARK    1  A    between atoms: C_3  and  N_15
REMARK    2  A    between atoms: C_5  and  S_11
REMARK                            x       y       z     vdW  Elec       q    Type
REMARK                         _______ _______ _______ _____ _____    ______ ____
ROOT
ATOM      1  C   UNL     1      35.347 -23.226 -15.774  0.00  0.00    +0.013 C 
ATOM      2  C   UNL     1      36.620 -22.953 -15.220  0.00  0.00    +0.002 C 
ATOM      3  C   UNL     1      35.021 -22.705 -17.037  0.00  0.00    +0.048 C 
ATOM      4  C   UNL     1      36.945 -23.474 -13.957  0.00  0.00    +0.019 C 
ATOM      5  C   UNL     1      36.028 -24.254 -13.251  0.00  0.00    +0.112 C 
ATOM      6  C   UNL     1      34.436 -24.013 -15.049  0.00  0.00    +0.003 C 
ATOM      7  C   UNL     1      37.529 -22.166 -15.945  0.00  0.00    +0.000 C 
ATOM      8  C   UNL     1      35.937 -21.926 -17.743  0.00  0.00    +0.015 C 
ATOM      9  C   UNL     1      34.776 -24.523 -13.796  0.00  0.00    +0.019 C 
ATOM     10  C   UNL     1      37.189 -21.656 -17.199  0.00  0.00    +0.001 C 
ENDROOT
BRANCH   5  11
ATOM     11  S   UNL     1      36.451 -24.890 -11.681  0.00  0.00    +0.042 S 
ATOM     12  O   UNL     1      37.013 -26.399 -11.967  0.00  0.00    -0.065 OA
ATOM     13  O   UNL     1      37.567 -24.112 -11.165  0.00  0.00    -0.065 OA
ATOM     14  O   UNL     1      35.215 -25.006 -10.924  0.00  0.00    -0.065 OA
ENDBRANCH   5  11
BRANCH   3  15
ATOM     15  N   UNL     1      33.761 -22.948 -17.637  0.00  0.00    -0.304 N 
ATOM     16  C   UNL     1      32.595 -23.178 -16.812  0.00  0.00    +0.112 C 
ATOM     17  C   UNL     1      33.629 -22.956 -19.077  0.00  0.00    +0.112 C 
ENDBRANCH   3  15
TORSDOF 2
ENDMDL
