MODEL 1
REMARK VINA RESULT:     -10.6      0.000      0.000
REMARK  Name = 11494891
REMARK  8 active torsions:
REMARK  status: ('A' for Active; 'I' for Inactive)
REMARK    1  A    between atoms: N_5  and  C_25
REMARK    2  A    between atoms: C_10  and  C_18
REMARK    3  A    between atoms: C_18  and  O_19
REMARK    4  A    between atoms: O_19  and  C_20
REMARK    5  A    between atoms: C_20  and  C_22
REMARK    6  A    between atoms: C_22  and  O_23
REMARK    7  A    between atoms: C_25  and  C_27
REMARK    8  A    between atoms: C_27  and  O_28
REMARK                            x       y       z     vdW  Elec       q    Type
REMARK                         _______ _______ _______ _____ _____    ______ ____
ROOT
ATOM      1  S   UNL     1      32.917 -24.068 -13.717  0.00  0.00    +0.080 S 
ATOM      2  O   UNL     1      32.595 -25.478 -13.788  0.00  0.00    -0.150 OA
ATOM      3  O   UNL     1      32.096 -23.097 -13.028  0.00  0.00    -0.150 OA
ATOM      4  O   UNL     1      36.592 -23.126 -14.237  0.00  0.00    -0.268 OA
ATOM      5  N   UNL     1      34.560 -23.858 -13.292  0.00  0.00    -0.145 N 
ATOM      6  C   UNL     1      33.217 -23.489 -15.332  0.00  0.00    +0.136 C 
ATOM      7  C   UNL     1      34.555 -23.137 -15.548  0.00  0.00    +0.074 C 
ATOM      8  C   UNL     1      34.962 -22.651 -16.808  0.00  0.00    +0.006 C 
ATOM      9  C   UNL     1      35.399 -23.346 -14.337  0.00  0.00    +0.269 C 
ATOM     10  C   UNL     1      32.240 -23.387 -16.297  0.00  0.00    +0.095 C 
ATOM     11  C   UNL     1      33.962 -22.539 -17.816  0.00  0.00    +0.000 C 
ATOM     12  C   UNL     1      32.625 -22.907 -17.546  0.00  0.00    +0.008 C 
ATOM     13  C   UNL     1      36.282 -22.269 -17.138  0.00  0.00    +0.000 C 
ATOM     14  C   UNL     1      34.310 -22.060 -19.090  0.00  0.00    +0.000 C 
ATOM     15  C   UNL     1      36.605 -21.795 -18.412  0.00  0.00    +0.000 C 
ATOM     16  C   UNL     1      35.621 -21.692 -19.386  0.00  0.00    +0.000 C 
ENDROOT
BRANCH  10  18
ATOM     17  O   UNL     1      30.431 -24.919 -16.042  0.00  0.00    -0.245 OA
ATOM     18  C   UNL     1      30.853 -23.755 -16.064  0.00  0.00    +0.343 C 
BRANCH  18  19
ATOM     19  O   UNL     1      30.066 -22.653 -15.869  0.00  0.00    -0.433 OA
BRANCH  19  20
ATOM     20  C   UNL     1      28.678 -22.888 -15.608  0.00  0.00    +0.317 C 
BRANCH  20  22
ATOM     21  O   UNL     1      27.412 -21.624 -17.253  0.00  0.00    -0.246 OA
ATOM     22  C   UNL     1      27.882 -22.684 -16.868  0.00  0.00    +0.359 C 
BRANCH  22  23
ATOM     23  O   UNL     1      27.753 -23.858 -17.536  0.00  0.00    -0.478 OA
ATOM     24  H   UNL     1      27.023 -23.995 -18.106  0.00  0.00    +0.295 HD
ENDBRANCH  22  23
ENDBRANCH  20  22
ENDBRANCH  19  20
ENDBRANCH  18  19
ENDBRANCH  10  18
BRANCH   5  25
ATOM     25  C   UNL     1      35.076 -24.180 -11.953  0.00  0.00    +0.228 C 
BRANCH  25  27
ATOM     26  O   UNL     1      37.353 -24.646 -11.331  0.00  0.00    -0.248 OA
ATOM     27  C   UNL     1      36.369 -24.953 -11.991  0.00  0.00    +0.336 C 
BRANCH  27  28
ATOM     28  O   UNL     1      36.338 -26.018 -12.827  0.00  0.00    -0.479 OA
ATOM     29  H   UNL     1      35.637 -26.111 -13.441  0.00  0.00    +0.295 HD
ENDBRANCH  27  28
ENDBRANCH  25  27
ENDBRANCH   5  25
TORSDOF 8
ENDMDL
MODEL 2
REMARK VINA RESULT:     -10.6      2.321      6.528
REMARK  Name = 11494891
REMARK  8 active torsions:
REMARK  status: ('A' for Active; 'I' for Inactive)
REMARK    1  A    between atoms: N_5  and  C_25
REMARK    2  A    between atoms: C_10  and  C_18
REMARK    3  A    between atoms: C_18  and  O_19
REMARK    4  A    between atoms: O_19  and  C_20
REMARK    5  A    between atoms: C_20  and  C_22
REMARK    6  A    between atoms: C_22  and  O_23
REMARK    7  A    between atoms: C_25  and  C_27
REMARK    8  A    between atoms: C_27  and  O_28
REMARK                            x       y       z     vdW  Elec       q    Type
REMARK                         _______ _______ _______ _____ _____    ______ ____
ROOT
ATOM      1  S   UNL     1      34.681 -24.312 -14.275  0.00  0.00    +0.080 S 
ATOM      2  O   UNL     1      34.745 -23.480 -13.093  0.00  0.00    -0.150 OA
ATOM      3  O   UNL     1      35.185 -25.668 -14.325  0.00  0.00    -0.150 OA
ATOM      4  O   UNL     1      32.021 -23.392 -16.872  0.00  0.00    -0.268 OA
ATOM      5  N   UNL     1      33.118 -24.239 -14.965  0.00  0.00    -0.145 N 
ATOM      6  C   UNL     1      35.358 -23.424 -15.612  0.00  0.00    +0.136 C 
ATOM      7  C   UNL     1      34.405 -23.075 -16.577  0.00  0.00    +0.074 C 
ATOM      8  C   UNL     1      34.793 -22.351 -17.723  0.00  0.00    +0.006 C 
ATOM      9  C   UNL     1      33.037 -23.551 -16.222  0.00  0.00    +0.269 C 
ATOM     10  C   UNL     1      36.692 -23.098 -15.712  0.00  0.00    +0.095 C 
ATOM     11  C   UNL     1      36.170 -22.007 -17.839  0.00  0.00    +0.000 C 
ATOM     12  C   UNL     1      37.092 -22.385 -16.837  0.00  0.00    +0.008 C 
ATOM     13  C   UNL     1      33.919 -21.944 -18.756  0.00  0.00    +0.000 C 
ATOM     14  C   UNL     1      36.614 -21.286 -18.960  0.00  0.00    +0.000 C 
ATOM     15  C   UNL     1      34.383 -21.228 -19.861  0.00  0.00    +0.000 C 
ATOM     16  C   UNL     1      35.728 -20.899 -19.963  0.00  0.00    +0.000 C 
ENDROOT
BRANCH  10  18
ATOM     17  O   UNL     1      37.811 -22.890 -13.616  0.00  0.00    -0.245 OA
ATOM     18  C   UNL     1      37.675 -23.465 -14.705  0.00  0.00    +0.343 C 
BRANCH  18  19
ATOM     19  O   UNL     1      38.435 -24.529 -15.107  0.00  0.00    -0.433 OA
BRANCH  19  20
ATOM     20  C   UNL     1      39.167 -25.222 -14.091  0.00  0.00    +0.317 C 
BRANCH  20  22
ATOM     21  O   UNL     1      41.179 -26.585 -14.101  0.00  0.00    -0.246 OA
ATOM     22  C   UNL     1      40.331 -25.948 -14.707  0.00  0.00    +0.359 C 
BRANCH  22  23
ATOM     23  O   UNL     1      40.315 -25.798 -16.056  0.00  0.00    -0.478 OA
ATOM     24  H   UNL     1      41.120 -25.780 -16.534  0.00  0.00    +0.295 HD
ENDBRANCH  22  23
ENDBRANCH  20  22
ENDBRANCH  19  20
ENDBRANCH  18  19
ENDBRANCH  10  18
BRANCH   5  25
ATOM     25  C   UNL     1      31.941 -24.839 -14.317  0.00  0.00    +0.228 C 
BRANCH  25  27
ATOM     26  O   UNL     1      31.143 -23.403 -12.559  0.00  0.00    -0.248 OA
ATOM     27  C   UNL     1      31.021 -23.813 -13.706  0.00  0.00    +0.336 C 
BRANCH  27  28
ATOM     28  O   UNL     1      30.047 -23.391 -14.545  0.00  0.00    -0.479 OA
ATOM     29  H   UNL     1      30.266 -23.099 -15.408  0.00  0.00    +0.295 HD
ENDBRANCH  27  28
ENDBRANCH  25  27
ENDBRANCH   5  25
TORSDOF 8
ENDMDL
MODEL 3
REMARK VINA RESULT:     -10.3      1.460      6.259
REMARK  Name = 11494891
REMARK  8 active torsions:
REMARK  status: ('A' for Active; 'I' for Inactive)
REMARK    1  A    between atoms: N_5  and  C_25
REMARK    2  A    between atoms: C_10  and  C_18
REMARK    3  A    between atoms: C_18  and  O_19
REMARK    4  A    between atoms: O_19  and  C_20
REMARK    5  A    between atoms: C_20  and  C_22
REMARK    6  A    between atoms: C_22  and  O_23
REMARK    7  A    between atoms: C_25  and  C_27
REMARK    8  A    between atoms: C_27  and  O_28
REMARK                            x       y       z     vdW  Elec       q    Type
REMARK                         _______ _______ _______ _____ _____    ______ ____
ROOT
ATOM      1  S   UNL     1      32.196 -24.112 -14.170  0.00  0.00    +0.080 S 
ATOM      2  O   UNL     1      31.866 -23.189 -13.106  0.00  0.00    -0.150 OA
ATOM      3  O   UNL     1      32.273 -25.545 -13.988  0.00  0.00    -0.150 OA
ATOM      4  O   UNL     1      31.592 -22.883 -17.746  0.00  0.00    -0.268 OA
ATOM      5  N   UNL     1      31.290 -23.744 -15.573  0.00  0.00    -0.145 N 
ATOM      6  C   UNL     1      33.669 -23.573 -14.929  0.00  0.00    +0.136 C 
ATOM      7  C   UNL     1      33.475 -23.118 -16.239  0.00  0.00    +0.074 C 
ATOM      8  C   UNL     1      34.570 -22.646 -16.992  0.00  0.00    +0.006 C 
ATOM      9  C   UNL     1      32.049 -23.206 -16.666  0.00  0.00    +0.269 C 
ATOM     10  C   UNL     1      34.897 -23.592 -14.307  0.00  0.00    +0.095 C 
ATOM     11  C   UNL     1      35.847 -22.660 -16.361  0.00  0.00    +0.000 C 
ATOM     12  C   UNL     1      35.988 -23.131 -15.036  0.00  0.00    +0.008 C 
ATOM     13  C   UNL     1      34.491 -22.162 -18.318  0.00  0.00    +0.000 C 
ATOM     14  C   UNL     1      36.974 -22.201 -17.062  0.00  0.00    +0.000 C 
ATOM     15  C   UNL     1      35.625 -21.711 -18.995  0.00  0.00    +0.000 C 
ATOM     16  C   UNL     1      36.864 -21.730 -18.369  0.00  0.00    +0.000 C 
ENDROOT
BRANCH  10  18
ATOM     17  O   UNL     1      34.493 -23.618 -11.957  0.00  0.00    -0.245 OA
ATOM     18  C   UNL     1      35.089 -24.067 -12.946  0.00  0.00    +0.343 C 
BRANCH  18  19
ATOM     19  O   UNL     1      36.010 -25.076 -12.890  0.00  0.00    -0.433 OA
BRANCH  19  20
ATOM     20  C   UNL     1      36.967 -25.021 -11.826  0.00  0.00    +0.317 C 
BRANCH  20  22
ATOM     21  O   UNL     1      38.185 -22.931 -11.600  0.00  0.00    -0.246 OA
ATOM     22  C   UNL     1      38.031 -24.010 -12.152  0.00  0.00    +0.359 C 
BRANCH  22  23
ATOM     23  O   UNL     1      38.816 -24.464 -13.162  0.00  0.00    -0.478 OA
ATOM     24  H   UNL     1      39.637 -24.051 -13.339  0.00  0.00    +0.295 HD
ENDBRANCH  22  23
ENDBRANCH  20  22
ENDBRANCH  19  20
ENDBRANCH  18  19
ENDBRANCH  10  18
BRANCH   5  25
ATOM     25  C   UNL     1      29.838 -23.964 -15.654  0.00  0.00    +0.228 C 
BRANCH  25  27
ATOM     26  O   UNL     1      28.754 -21.924 -14.978  0.00  0.00    -0.248 OA
ATOM     27  C   UNL     1      29.063 -22.691 -15.881  0.00  0.00    +0.336 C 
BRANCH  27  28
ATOM     28  O   UNL     1      28.740 -22.478 -17.178  0.00  0.00    -0.479 OA
ATOM     29  H   UNL     1      27.881 -22.178 -17.404  0.00  0.00    +0.295 HD
ENDBRANCH  27  28
ENDBRANCH  25  27
ENDBRANCH   5  25
TORSDOF 8
ENDMDL
MODEL 4
REMARK VINA RESULT:      -9.8      1.700      6.052
REMARK  Name = 11494891
REMARK  8 active torsions:
REMARK  status: ('A' for Active; 'I' for Inactive)
REMARK    1  A    between atoms: N_5  and  C_25
REMARK    2  A    between atoms: C_10  and  C_18
REMARK    3  A    between atoms: C_18  and  O_19
REMARK    4  A    between atoms: O_19  and  C_20
REMARK    5  A    between atoms: C_20  and  C_22
REMARK    6  A    between atoms: C_22  and  O_23
REMARK    7  A    between atoms: C_25  and  C_27
REMARK    8  A    between atoms: C_27  and  O_28
REMARK                            x       y       z     vdW  Elec       q    Type
REMARK                         _______ _______ _______ _____ _____    ______ ____
ROOT
ATOM      1  S   UNL     1      31.921 -24.175 -14.117  0.00  0.00    +0.080 S 
ATOM      2  O   UNL     1      31.777 -23.255 -13.008  0.00  0.00    -0.150 OA
ATOM      3  O   UNL     1      32.063 -25.605 -13.953  0.00  0.00    -0.150 OA
ATOM      4  O   UNL     1      30.628 -22.973 -17.514  0.00  0.00    -0.268 OA
ATOM      5  N   UNL     1      30.759 -23.832 -15.324  0.00  0.00    -0.145 N 
ATOM      6  C   UNL     1      33.212 -23.606 -15.139  0.00  0.00    +0.136 C 
ATOM      7  C   UNL     1      32.765 -23.161 -16.389  0.00  0.00    +0.074 C 
ATOM      8  C   UNL     1      33.688 -22.667 -17.334  0.00  0.00    +0.006 C 
ATOM      9  C   UNL     1      31.287 -23.282 -16.539  0.00  0.00    +0.269 C 
ATOM     10  C   UNL     1      34.536 -23.596 -14.759  0.00  0.00    +0.095 C 
ATOM     11  C   UNL     1      35.061 -22.651 -16.954  0.00  0.00    +0.000 C 
ATOM     12  C   UNL     1      35.460 -23.113 -15.681  0.00  0.00    +0.008 C 
ATOM     13  C   UNL     1      33.350 -22.190 -18.621  0.00  0.00    +0.000 C 
ATOM     14  C   UNL     1      36.025 -22.170 -17.855  0.00  0.00    +0.000 C 
ATOM     15  C   UNL     1      34.327 -21.717 -19.500  0.00  0.00    +0.000 C 
ATOM     16  C   UNL     1      35.661 -21.706 -19.118  0.00  0.00    +0.000 C 
ENDROOT
BRANCH  10  18
ATOM     17  O   UNL     1      34.934 -23.394 -12.417  0.00  0.00    -0.245 OA
ATOM     18  C   UNL     1      34.991 -24.062 -13.459  0.00  0.00    +0.343 C 
BRANCH  18  19
ATOM     19  O   UNL     1      35.491 -25.333 -13.525  0.00  0.00    -0.433 OA
BRANCH  19  20
ATOM     20  C   UNL     1      36.875 -25.467 -13.866  0.00  0.00    +0.317 C 
BRANCH  20  22
ATOM     21  O   UNL     1      36.277 -26.754 -15.838  0.00  0.00    -0.246 OA
ATOM     22  C   UNL     1      37.041 -26.536 -14.910  0.00  0.00    +0.359 C 
BRANCH  22  23
ATOM     23  O   UNL     1      38.177 -27.243 -14.681  0.00  0.00    -0.478 OA
ATOM     24  H   UNL     1      38.228 -27.822 -13.947  0.00  0.00    +0.295 HD
ENDBRANCH  22  23
ENDBRANCH  20  22
ENDBRANCH  19  20
ENDBRANCH  18  19
ENDBRANCH  10  18
BRANCH   5  25
ATOM     25  C   UNL     1      29.323 -24.084 -15.129  0.00  0.00    +0.228 C 
BRANCH  25  27
ATOM     26  O   UNL     1      28.433 -21.849 -15.185  0.00  0.00    -0.248 OA
ATOM     27  C   UNL     1      28.455 -22.975 -15.665  0.00  0.00    +0.336 C 
BRANCH  27  28
ATOM     28  O   UNL     1      27.699 -23.343 -16.727  0.00  0.00    -0.479 OA
ATOM     29  H   UNL     1      26.803 -23.075 -16.779  0.00  0.00    +0.295 HD
ENDBRANCH  27  28
ENDBRANCH  25  27
ENDBRANCH   5  25
TORSDOF 8
ENDMDL
MODEL 5
REMARK VINA RESULT:      -9.8      1.546      6.072
REMARK  Name = 11494891
REMARK  8 active torsions:
REMARK  status: ('A' for Active; 'I' for Inactive)
REMARK    1  A    between atoms: N_5  and  C_25
REMARK    2  A    between atoms: C_10  and  C_18
REMARK    3  A    between atoms: C_18  and  O_19
REMARK    4  A    between atoms: O_19  and  C_20
REMARK    5  A    between atoms: C_20  and  C_22
REMARK    6  A    between atoms: C_22  and  O_23
REMARK    7  A    between atoms: C_25  and  C_27
REMARK    8  A    between atoms: C_27  and  O_28
REMARK                            x       y       z     vdW  Elec       q    Type
REMARK                         _______ _______ _______ _____ _____    ______ ____
ROOT
ATOM      1  S   UNL     1      32.363 -23.930 -14.268  0.00  0.00    +0.080 S 
ATOM      2  O   UNL     1      32.547 -23.080 -13.111  0.00  0.00    -0.150 OA
ATOM      3  O   UNL     1      32.409 -25.375 -14.212  0.00  0.00    -0.150 OA
ATOM      4  O   UNL     1      30.471 -22.402 -17.227  0.00  0.00    -0.268 OA
ATOM      5  N   UNL     1      31.001 -23.418 -15.166  0.00  0.00    -0.145 N 
ATOM      6  C   UNL     1      33.445 -23.393 -15.523  0.00  0.00    +0.136 C 
ATOM      7  C   UNL     1      32.777 -22.830 -16.618  0.00  0.00    +0.074 C 
ATOM      8  C   UNL     1      33.512 -22.344 -17.719  0.00  0.00    +0.006 C 
ATOM      9  C   UNL     1      31.297 -22.827 -16.440  0.00  0.00    +0.269 C 
ATOM     10  C   UNL     1      34.815 -23.510 -15.449  0.00  0.00    +0.095 C 
ATOM     11  C   UNL     1      34.931 -22.459 -17.656  0.00  0.00    +0.000 C 
ATOM     12  C   UNL     1      35.555 -23.036 -16.528  0.00  0.00    +0.008 C 
ATOM     13  C   UNL     1      32.945 -21.756 -18.873  0.00  0.00    +0.000 C 
ATOM     14  C   UNL     1      35.714 -21.992 -18.725  0.00  0.00    +0.000 C 
ATOM     15  C   UNL     1      33.744 -21.299 -19.923  0.00  0.00    +0.000 C 
ATOM     16  C   UNL     1      35.126 -21.416 -19.849  0.00  0.00    +0.000 C 
ENDROOT
BRANCH  10  18
ATOM     17  O   UNL     1      35.749 -25.304 -14.186  0.00  0.00    -0.245 OA
ATOM     18  C   UNL     1      35.500 -24.096 -14.308  0.00  0.00    +0.343 C 
BRANCH  18  19
ATOM     19  O   UNL     1      35.840 -23.148 -13.383  0.00  0.00    -0.433 OA
BRANCH  19  20
ATOM     20  C   UNL     1      35.986 -23.590 -12.029  0.00  0.00    +0.317 C 
BRANCH  20  22
ATOM     21  O   UNL     1      38.024 -24.687 -11.289  0.00  0.00    -0.246 OA
ATOM     22  C   UNL     1      37.446 -23.684 -11.679  0.00  0.00    +0.359 C 
BRANCH  22  23
ATOM     23  O   UNL     1      38.049 -22.482 -11.859  0.00  0.00    -0.478 OA
ATOM     24  H   UNL     1      38.147 -21.894 -11.136  0.00  0.00    +0.295 HD
ENDBRANCH  22  23
ENDBRANCH  20  22
ENDBRANCH  19  20
ENDBRANCH  18  19
ENDBRANCH  10  18
BRANCH   5  25
ATOM     25  C   UNL     1      29.625 -23.572 -14.669  0.00  0.00    +0.228 C 
BRANCH  25  27
ATOM     26  O   UNL     1      28.268 -24.818 -16.218  0.00  0.00    -0.248 OA
ATOM     27  C   UNL     1      28.945 -24.809 -15.198  0.00  0.00    +0.336 C 
BRANCH  27  28
ATOM     28  O   UNL     1      29.154 -25.909 -14.437  0.00  0.00    -0.479 OA
ATOM     29  H   UNL     1      29.916 -26.437 -14.575  0.00  0.00    +0.295 HD
ENDBRANCH  27  28
ENDBRANCH  25  27
ENDBRANCH   5  25
TORSDOF 8
ENDMDL
MODEL 6
REMARK VINA RESULT:      -9.5      2.689      4.940
REMARK  Name = 11494891
REMARK  8 active torsions:
REMARK  status: ('A' for Active; 'I' for Inactive)
REMARK    1  A    between atoms: N_5  and  C_25
REMARK    2  A    between atoms: C_10  and  C_18
REMARK    3  A    between atoms: C_18  and  O_19
REMARK    4  A    between atoms: O_19  and  C_20
REMARK    5  A    between atoms: C_20  and  C_22
REMARK    6  A    between atoms: C_22  and  O_23
REMARK    7  A    between atoms: C_25  and  C_27
REMARK    8  A    between atoms: C_27  and  O_28
REMARK                            x       y       z     vdW  Elec       q    Type
REMARK                         _______ _______ _______ _____ _____    ______ ____
ROOT
ATOM      1  S   UNL     1      36.392 -23.616 -14.904  0.00  0.00    +0.080 S 
ATOM      2  O   UNL     1      36.895 -22.263 -14.801  0.00  0.00    -0.150 OA
ATOM      3  O   UNL     1      37.040 -24.651 -15.679  0.00  0.00    -0.150 OA
ATOM      4  O   UNL     1      34.076 -24.796 -12.092  0.00  0.00    -0.268 OA
ATOM      5  N   UNL     1      35.978 -24.211 -13.355  0.00  0.00    -0.145 N 
ATOM      6  C   UNL     1      34.715 -23.545 -15.371  0.00  0.00    +0.136 C 
ATOM      7  C   UNL     1      33.846 -23.973 -14.359  0.00  0.00    +0.074 C 
ATOM      8  C   UNL     1      32.453 -23.975 -14.579  0.00  0.00    +0.006 C 
ATOM      9  C   UNL     1      34.573 -24.384 -13.124  0.00  0.00    +0.269 C 
ATOM     10  C   UNL     1      34.287 -23.116 -16.607  0.00  0.00    +0.095 C 
ATOM     11  C   UNL     1      31.996 -23.533 -15.854  0.00  0.00    +0.000 C 
ATOM     12  C   UNL     1      32.915 -23.113 -16.841  0.00  0.00    +0.008 C 
ATOM     13  C   UNL     1      31.486 -24.382 -13.632  0.00  0.00    +0.000 C 
ATOM     14  C   UNL     1      30.619 -23.514 -16.129  0.00  0.00    +0.000 C 
ATOM     15  C   UNL     1      30.122 -24.354 -13.929  0.00  0.00    +0.000 C 
ATOM     16  C   UNL     1      29.689 -23.921 -15.174  0.00  0.00    +0.000 C 
ENDROOT
BRANCH  10  18
ATOM     17  O   UNL     1      36.292 -22.136 -17.445  0.00  0.00    -0.245 OA
ATOM     18  C   UNL     1      35.196 -22.674 -17.652  0.00  0.00    +0.343 C 
BRANCH  18  19
ATOM     19  O   UNL     1      34.693 -22.928 -18.898  0.00  0.00    -0.433 OA
BRANCH  19  20
ATOM     20  C   UNL     1      35.035 -22.003 -19.935  0.00  0.00    +0.317 C 
BRANCH  20  22
ATOM     21  O   UNL     1      32.863 -20.945 -19.669  0.00  0.00    -0.246 OA
ATOM     22  C   UNL     1      34.050 -20.866 -19.948  0.00  0.00    +0.359 C 
BRANCH  22  23
ATOM     23  O   UNL     1      34.667 -19.716 -20.319  0.00  0.00    -0.478 OA
ATOM     24  H   UNL     1      34.556 -18.939 -19.808  0.00  0.00    +0.295 HD
ENDBRANCH  22  23
ENDBRANCH  20  22
ENDBRANCH  19  20
ENDBRANCH  18  19
ENDBRANCH  10  18
BRANCH   5  25
ATOM     25  C   UNL     1      36.990 -24.524 -12.335  0.00  0.00    +0.228 C 
BRANCH  25  27
ATOM     26  O   UNL     1      37.453 -22.432 -11.240  0.00  0.00    -0.248 OA
ATOM     27  C   UNL     1      36.976 -23.558 -11.178  0.00  0.00    +0.336 C 
BRANCH  27  28
ATOM     28  O   UNL     1      36.387 -24.054 -10.065  0.00  0.00    -0.479 OA
ATOM     29  H   UNL     1      36.860 -24.640  -9.507  0.00  0.00    +0.295 HD
ENDBRANCH  27  28
ENDBRANCH  25  27
ENDBRANCH   5  25
TORSDOF 8
ENDMDL
MODEL 7
REMARK VINA RESULT:      -8.9      2.020      2.788
REMARK  Name = 11494891
REMARK  8 active torsions:
REMARK  status: ('A' for Active; 'I' for Inactive)
REMARK    1  A    between atoms: N_5  and  C_25
REMARK    2  A    between atoms: C_10  and  C_18
REMARK    3  A    between atoms: C_18  and  O_19
REMARK    4  A    between atoms: O_19  and  C_20
REMARK    5  A    between atoms: C_20  and  C_22
REMARK    6  A    between atoms: C_22  and  O_23
REMARK    7  A    between atoms: C_25  and  C_27
REMARK    8  A    between atoms: C_27  and  O_28
REMARK                            x       y       z     vdW  Elec       q    Type
REMARK                         _______ _______ _______ _____ _____    ______ ____
ROOT
ATOM      1  S   UNL     1      35.849 -24.176 -13.353  0.00  0.00    +0.080 S 
ATOM      2  O   UNL     1      35.675 -25.610 -13.264  0.00  0.00    -0.150 OA
ATOM      3  O   UNL     1      35.512 -23.264 -12.282  0.00  0.00    -0.150 OA
ATOM      4  O   UNL     1      38.400 -22.921 -15.918  0.00  0.00    -0.268 OA
ATOM      5  N   UNL     1      37.397 -23.807 -13.978  0.00  0.00    -0.145 N 
ATOM      6  C   UNL     1      35.080 -23.618 -14.814  0.00  0.00    +0.136 C 
ATOM      7  C   UNL     1      35.992 -23.153 -15.769  0.00  0.00    +0.074 C 
ATOM      8  C   UNL     1      35.529 -22.668 -17.009  0.00  0.00    +0.006 C 
ATOM      9  C   UNL     1      37.404 -23.250 -15.300  0.00  0.00    +0.269 C 
ATOM     10  C   UNL     1      33.718 -23.632 -15.010  0.00  0.00    +0.095 C 
ATOM     11  C   UNL     1      34.122 -22.676 -17.226  0.00  0.00    +0.000 C 
ATOM     12  C   UNL     1      33.244 -23.155 -16.228  0.00  0.00    +0.008 C 
ATOM     13  C   UNL     1      36.357 -22.178 -18.045  0.00  0.00    +0.000 C 
ATOM     14  C   UNL     1      33.603 -22.204 -18.443  0.00  0.00    +0.000 C 
ATOM     15  C   UNL     1      35.819 -21.713 -19.247  0.00  0.00    +0.000 C 
ATOM     16  C   UNL     1      34.445 -21.727 -19.446  0.00  0.00    +0.000 C 
ENDROOT
BRANCH  10  18
ATOM     17  O   UNL     1      32.665 -23.649 -12.870  0.00  0.00    -0.245 OA
ATOM     18  C   UNL     1      32.777 -24.117 -14.012  0.00  0.00    +0.343 C 
BRANCH  18  19
ATOM     19  O   UNL     1      32.026 -25.154 -14.490  0.00  0.00    -0.433 OA
BRANCH  19  20
ATOM     20  C   UNL     1      30.739 -25.349 -13.894  0.00  0.00    +0.317 C 
BRANCH  20  22
ATOM     21  O   UNL     1      28.467 -24.953 -14.661  0.00  0.00    -0.246 OA
ATOM     22  C   UNL     1      29.662 -25.041 -14.898  0.00  0.00    +0.359 C 
BRANCH  22  23
ATOM     23  O   UNL     1      30.205 -24.871 -16.130  0.00  0.00    -0.478 OA
ATOM     24  H   UNL     1      30.696 -24.097 -16.322  0.00  0.00    +0.295 HD
ENDBRANCH  22  23
ENDBRANCH  20  22
ENDBRANCH  19  20
ENDBRANCH  18  19
ENDBRANCH  10  18
BRANCH   5  25
ATOM     25  C   UNL     1      38.632 -24.042 -13.213  0.00  0.00    +0.228 C 
BRANCH  25  27
ATOM     26  O   UNL     1      40.603 -25.127 -14.067  0.00  0.00    -0.248 OA
ATOM     27  C   UNL     1      39.429 -25.212 -13.731  0.00  0.00    +0.336 C 
BRANCH  27  28
ATOM     28  O   UNL     1      38.722 -26.365 -13.792  0.00  0.00    -0.479 OA
ATOM     29  H   UNL     1      38.883 -26.978 -14.482  0.00  0.00    +0.295 HD
ENDBRANCH  27  28
ENDBRANCH  25  27
ENDBRANCH   5  25
TORSDOF 8
ENDMDL
MODEL 8
REMARK VINA RESULT:      -8.8      2.796      6.875
REMARK  Name = 11494891
REMARK  8 active torsions:
REMARK  status: ('A' for Active; 'I' for Inactive)
REMARK    1  A    between atoms: N_5  and  C_25
REMARK    2  A    between atoms: C_10  and  C_18
REMARK    3  A    between atoms: C_18  and  O_19
REMARK    4  A    between atoms: O_19  and  C_20
REMARK    5  A    between atoms: C_20  and  C_22
REMARK    6  A    between atoms: C_22  and  O_23
REMARK    7  A    between atoms: C_25  and  C_27
REMARK    8  A    between atoms: C_27  and  O_28
REMARK                            x       y       z     vdW  Elec       q    Type
REMARK                         _______ _______ _______ _____ _____    ______ ____
ROOT
ATOM      1  S   UNL     1      36.346 -23.191 -15.662  0.00  0.00    +0.080 S 
ATOM      2  O   UNL     1      37.017 -24.471 -15.751  0.00  0.00    -0.150 OA
ATOM      3  O   UNL     1      36.922 -22.032 -15.016  0.00  0.00    -0.150 OA
ATOM      4  O   UNL     1      33.615 -22.510 -18.258  0.00  0.00    -0.268 OA
ATOM      5  N   UNL     1      35.698 -22.757 -17.184  0.00  0.00    -0.145 N 
ATOM      6  C   UNL     1      34.751 -23.450 -15.010  0.00  0.00    +0.136 C 
ATOM      7  C   UNL     1      33.733 -23.207 -15.941  0.00  0.00    +0.074 C 
ATOM      8  C   UNL     1      32.383 -23.373 -15.569  0.00  0.00    +0.006 C 
ATOM      9  C   UNL     1      34.267 -22.785 -17.268  0.00  0.00    +0.269 C 
ATOM     10  C   UNL     1      34.515 -23.851 -13.714  0.00  0.00    +0.095 C 
ATOM     11  C   UNL     1      32.123 -23.788 -14.231  0.00  0.00    +0.000 C 
ATOM     12  C   UNL     1      33.187 -24.018 -13.331  0.00  0.00    +0.008 C 
ATOM     13  C   UNL     1      31.278 -23.160 -16.424  0.00  0.00    +0.000 C 
ATOM     14  C   UNL     1      30.797 -23.969 -13.806  0.00  0.00    +0.000 C 
ATOM     15  C   UNL     1      29.968 -23.346 -15.978  0.00  0.00    +0.000 C 
ATOM     16  C   UNL     1      29.728 -23.751 -14.672  0.00  0.00    +0.000 C 
ENDROOT
BRANCH  10  18
ATOM     17  O   UNL     1      36.069 -23.238 -12.013  0.00  0.00    -0.245 OA
ATOM     18  C   UNL     1      35.578 -24.101 -12.754  0.00  0.00    +0.343 C 
BRANCH  18  19
ATOM     19  O   UNL     1      35.971 -25.411 -12.767  0.00  0.00    -0.433 OA
BRANCH  19  20
ATOM     20  C   UNL     1      37.227 -25.715 -12.151  0.00  0.00    +0.317 C 
BRANCH  20  22
ATOM     21  O   UNL     1      38.733 -26.535 -13.872  0.00  0.00    -0.246 OA
ATOM     22  C   UNL     1      38.329 -25.621 -13.170  0.00  0.00    +0.359 C 
BRANCH  22  23
ATOM     23  O   UNL     1      38.826 -24.359 -13.207  0.00  0.00    -0.478 OA
ATOM     24  H   UNL     1      39.692 -24.188 -12.894  0.00  0.00    +0.295 HD
ENDBRANCH  22  23
ENDBRANCH  20  22
ENDBRANCH  19  20
ENDBRANCH  18  19
ENDBRANCH  10  18
BRANCH   5  25
ATOM     25  C   UNL     1      36.549 -22.382 -18.324  0.00  0.00    +0.228 C 
BRANCH  25  27
ATOM     26  O   UNL     1      36.473 -20.238 -19.415  0.00  0.00    -0.248 OA
ATOM     27  C   UNL     1      36.771 -20.894 -18.425  0.00  0.00    +0.336 C 
BRANCH  27  28
ATOM     28  O   UNL     1      37.334 -20.355 -17.319  0.00  0.00    -0.479 OA
ATOM     29  H   UNL     1      38.256 -20.440 -17.174  0.00  0.00    +0.295 HD
ENDBRANCH  27  28
ENDBRANCH  25  27
ENDBRANCH   5  25
TORSDOF 8
ENDMDL
MODEL 9
REMARK VINA RESULT:      -8.7      1.601      2.079
REMARK  Name = 11494891
REMARK  8 active torsions:
REMARK  status: ('A' for Active; 'I' for Inactive)
REMARK    1  A    between atoms: N_5  and  C_25
REMARK    2  A    between atoms: C_10  and  C_18
REMARK    3  A    between atoms: C_18  and  O_19
REMARK    4  A    between atoms: O_19  and  C_20
REMARK    5  A    between atoms: C_20  and  C_22
REMARK    6  A    between atoms: C_22  and  O_23
REMARK    7  A    between atoms: C_25  and  C_27
REMARK    8  A    between atoms: C_27  and  O_28
REMARK                            x       y       z     vdW  Elec       q    Type
REMARK                         _______ _______ _______ _____ _____    ______ ____
ROOT
ATOM      1  S   UNL     1      34.039 -24.039 -14.111  0.00  0.00    +0.080 S 
ATOM      2  O   UNL     1      33.787 -25.461 -14.213  0.00  0.00    -0.150 OA
ATOM      3  O   UNL     1      33.302 -23.160 -13.230  0.00  0.00    -0.150 OA
ATOM      4  O   UNL     1      37.506 -22.835 -15.204  0.00  0.00    -0.268 OA
ATOM      5  N   UNL     1      35.718 -23.745 -13.967  0.00  0.00    -0.145 N 
ATOM      6  C   UNL     1      34.015 -23.359 -15.715  0.00  0.00    +0.136 C 
ATOM      7  C   UNL     1      35.272 -22.911 -16.139  0.00  0.00    +0.074 C 
ATOM      8  C   UNL     1      35.422 -22.335 -17.417  0.00  0.00    +0.006 C 
ATOM      9  C   UNL     1      36.328 -23.126 -15.109  0.00  0.00    +0.269 C 
ATOM     10  C   UNL     1      32.878 -23.271 -16.487  0.00  0.00    +0.095 C 
ATOM     11  C   UNL     1      34.254 -22.237 -18.227  0.00  0.00    +0.000 C 
ATOM     12  C   UNL     1      33.009 -22.704 -17.751  0.00  0.00    +0.008 C 
ATOM     13  C   UNL     1      36.639 -21.852 -17.948  0.00  0.00    +0.000 C 
ATOM     14  C   UNL     1      34.344 -21.671 -19.509  0.00  0.00    +0.000 C 
ATOM     15  C   UNL     1      36.704 -21.294 -19.227  0.00  0.00    +0.000 C 
ATOM     16  C   UNL     1      35.559 -21.204 -20.006  0.00  0.00    +0.000 C 
ENDROOT
BRANCH  10  18
ATOM     17  O   UNL     1      31.062 -24.812 -16.382  0.00  0.00    -0.245 OA
ATOM     18  C   UNL     1      31.577 -23.739 -16.039  0.00  0.00    +0.343 C 
BRANCH  18  19
ATOM     19  O   UNL     1      30.987 -22.847 -15.186  0.00  0.00    -0.433 OA
BRANCH  19  20
ATOM     20  C   UNL     1      29.865 -23.319 -14.431  0.00  0.00    +0.317 C 
BRANCH  20  22
ATOM     21  O   UNL     1      30.354 -23.594 -12.067  0.00  0.00    -0.246 OA
ATOM     22  C   UNL     1      30.346 -24.042 -13.203  0.00  0.00    +0.359 C 
BRANCH  22  23
ATOM     23  O   UNL     1      30.779 -25.285 -13.531  0.00  0.00    -0.478 OA
ATOM     24  H   UNL     1      31.105 -25.456 -14.392  0.00  0.00    +0.295 HD
ENDBRANCH  22  23
ENDBRANCH  20  22
ENDBRANCH  19  20
ENDBRANCH  18  19
ENDBRANCH  10  18
BRANCH   5  25
ATOM     25  C   UNL     1      36.480 -24.101 -12.761  0.00  0.00    +0.228 C 
BRANCH  25  27
ATOM     26  O   UNL     1      37.753 -25.972 -11.941  0.00  0.00    -0.248 OA
ATOM     27  C   UNL     1      36.991 -25.519 -12.786  0.00  0.00    +0.336 C 
BRANCH  27  28
ATOM     28  O   UNL     1      36.529 -26.243 -13.832  0.00  0.00    -0.479 OA
ATOM     29  H   UNL     1      36.021 -25.827 -14.501  0.00  0.00    +0.295 HD
ENDBRANCH  27  28
ENDBRANCH  25  27
ENDBRANCH   5  25
TORSDOF 8
ENDMDL
