MODEL 1
REMARK VINA RESULT:      -8.3      0.000      0.000
REMARK  Name = 4911
REMARK  8 active torsions:
REMARK  status: ('A' for Active; 'I' for Inactive)
REMARK    1  A    between atoms: S_1  and  C_4
REMARK    2  A    between atoms: S_1  and  N_14
REMARK    3  A    between atoms: C_9  and  C_11
REMARK    4  A    between atoms: C_11  and  O_12
REMARK    5  A    between atoms: N_14  and  C_15
REMARK    6  A    between atoms: N_14  and  C_18
REMARK    7  A    between atoms: C_15  and  C_16
REMARK    8  A    between atoms: C_18  and  C_19
REMARK                            x       y       z     vdW  Elec       q    Type
REMARK                         _______ _______ _______ _____ _____    ______ ____
ROOT
ATOM      1  S   UNL     1      35.499 -18.448 -22.709  0.00  0.00    +0.063 S 
ATOM      2  O   UNL     1      36.936 -18.355 -22.525  0.00  0.00    -0.153 OA
ATOM      3  O   UNL     1      34.970 -18.882 -23.991  0.00  0.00    -0.153 OA
ENDROOT
BRANCH   1   4
ATOM      4  C   UNL     1      34.884 -19.568 -21.482  0.00  0.00    +0.122 C 
ATOM      5  C   UNL     1      35.782 -20.320 -20.748  0.00  0.00    +0.020 C 
ATOM      6  C   UNL     1      33.519 -19.666 -21.285  0.00  0.00    +0.020 C 
ATOM      7  C   UNL     1      35.298 -21.202 -19.781  0.00  0.00    +0.008 C 
ATOM      8  C   UNL     1      33.035 -20.547 -20.318  0.00  0.00    +0.008 C 
ATOM      9  C   UNL     1      33.924 -21.315 -19.567  0.00  0.00    +0.076 C 
BRANCH   9  11
ATOM     10  O   UNL     1      32.235 -22.359 -18.232  0.00  0.00    -0.245 OA
ATOM     11  C   UNL     1      33.420 -22.234 -18.559  0.00  0.00    +0.338 C 
BRANCH  11  12
ATOM     12  O   UNL     1      34.409 -22.973 -17.987  0.00  0.00    -0.477 OA
ATOM     13  H   UNL     1      35.204 -22.559 -17.711  0.00  0.00    +0.295 HD
ENDBRANCH  11  12
ENDBRANCH   9  11
ENDBRANCH   1   4
BRANCH   1  14
ATOM     14  N   UNL     1      34.764 -16.955 -22.259  0.00  0.00    -0.156 NA
BRANCH  14  15
ATOM     15  C   UNL     1      34.800 -16.570 -20.825  0.00  0.00    +0.096 C 
BRANCH  15  16
ATOM     16  C   UNL     1      34.335 -15.126 -20.653  0.00  0.00    +0.019 C 
ATOM     17  C   UNL     1      32.838 -15.054 -20.392  0.00  0.00    +0.002 C 
ENDBRANCH  15  16
ENDBRANCH  14  15
BRANCH  14  18
ATOM     18  C   UNL     1      34.964 -15.787 -23.154  0.00  0.00    +0.096 C 
BRANCH  18  19
ATOM     19  C   UNL     1      33.820 -15.688 -24.160  0.00  0.00    +0.019 C 
ATOM     20  C   UNL     1      33.243 -14.281 -24.206  0.00  0.00    +0.002 C 
ENDBRANCH  18  19
ENDBRANCH  14  18
ENDBRANCH   1  14
TORSDOF 8
ENDMDL
MODEL 2
REMARK VINA RESULT:      -7.6      0.366      1.938
REMARK  Name = 4911
REMARK  8 active torsions:
REMARK  status: ('A' for Active; 'I' for Inactive)
REMARK    1  A    between atoms: S_1  and  C_4
REMARK    2  A    between atoms: S_1  and  N_14
REMARK    3  A    between atoms: C_9  and  C_11
REMARK    4  A    between atoms: C_11  and  O_12
REMARK    5  A    between atoms: N_14  and  C_15
REMARK    6  A    between atoms: N_14  and  C_18
REMARK    7  A    between atoms: C_15  and  C_16
REMARK    8  A    between atoms: C_18  and  C_19
REMARK                            x       y       z     vdW  Elec       q    Type
REMARK                         _______ _______ _______ _____ _____    ______ ____
ROOT
ATOM      1  S   UNL     1      35.686 -18.375 -22.694  0.00  0.00    +0.063 S 
ATOM      2  O   UNL     1      37.118 -18.291 -22.476  0.00  0.00    -0.153 OA
ATOM      3  O   UNL     1      35.185 -18.800 -23.989  0.00  0.00    -0.153 OA
ENDROOT
BRANCH   1   4
ATOM      4  C   UNL     1      35.036 -19.497 -21.486  0.00  0.00    +0.122 C 
ATOM      5  C   UNL     1      35.912 -20.197 -20.679  0.00  0.00    +0.020 C 
ATOM      6  C   UNL     1      33.666 -19.647 -21.377  0.00  0.00    +0.020 C 
ATOM      7  C   UNL     1      35.400 -21.080 -19.728  0.00  0.00    +0.008 C 
ATOM      8  C   UNL     1      33.154 -20.530 -20.426  0.00  0.00    +0.008 C 
ATOM      9  C   UNL     1      34.021 -21.246 -19.603  0.00  0.00    +0.076 C 
BRANCH   9  11
ATOM     10  O   UNL     1      32.292 -22.306 -18.333  0.00  0.00    -0.245 OA
ATOM     11  C   UNL     1      33.488 -22.167 -18.611  0.00  0.00    +0.338 C 
BRANCH  11  12
ATOM     12  O   UNL     1      34.462 -22.888 -17.993  0.00  0.00    -0.477 OA
ATOM     13  H   UNL     1      34.729 -22.667 -17.122  0.00  0.00    +0.295 HD
ENDBRANCH  11  12
ENDBRANCH   9  11
ENDBRANCH   1   4
BRANCH   1  14
ATOM     14  N   UNL     1      34.949 -16.879 -22.254  0.00  0.00    -0.156 NA
BRANCH  14  15
ATOM     15  C   UNL     1      33.857 -16.364 -23.119  0.00  0.00    +0.096 C 
BRANCH  15  16
ATOM     16  C   UNL     1      34.395 -15.305 -24.077  0.00  0.00    +0.019 C 
ATOM     17  C   UNL     1      33.312 -14.315 -24.474  0.00  0.00    +0.002 C 
ENDBRANCH  15  16
ENDBRANCH  14  15
BRANCH  14  18
ATOM     18  C   UNL     1      34.679 -16.637 -20.815  0.00  0.00    +0.096 C 
BRANCH  18  19
ATOM     19  C   UNL     1      34.384 -15.159 -20.571  0.00  0.00    +0.019 C 
ATOM     20  C   UNL     1      32.906 -14.927 -20.294  0.00  0.00    +0.002 C 
ENDBRANCH  18  19
ENDBRANCH  14  18
ENDBRANCH   1  14
TORSDOF 8
ENDMDL
MODEL 3
REMARK VINA RESULT:      -7.6      1.539      2.394
REMARK  Name = 4911
REMARK  8 active torsions:
REMARK  status: ('A' for Active; 'I' for Inactive)
REMARK    1  A    between atoms: S_1  and  C_4
REMARK    2  A    between atoms: S_1  and  N_14
REMARK    3  A    between atoms: C_9  and  C_11
REMARK    4  A    between atoms: C_11  and  O_12
REMARK    5  A    between atoms: N_14  and  C_15
REMARK    6  A    between atoms: N_14  and  C_18
REMARK    7  A    between atoms: C_15  and  C_16
REMARK    8  A    between atoms: C_18  and  C_19
REMARK                            x       y       z     vdW  Elec       q    Type
REMARK                         _______ _______ _______ _____ _____    ______ ____
ROOT
ATOM      1  S   UNL     1      35.506 -17.502 -21.666  0.00  0.00    +0.063 S 
ATOM      2  O   UNL     1      35.420 -16.482 -20.636  0.00  0.00    -0.153 OA
ATOM      3  O   UNL     1      36.790 -17.791 -22.279  0.00  0.00    -0.153 OA
ENDROOT
BRANCH   1   4
ATOM      4  C   UNL     1      34.911 -19.013 -20.958  0.00  0.00    +0.122 C 
ATOM      5  C   UNL     1      35.821 -19.935 -20.476  0.00  0.00    +0.020 C 
ATOM      6  C   UNL     1      33.548 -19.239 -20.903  0.00  0.00    +0.020 C 
ATOM      7  C   UNL     1      35.352 -21.124 -19.919  0.00  0.00    +0.008 C 
ATOM      8  C   UNL     1      33.078 -20.428 -20.346  0.00  0.00    +0.008 C 
ATOM      9  C   UNL     1      33.981 -21.371 -19.854  0.00  0.00    +0.076 C 
BRANCH   9  11
ATOM     10  O   UNL     1      33.924 -23.740 -19.527  0.00  0.00    -0.245 OA
ATOM     11  C   UNL     1      33.492 -22.611 -19.273  0.00  0.00    +0.338 C 
BRANCH  11  12
ATOM     12  O   UNL     1      32.478 -22.408 -18.389  0.00  0.00    -0.477 OA
ATOM     13  H   UNL     1      32.664 -22.090 -17.526  0.00  0.00    +0.295 HD
ENDBRANCH  11  12
ENDBRANCH   9  11
ENDBRANCH   1   4
BRANCH   1  14
ATOM     14  N   UNL     1      34.341 -17.177 -22.895  0.00  0.00    -0.156 NA
BRANCH  14  15
ATOM     15  C   UNL     1      33.524 -15.944 -22.766  0.00  0.00    +0.096 C 
BRANCH  15  16
ATOM     16  C   UNL     1      33.961 -14.908 -23.798  0.00  0.00    +0.019 C 
ATOM     17  C   UNL     1      33.308 -13.559 -23.539  0.00  0.00    +0.002 C 
ENDBRANCH  15  16
ENDBRANCH  14  15
BRANCH  14  18
ATOM     18  C   UNL     1      34.729 -17.442 -24.303  0.00  0.00    +0.096 C 
BRANCH  18  19
ATOM     19  C   UNL     1      34.050 -18.712 -24.810  0.00  0.00    +0.019 C 
ATOM     20  C   UNL     1      34.945 -19.929 -24.632  0.00  0.00    +0.002 C 
ENDBRANCH  18  19
ENDBRANCH  14  18
ENDBRANCH   1  14
TORSDOF 8
ENDMDL
MODEL 4
REMARK VINA RESULT:      -7.3      3.229      7.314
REMARK  Name = 4911
REMARK  8 active torsions:
REMARK  status: ('A' for Active; 'I' for Inactive)
REMARK    1  A    between atoms: S_1  and  C_4
REMARK    2  A    between atoms: S_1  and  N_14
REMARK    3  A    between atoms: C_9  and  C_11
REMARK    4  A    between atoms: C_11  and  O_12
REMARK    5  A    between atoms: N_14  and  C_15
REMARK    6  A    between atoms: N_14  and  C_18
REMARK    7  A    between atoms: C_15  and  C_16
REMARK    8  A    between atoms: C_18  and  C_19
REMARK                            x       y       z     vdW  Elec       q    Type
REMARK                         _______ _______ _______ _____ _____    ______ ____
ROOT
ATOM      1  S   UNL     1      33.710 -22.674 -18.743  0.00  0.00    +0.063 S 
ATOM      2  O   UNL     1      32.325 -22.448 -18.371  0.00  0.00    -0.153 OA
ATOM      3  O   UNL     1      34.059 -23.856 -19.511  0.00  0.00    -0.153 OA
ENDROOT
BRANCH   1   4
ATOM      4  C   UNL     1      34.237 -21.265 -19.679  0.00  0.00    +0.122 C 
ATOM      5  C   UNL     1      33.287 -20.391 -20.173  0.00  0.00    +0.020 C 
ATOM      6  C   UNL     1      35.588 -21.070 -19.896  0.00  0.00    +0.020 C 
ATOM      7  C   UNL     1      33.702 -19.282 -20.909  0.00  0.00    +0.008 C 
ATOM      8  C   UNL     1      36.005 -19.961 -20.632  0.00  0.00    +0.008 C 
ATOM      9  C   UNL     1      35.061 -19.068 -21.139  0.00  0.00    +0.076 C 
BRANCH   9  11
ATOM     10  O   UNL     1      35.124 -16.747 -21.720  0.00  0.00    -0.245 OA
ATOM     11  C   UNL     1      35.494 -17.911 -21.907  0.00  0.00    +0.338 C 
BRANCH  11  12
ATOM     12  O   UNL     1      36.378 -18.239 -22.889  0.00  0.00    -0.477 OA
ATOM     13  H   UNL     1      36.704 -19.116 -22.952  0.00  0.00    +0.295 HD
ENDBRANCH  11  12
ENDBRANCH   9  11
ENDBRANCH   1   4
BRANCH   1  14
ATOM     14  N   UNL     1      34.704 -22.586 -17.337  0.00  0.00    -0.156 NA
BRANCH  14  15
ATOM     15  C   UNL     1      34.497 -23.606 -16.277  0.00  0.00    +0.096 C 
BRANCH  15  16
ATOM     16  C   UNL     1      33.446 -23.126 -15.279  0.00  0.00    +0.019 C 
ATOM     17  C   UNL     1      33.219 -24.151 -14.179  0.00  0.00    +0.002 C 
ENDBRANCH  15  16
ENDBRANCH  14  15
BRANCH  14  18
ATOM     18  C   UNL     1      36.141 -22.264 -17.524  0.00  0.00    +0.096 C 
BRANCH  18  19
ATOM     19  C   UNL     1      36.806 -22.003 -16.175  0.00  0.00    +0.019 C 
ATOM     20  C   UNL     1      37.956 -22.968 -15.928  0.00  0.00    +0.002 C 
ENDBRANCH  18  19
ENDBRANCH  14  18
ENDBRANCH   1  14
TORSDOF 8
ENDMDL
MODEL 5
REMARK VINA RESULT:      -7.3      8.196     10.487
REMARK  Name = 4911
REMARK  8 active torsions:
REMARK  status: ('A' for Active; 'I' for Inactive)
REMARK    1  A    between atoms: S_1  and  C_4
REMARK    2  A    between atoms: S_1  and  N_14
REMARK    3  A    between atoms: C_9  and  C_11
REMARK    4  A    between atoms: C_11  and  O_12
REMARK    5  A    between atoms: N_14  and  C_15
REMARK    6  A    between atoms: N_14  and  C_18
REMARK    7  A    between atoms: C_15  and  C_16
REMARK    8  A    between atoms: C_18  and  C_19
REMARK                            x       y       z     vdW  Elec       q    Type
REMARK                         _______ _______ _______ _____ _____    ______ ____
ROOT
ATOM      1  S   UNL     1      35.279 -24.182 -12.543  0.00  0.00    +0.063 S 
ATOM      2  O   UNL     1      34.797 -25.164 -11.589  0.00  0.00    -0.153 OA
ATOM      3  O   UNL     1      35.516 -22.818 -12.106  0.00  0.00    -0.153 OA
ENDROOT
BRANCH   1   4
ATOM      4  C   UNL     1      36.806 -24.795 -13.200  0.00  0.00    +0.122 C 
ATOM      5  C   UNL     1      36.773 -25.714 -14.233  0.00  0.00    +0.020 C 
ATOM      6  C   UNL     1      37.998 -24.342 -12.666  0.00  0.00    +0.020 C 
ATOM      7  C   UNL     1      37.975 -26.196 -14.750  0.00  0.00    +0.008 C 
ATOM      8  C   UNL     1      39.200 -24.825 -13.183  0.00  0.00    +0.008 C 
ATOM      9  C   UNL     1      39.188 -25.752 -14.224  0.00  0.00    +0.076 C 
BRANCH   9  11
ATOM     10  O   UNL     1      41.314 -26.846 -14.119  0.00  0.00    -0.245 OA
ATOM     11  C   UNL     1      40.442 -26.255 -14.764  0.00  0.00    +0.338 C 
BRANCH  11  12
ATOM     12  O   UNL     1      40.572 -26.007 -16.096  0.00  0.00    -0.477 OA
ATOM     13  H   UNL     1      40.548 -25.126 -16.413  0.00  0.00    +0.295 HD
ENDBRANCH  11  12
ENDBRANCH   9  11
ENDBRANCH   1   4
BRANCH   1  14
ATOM     14  N   UNL     1      34.250 -24.172 -13.927  0.00  0.00    -0.156 NA
BRANCH  14  15
ATOM     15  C   UNL     1      32.829 -24.557 -13.736  0.00  0.00    +0.096 C 
BRANCH  15  16
ATOM     16  C   UNL     1      31.948 -23.312 -13.665  0.00  0.00    +0.019 C 
ATOM     17  C   UNL     1      30.682 -23.482 -14.490  0.00  0.00    +0.002 C 
ENDBRANCH  15  16
ENDBRANCH  14  15
BRANCH  14  18
ATOM     18  C   UNL     1      34.399 -23.054 -14.892  0.00  0.00    +0.096 C 
BRANCH  18  19
ATOM     19  C   UNL     1      34.545 -23.596 -16.312  0.00  0.00    +0.019 C 
ATOM     20  C   UNL     1      33.360 -23.201 -17.180  0.00  0.00    +0.002 C 
ENDBRANCH  18  19
ENDBRANCH  14  18
ENDBRANCH   1  14
TORSDOF 8
ENDMDL
MODEL 6
REMARK VINA RESULT:      -7.2      2.599      6.326
REMARK  Name = 4911
REMARK  8 active torsions:
REMARK  status: ('A' for Active; 'I' for Inactive)
REMARK    1  A    between atoms: S_1  and  C_4
REMARK    2  A    between atoms: S_1  and  N_14
REMARK    3  A    between atoms: C_9  and  C_11
REMARK    4  A    between atoms: C_11  and  O_12
REMARK    5  A    between atoms: N_14  and  C_15
REMARK    6  A    between atoms: N_14  and  C_18
REMARK    7  A    between atoms: C_15  and  C_16
REMARK    8  A    between atoms: C_18  and  C_19
REMARK                            x       y       z     vdW  Elec       q    Type
REMARK                         _______ _______ _______ _____ _____    ______ ____
ROOT
ATOM      1  S   UNL     1      35.596 -18.504 -22.535  0.00  0.00    +0.063 S 
ATOM      2  O   UNL     1      35.014 -19.200 -23.669  0.00  0.00    -0.153 OA
ATOM      3  O   UNL     1      36.994 -18.117 -22.577  0.00  0.00    -0.153 OA
ENDROOT
BRANCH   1   4
ATOM      4  C   UNL     1      34.649 -17.028 -22.283  0.00  0.00    +0.122 C 
ATOM      5  C   UNL     1      34.382 -16.208 -23.362  0.00  0.00    +0.020 C 
ATOM      6  C   UNL     1      34.198 -16.729 -21.011  0.00  0.00    +0.020 C 
ATOM      7  C   UNL     1      33.637 -15.046 -23.163  0.00  0.00    +0.008 C 
ATOM      8  C   UNL     1      33.452 -15.567 -20.811  0.00  0.00    +0.008 C 
ATOM      9  C   UNL     1      33.173 -14.726 -21.888  0.00  0.00    +0.076 C 
BRANCH   9  11
ATOM     10  O   UNL     1      32.251 -12.931 -20.601  0.00  0.00    -0.245 OA
ATOM     11  C   UNL     1      32.395 -13.514 -21.680  0.00  0.00    +0.338 C 
BRANCH  11  12
ATOM     12  O   UNL     1      31.819 -13.063 -22.827  0.00  0.00    -0.477 OA
ATOM     13  H   UNL     1      31.880 -13.569 -23.614  0.00  0.00    +0.295 HD
ENDBRANCH  11  12
ENDBRANCH   9  11
ENDBRANCH   1   4
BRANCH   1  14
ATOM     14  N   UNL     1      35.289 -19.400 -21.094  0.00  0.00    -0.156 NA
BRANCH  14  15
ATOM     15  C   UNL     1      34.303 -20.509 -21.164  0.00  0.00    +0.096 C 
BRANCH  15  16
ATOM     16  C   UNL     1      33.084 -20.189 -20.304  0.00  0.00    +0.019 C 
ATOM     17  C   UNL     1      32.818 -21.288 -19.288  0.00  0.00    +0.002 C 
ENDBRANCH  15  16
ENDBRANCH  14  15
BRANCH  14  18
ATOM     18  C   UNL     1      36.448 -19.740 -20.231  0.00  0.00    +0.096 C 
BRANCH  18  19
ATOM     19  C   UNL     1      36.489 -21.243 -19.967  0.00  0.00    +0.019 C 
ATOM     20  C   UNL     1      36.560 -21.543 -18.477  0.00  0.00    +0.002 C 
ENDBRANCH  18  19
ENDBRANCH  14  18
ENDBRANCH   1  14
TORSDOF 8
ENDMDL
MODEL 7
REMARK VINA RESULT:      -7.2      3.265      7.344
REMARK  Name = 4911
REMARK  8 active torsions:
REMARK  status: ('A' for Active; 'I' for Inactive)
REMARK    1  A    between atoms: S_1  and  C_4
REMARK    2  A    between atoms: S_1  and  N_14
REMARK    3  A    between atoms: C_9  and  C_11
REMARK    4  A    between atoms: C_11  and  O_12
REMARK    5  A    between atoms: N_14  and  C_15
REMARK    6  A    between atoms: N_14  and  C_18
REMARK    7  A    between atoms: C_15  and  C_16
REMARK    8  A    between atoms: C_18  and  C_19
REMARK                            x       y       z     vdW  Elec       q    Type
REMARK                         _______ _______ _______ _____ _____    ______ ____
ROOT
ATOM      1  S   UNL     1      33.876 -22.781 -18.770  0.00  0.00    +0.063 S 
ATOM      2  O   UNL     1      32.558 -22.521 -18.217  0.00  0.00    -0.153 OA
ATOM      3  O   UNL     1      34.073 -23.932 -19.633  0.00  0.00    -0.153 OA
ENDROOT
BRANCH   1   4
ATOM      4  C   UNL     1      34.351 -21.346 -19.692  0.00  0.00    +0.122 C 
ATOM      5  C   UNL     1      35.691 -21.125 -19.949  0.00  0.00    +0.020 C 
ATOM      6  C   UNL     1      33.372 -20.476 -20.135  0.00  0.00    +0.020 C 
ATOM      7  C   UNL     1      36.065 -19.994 -20.676  0.00  0.00    +0.008 C 
ATOM      8  C   UNL     1      33.745 -19.346 -20.861  0.00  0.00    +0.008 C 
ATOM      9  C   UNL     1      35.092 -19.105 -21.131  0.00  0.00    +0.076 C 
BRANCH   9  11
ATOM     10  O   UNL     1      35.142 -16.766 -21.634  0.00  0.00    -0.245 OA
ATOM     11  C   UNL     1      35.482 -17.926 -21.889  0.00  0.00    +0.338 C 
BRANCH  11  12
ATOM     12  O   UNL     1      36.288 -18.229 -22.943  0.00  0.00    -0.477 OA
ATOM     13  H   UNL     1      36.891 -18.944 -22.882  0.00  0.00    +0.295 HD
ENDBRANCH  11  12
ENDBRANCH   9  11
ENDBRANCH   1   4
BRANCH   1  14
ATOM     14  N   UNL     1      35.037 -22.812 -17.495  0.00  0.00    -0.156 NA
BRANCH  14  15
ATOM     15  C   UNL     1      36.252 -21.972 -17.644  0.00  0.00    +0.096 C 
BRANCH  15  16
ATOM     16  C   UNL     1      36.947 -21.801 -16.296  0.00  0.00    +0.019 C 
ATOM     17  C   UNL     1      37.944 -22.921 -16.042  0.00  0.00    +0.002 C 
ENDBRANCH  15  16
ENDBRANCH  14  15
BRANCH  14  18
ATOM     18  C   UNL     1      34.532 -22.817 -16.099  0.00  0.00    +0.096 C 
BRANCH  18  19
ATOM     19  C   UNL     1      34.396 -24.250 -15.590  0.00  0.00    +0.019 C 
ATOM     20  C   UNL     1      34.985 -24.401 -14.195  0.00  0.00    +0.002 C 
ENDBRANCH  18  19
ENDBRANCH  14  18
ENDBRANCH   1  14
TORSDOF 8
ENDMDL
MODEL 8
REMARK VINA RESULT:      -7.1      2.303      3.487
REMARK  Name = 4911
REMARK  8 active torsions:
REMARK  status: ('A' for Active; 'I' for Inactive)
REMARK    1  A    between atoms: S_1  and  C_4
REMARK    2  A    between atoms: S_1  and  N_14
REMARK    3  A    between atoms: C_9  and  C_11
REMARK    4  A    between atoms: C_11  and  O_12
REMARK    5  A    between atoms: N_14  and  C_15
REMARK    6  A    between atoms: N_14  and  C_18
REMARK    7  A    between atoms: C_15  and  C_16
REMARK    8  A    between atoms: C_18  and  C_19
REMARK                            x       y       z     vdW  Elec       q    Type
REMARK                         _______ _______ _______ _____ _____    ______ ____
ROOT
ATOM      1  S   UNL     1      33.997 -16.022 -21.518  0.00  0.00    +0.063 S 
ATOM      2  O   UNL     1      32.586 -15.889 -21.201  0.00  0.00    -0.153 OA
ATOM      3  O   UNL     1      34.956 -15.127 -20.896  0.00  0.00    -0.153 OA
ENDROOT
BRANCH   1   4
ATOM      4  C   UNL     1      34.474 -17.676 -21.100  0.00  0.00    +0.122 C 
ATOM      5  C   UNL     1      33.494 -18.633 -20.915  0.00  0.00    +0.020 C 
ATOM      6  C   UNL     1      35.817 -17.975 -20.969  0.00  0.00    +0.020 C 
ATOM      7  C   UNL     1      33.870 -19.935 -20.586  0.00  0.00    +0.008 C 
ATOM      8  C   UNL     1      36.194 -19.277 -20.640  0.00  0.00    +0.008 C 
ATOM      9  C   UNL     1      35.220 -20.257 -20.449  0.00  0.00    +0.076 C 
BRANCH   9  11
ATOM     10  O   UNL     1      34.836 -22.540 -19.845  0.00  0.00    -0.245 OA
ATOM     11  C   UNL     1      35.612 -21.615 -20.106  0.00  0.00    +0.338 C 
BRANCH  11  12
ATOM     12  O   UNL     1      36.963 -21.781 -20.099  0.00  0.00    -0.477 OA
ATOM     13  H   UNL     1      37.389 -22.184 -20.830  0.00  0.00    +0.295 HD
ENDBRANCH  11  12
ENDBRANCH   9  11
ENDBRANCH   1   4
BRANCH   1  14
ATOM     14  N   UNL     1      34.205 -15.991 -23.230  0.00  0.00    -0.156 NA
BRANCH  14  15
ATOM     15  C   UNL     1      34.229 -14.666 -23.900  0.00  0.00    +0.096 C 
BRANCH  15  16
ATOM     16  C   UNL     1      32.915 -14.421 -24.637  0.00  0.00    +0.019 C 
ATOM     17  C   UNL     1      33.054 -14.701 -26.125  0.00  0.00    +0.002 C 
ENDBRANCH  15  16
ENDBRANCH  14  15
BRANCH  14  18
ATOM     18  C   UNL     1      35.186 -16.932 -23.825  0.00  0.00    +0.096 C 
BRANCH  18  19
ATOM     19  C   UNL     1      34.496 -17.850 -24.832  0.00  0.00    +0.019 C 
ATOM     20  C   UNL     1      34.678 -19.314 -24.463  0.00  0.00    +0.002 C 
ENDBRANCH  18  19
ENDBRANCH  14  18
ENDBRANCH   1  14
TORSDOF 8
ENDMDL
MODEL 9
REMARK VINA RESULT:      -7.0      7.127      9.064
REMARK  Name = 4911
REMARK  8 active torsions:
REMARK  status: ('A' for Active; 'I' for Inactive)
REMARK    1  A    between atoms: S_1  and  C_4
REMARK    2  A    between atoms: S_1  and  N_14
REMARK    3  A    between atoms: C_9  and  C_11
REMARK    4  A    between atoms: C_11  and  O_12
REMARK    5  A    between atoms: N_14  and  C_15
REMARK    6  A    between atoms: N_14  and  C_18
REMARK    7  A    between atoms: C_15  and  C_16
REMARK    8  A    between atoms: C_18  and  C_19
REMARK                            x       y       z     vdW  Elec       q    Type
REMARK                         _______ _______ _______ _____ _____    ______ ____
ROOT
ATOM      1  S   UNL     1      32.479 -24.121 -14.179  0.00  0.00    +0.063 S 
ATOM      2  O   UNL     1      32.549 -23.486 -12.875  0.00  0.00    -0.153 OA
ATOM      3  O   UNL     1      32.623 -25.562 -14.279  0.00  0.00    -0.153 OA
ENDROOT
BRANCH   1   4
ATOM      4  C   UNL     1      30.910 -23.699 -14.884  0.00  0.00    +0.122 C 
ATOM      5  C   UNL     1      30.407 -22.426 -14.694  0.00  0.00    +0.020 C 
ATOM      6  C   UNL     1      30.222 -24.653 -15.611  0.00  0.00    +0.020 C 
ATOM      7  C   UNL     1      29.172 -22.094 -15.249  0.00  0.00    +0.008 C 
ATOM      8  C   UNL     1      28.986 -24.322 -16.167  0.00  0.00    +0.008 C 
ATOM      9  C   UNL     1      28.462 -23.042 -15.985  0.00  0.00    +0.076 C 
BRANCH   9  11
ATOM     10  O   UNL     1      26.216 -22.217 -15.949  0.00  0.00    -0.245 OA
ATOM     11  C   UNL     1      27.173 -22.696 -16.565  0.00  0.00    +0.338 C 
BRANCH  11  12
ATOM     12  O   UNL     1      27.116 -22.957 -17.900  0.00  0.00    -0.477 OA
ATOM     13  H   UNL     1      27.654 -23.630 -18.269  0.00  0.00    +0.295 HD
ENDBRANCH  11  12
ENDBRANCH   9  11
ENDBRANCH   1   4
BRANCH   1  14
ATOM     14  N   UNL     1      33.592 -23.355 -15.250  0.00  0.00    -0.156 NA
BRANCH  14  15
ATOM     15  C   UNL     1      34.928 -22.988 -14.715  0.00  0.00    +0.096 C 
BRANCH  15  16
ATOM     16  C   UNL     1      36.028 -23.476 -15.656  0.00  0.00    +0.019 C 
ATOM     17  C   UNL     1      36.960 -22.342 -16.052  0.00  0.00    +0.002 C 
ENDBRANCH  15  16
ENDBRANCH  14  15
BRANCH  14  18
ATOM     18  C   UNL     1      33.671 -23.860 -16.644  0.00  0.00    +0.096 C 
BRANCH  18  19
ATOM     19  C   UNL     1      33.003 -22.878 -17.602  0.00  0.00    +0.019 C 
ATOM     20  C   UNL     1      33.925 -22.515 -18.756  0.00  0.00    +0.002 C 
ENDBRANCH  18  19
ENDBRANCH  14  18
ENDBRANCH   1  14
TORSDOF 8
ENDMDL
