MODEL 1
REMARK VINA RESULT:      -8.4      0.000      0.000
REMARK  Name = 11160307
REMARK  4 active torsions:
REMARK  status: ('A' for Active; 'I' for Inactive)
REMARK    1  A    between atoms: C_1  and  C_9
REMARK    2  A    between atoms: C_2  and  O_14
REMARK    3  A    between atoms: C_3  and  O_16
REMARK    4  A    between atoms: C_6  and  O_18
REMARK                            x       y       z     vdW  Elec       q    Type
REMARK                         _______ _______ _______ _____ _____    ______ ____
ROOT
ATOM      1  C   UNL     1      34.843 -19.593 -20.666  0.00  0.00    +0.122 C 
ATOM      2  C   UNL     1      33.577 -20.115 -20.400  0.00  0.00    +0.144 C 
ATOM      3  C   UNL     1      35.983 -20.299 -20.280  0.00  0.00    +0.144 C 
ATOM      4  C   UNL     1      33.450 -21.340 -19.746  0.00  0.00    +0.074 C 
ATOM      5  C   UNL     1      35.856 -21.525 -19.626  0.00  0.00    +0.074 C 
ATOM      6  C   UNL     1      34.590 -22.045 -19.360  0.00  0.00    +0.140 C 
ENDROOT
BRANCH   1   9
ATOM      7  O   UNL     1      35.214 -17.303 -20.678  0.00  0.00    -0.269 OA
ATOM      8  N   UNL     1      34.861 -18.109 -22.746  0.00  0.00    -0.231 N 
ATOM      9  C   UNL     1      34.976 -18.297 -21.358  0.00  0.00    +0.262 C 
ATOM     10  C   UNL     1      34.606 -19.107 -23.669  0.00  0.00    +0.072 C 
ATOM     11  C   UNL     1      34.939 -16.915 -23.436  0.00  0.00    +0.072 C 
ATOM     12  C   UNL     1      34.553 -18.550 -24.927  0.00  0.00    +0.018 C 
ATOM     13  C   UNL     1      34.763 -17.164 -24.779  0.00  0.00    +0.018 C 
ENDBRANCH   1   9
BRANCH   2  14
ATOM     14  O   UNL     1      32.449 -19.442 -20.769  0.00  0.00    -0.505 OA
ATOM     15  H   UNL     1      32.435 -18.954 -21.569  0.00  0.00    +0.292 HD
ENDBRANCH   2  14
BRANCH   3  16
ATOM     16  O   UNL     1      37.230 -19.808 -20.529  0.00  0.00    -0.505 OA
ATOM     17  H   UNL     1      37.627 -19.211 -19.926  0.00  0.00    +0.292 HD
ENDBRANCH   3  16
BRANCH   6  18
ATOM     18  O   UNL     1      34.466 -23.242 -18.723  0.00  0.00    -0.505 OA
ATOM     19  H   UNL     1      34.910 -23.389 -17.911  0.00  0.00    +0.292 HD
ENDBRANCH   6  18
TORSDOF 4
ENDMDL
MODEL 2
REMARK VINA RESULT:      -8.4      0.004      2.083
REMARK  Name = 11160307
REMARK  4 active torsions:
REMARK  status: ('A' for Active; 'I' for Inactive)
REMARK    1  A    between atoms: C_1  and  C_9
REMARK    2  A    between atoms: C_2  and  O_14
REMARK    3  A    between atoms: C_3  and  O_16
REMARK    4  A    between atoms: C_6  and  O_18
REMARK                            x       y       z     vdW  Elec       q    Type
REMARK                         _______ _______ _______ _____ _____    ______ ____
ROOT
ATOM      1  C   UNL     1      34.841 -19.596 -20.667  0.00  0.00    +0.122 C 
ATOM      2  C   UNL     1      35.980 -20.302 -20.280  0.00  0.00    +0.144 C 
ATOM      3  C   UNL     1      33.574 -20.117 -20.399  0.00  0.00    +0.144 C 
ATOM      4  C   UNL     1      35.854 -21.528 -19.626  0.00  0.00    +0.074 C 
ATOM      5  C   UNL     1      33.448 -21.343 -19.746  0.00  0.00    +0.074 C 
ATOM      6  C   UNL     1      34.587 -22.047 -19.359  0.00  0.00    +0.140 C 
ENDROOT
BRANCH   1   9
ATOM      7  O   UNL     1      35.212 -17.306 -20.679  0.00  0.00    -0.269 OA
ATOM      8  N   UNL     1      34.860 -18.113 -22.747  0.00  0.00    -0.231 N 
ATOM      9  C   UNL     1      34.975 -18.300 -21.358  0.00  0.00    +0.262 C 
ATOM     10  C   UNL     1      34.607 -19.111 -23.670  0.00  0.00    +0.072 C 
ATOM     11  C   UNL     1      34.939 -16.919 -23.437  0.00  0.00    +0.072 C 
ATOM     12  C   UNL     1      34.554 -18.555 -24.928  0.00  0.00    +0.018 C 
ATOM     13  C   UNL     1      34.764 -17.168 -24.781  0.00  0.00    +0.018 C 
ENDBRANCH   1   9
BRANCH   2  14
ATOM     14  O   UNL     1      37.227 -19.811 -20.532  0.00  0.00    -0.505 OA
ATOM     15  H   UNL     1      37.638 -19.237 -19.916  0.00  0.00    +0.292 HD
ENDBRANCH   2  14
BRANCH   3  16
ATOM     16  O   UNL     1      32.447 -19.445 -20.769  0.00  0.00    -0.505 OA
ATOM     17  H   UNL     1      32.467 -18.870 -21.508  0.00  0.00    +0.292 HD
ENDBRANCH   3  16
BRANCH   6  18
ATOM     18  O   UNL     1      34.465 -23.243 -18.720  0.00  0.00    -0.505 OA
ATOM     19  H   UNL     1      34.049 -23.286 -17.881  0.00  0.00    +0.292 HD
ENDBRANCH   6  18
TORSDOF 4
ENDMDL
MODEL 3
REMARK VINA RESULT:      -8.3      2.069      5.391
REMARK  Name = 11160307
REMARK  4 active torsions:
REMARK  status: ('A' for Active; 'I' for Inactive)
REMARK    1  A    between atoms: C_1  and  C_9
REMARK    2  A    between atoms: C_2  and  O_14
REMARK    3  A    between atoms: C_3  and  O_16
REMARK    4  A    between atoms: C_6  and  O_18
REMARK                            x       y       z     vdW  Elec       q    Type
REMARK                         _______ _______ _______ _____ _____    ______ ____
ROOT
ATOM      1  C   UNL     1      35.180 -17.710 -22.145  0.00  0.00    +0.122 C 
ATOM      2  C   UNL     1      34.966 -17.891 -23.512  0.00  0.00    +0.144 C 
ATOM      3  C   UNL     1      34.921 -16.471 -21.557  0.00  0.00    +0.144 C 
ATOM      4  C   UNL     1      34.493 -16.834 -24.291  0.00  0.00    +0.074 C 
ATOM      5  C   UNL     1      34.449 -15.415 -22.336  0.00  0.00    +0.074 C 
ATOM      6  C   UNL     1      34.235 -15.596 -23.702  0.00  0.00    +0.140 C 
ENDROOT
BRANCH   1   9
ATOM      7  O   UNL     1      36.892 -18.933 -21.167  0.00  0.00    -0.269 OA
ATOM      8  N   UNL     1      34.869 -19.785 -20.688  0.00  0.00    -0.231 N 
ATOM      9  C   UNL     1      35.680 -18.828 -21.322  0.00  0.00    +0.262 C 
ATOM     10  C   UNL     1      33.487 -19.823 -20.740  0.00  0.00    +0.072 C 
ATOM     11  C   UNL     1      35.286 -20.869 -19.941  0.00  0.00    +0.072 C 
ATOM     12  C   UNL     1      33.042 -20.903 -20.010  0.00  0.00    +0.018 C 
ATOM     13  C   UNL     1      34.180 -21.564 -19.505  0.00  0.00    +0.018 C 
ENDBRANCH   1   9
BRANCH   2  14
ATOM     14  O   UNL     1      35.212 -19.093 -24.107  0.00  0.00    -0.505 OA
ATOM     15  H   UNL     1      36.079 -19.448 -24.104  0.00  0.00    +0.292 HD
ENDBRANCH   2  14
BRANCH   3  16
ATOM     16  O   UNL     1      35.124 -16.271 -20.224  0.00  0.00    -0.505 OA
ATOM     17  H   UNL     1      35.997 -16.246 -19.883  0.00  0.00    +0.292 HD
ENDBRANCH   3  16
BRANCH   6  18
ATOM     18  O   UNL     1      33.773 -14.566 -24.462  0.00  0.00    -0.505 OA
ATOM     19  H   UNL     1      33.435 -13.794 -24.050  0.00  0.00    +0.292 HD
ENDBRANCH   6  18
TORSDOF 4
ENDMDL
MODEL 4
REMARK VINA RESULT:      -8.3      2.067      5.382
REMARK  Name = 11160307
REMARK  4 active torsions:
REMARK  status: ('A' for Active; 'I' for Inactive)
REMARK    1  A    between atoms: C_1  and  C_9
REMARK    2  A    between atoms: C_2  and  O_14
REMARK    3  A    between atoms: C_3  and  O_16
REMARK    4  A    between atoms: C_6  and  O_18
REMARK                            x       y       z     vdW  Elec       q    Type
REMARK                         _______ _______ _______ _____ _____    ______ ____
ROOT
ATOM      1  C   UNL     1      35.177 -17.709 -22.145  0.00  0.00    +0.122 C 
ATOM      2  C   UNL     1      34.915 -16.471 -21.557  0.00  0.00    +0.144 C 
ATOM      3  C   UNL     1      34.969 -17.889 -23.513  0.00  0.00    +0.144 C 
ATOM      4  C   UNL     1      34.445 -15.414 -22.336  0.00  0.00    +0.074 C 
ATOM      5  C   UNL     1      34.498 -16.832 -24.291  0.00  0.00    +0.074 C 
ATOM      6  C   UNL     1      34.237 -15.595 -23.703  0.00  0.00    +0.140 C 
ENDROOT
BRANCH   1   9
ATOM      7  O   UNL     1      36.887 -18.934 -21.164  0.00  0.00    -0.269 OA
ATOM      8  N   UNL     1      34.861 -19.784 -20.687  0.00  0.00    -0.231 N 
ATOM      9  C   UNL     1      35.674 -18.827 -21.320  0.00  0.00    +0.262 C 
ATOM     10  C   UNL     1      33.480 -19.820 -20.741  0.00  0.00    +0.072 C 
ATOM     11  C   UNL     1      35.277 -20.868 -19.939  0.00  0.00    +0.072 C 
ATOM     12  C   UNL     1      33.032 -20.899 -20.012  0.00  0.00    +0.018 C 
ATOM     13  C   UNL     1      34.169 -21.562 -19.505  0.00  0.00    +0.018 C 
ENDBRANCH   1   9
BRANCH   2  14
ATOM     14  O   UNL     1      35.112 -16.274 -20.222  0.00  0.00    -0.505 OA
ATOM     15  H   UNL     1      34.489 -15.781 -19.725  0.00  0.00    +0.292 HD
ENDBRANCH   2  14
BRANCH   3  16
ATOM     16  O   UNL     1      35.216 -19.090 -24.108  0.00  0.00    -0.505 OA
ATOM     17  H   UNL     1      35.314 -19.861 -23.584  0.00  0.00    +0.292 HD
ENDBRANCH   3  16
BRANCH   6  18
ATOM     18  O   UNL     1      33.779 -14.562 -24.463  0.00  0.00    -0.505 OA
ATOM     19  H   UNL     1      34.167 -13.712 -24.382  0.00  0.00    +0.292 HD
ENDBRANCH   6  18
TORSDOF 4
ENDMDL
MODEL 5
REMARK VINA RESULT:      -8.1      1.464      2.076
REMARK  Name = 11160307
REMARK  4 active torsions:
REMARK  status: ('A' for Active; 'I' for Inactive)
REMARK    1  A    between atoms: C_1  and  C_9
REMARK    2  A    between atoms: C_2  and  O_14
REMARK    3  A    between atoms: C_3  and  O_16
REMARK    4  A    between atoms: C_6  and  O_18
REMARK                            x       y       z     vdW  Elec       q    Type
REMARK                         _______ _______ _______ _____ _____    ______ ____
ROOT
ATOM      1  C   UNL     1      34.812 -19.775 -21.048  0.00  0.00    +0.122 C 
ATOM      2  C   UNL     1      33.707 -20.458 -20.539  0.00  0.00    +0.144 C 
ATOM      3  C   UNL     1      36.086 -20.035 -20.540  0.00  0.00    +0.144 C 
ATOM      4  C   UNL     1      33.874 -21.399 -19.523  0.00  0.00    +0.074 C 
ATOM      5  C   UNL     1      36.253 -20.976 -19.524  0.00  0.00    +0.074 C 
ATOM      6  C   UNL     1      35.148 -21.658 -19.017  0.00  0.00    +0.140 C 
ENDROOT
BRANCH   1   9
ATOM      7  O   UNL     1      34.512 -19.189 -23.273  0.00  0.00    -0.269 OA
ATOM      8  N   UNL     1      34.587 -17.388 -21.929  0.00  0.00    -0.231 N 
ATOM      9  C   UNL     1      34.635 -18.780 -22.122  0.00  0.00    +0.262 C 
ATOM     10  C   UNL     1      34.696 -16.746 -20.710  0.00  0.00    +0.072 C 
ATOM     11  C   UNL     1      34.461 -16.415 -22.902  0.00  0.00    +0.072 C 
ATOM     12  C   UNL     1      34.613 -15.386 -20.911  0.00  0.00    +0.018 C 
ATOM     13  C   UNL     1      34.465 -15.177 -22.298  0.00  0.00    +0.018 C 
ENDBRANCH   1   9
BRANCH   2  14
ATOM     14  O   UNL     1      32.454 -20.219 -21.021  0.00  0.00    -0.505 OA
ATOM     15  H   UNL     1      31.756 -20.814 -20.827  0.00  0.00    +0.292 HD
ENDBRANCH   2  14
BRANCH   3  16
ATOM     16  O   UNL     1      37.180 -19.380 -21.021  0.00  0.00    -0.505 OA
ATOM     17  H   UNL     1      37.854 -19.857 -21.464  0.00  0.00    +0.292 HD
ENDBRANCH   3  16
BRANCH   6  18
ATOM     18  O   UNL     1      35.310 -22.577 -18.026  0.00  0.00    -0.505 OA
ATOM     19  H   UNL     1      36.170 -22.782 -17.712  0.00  0.00    +0.292 HD
ENDBRANCH   6  18
TORSDOF 4
ENDMDL
MODEL 6
REMARK VINA RESULT:      -8.1      1.465      2.917
REMARK  Name = 11160307
REMARK  4 active torsions:
REMARK  status: ('A' for Active; 'I' for Inactive)
REMARK    1  A    between atoms: C_1  and  C_9
REMARK    2  A    between atoms: C_2  and  O_14
REMARK    3  A    between atoms: C_3  and  O_16
REMARK    4  A    between atoms: C_6  and  O_18
REMARK                            x       y       z     vdW  Elec       q    Type
REMARK                         _______ _______ _______ _____ _____    ______ ____
ROOT
ATOM      1  C   UNL     1      34.811 -19.774 -21.048  0.00  0.00    +0.122 C 
ATOM      2  C   UNL     1      36.085 -20.032 -20.542  0.00  0.00    +0.144 C 
ATOM      3  C   UNL     1      33.707 -20.458 -20.538  0.00  0.00    +0.144 C 
ATOM      4  C   UNL     1      36.255 -20.974 -19.527  0.00  0.00    +0.074 C 
ATOM      5  C   UNL     1      33.877 -21.399 -19.523  0.00  0.00    +0.074 C 
ATOM      6  C   UNL     1      35.151 -21.657 -19.017  0.00  0.00    +0.140 C 
ENDROOT
BRANCH   1   9
ATOM      7  O   UNL     1      34.506 -19.187 -23.272  0.00  0.00    -0.269 OA
ATOM      8  N   UNL     1      34.583 -17.387 -21.929  0.00  0.00    -0.231 N 
ATOM      9  C   UNL     1      34.631 -18.779 -22.122  0.00  0.00    +0.262 C 
ATOM     10  C   UNL     1      34.695 -16.745 -20.709  0.00  0.00    +0.072 C 
ATOM     11  C   UNL     1      34.455 -16.414 -22.901  0.00  0.00    +0.072 C 
ATOM     12  C   UNL     1      34.611 -15.385 -20.910  0.00  0.00    +0.018 C 
ATOM     13  C   UNL     1      34.460 -15.176 -22.297  0.00  0.00    +0.018 C 
ENDBRANCH   1   9
BRANCH   2  14
ATOM     14  O   UNL     1      37.178 -19.376 -21.026  0.00  0.00    -0.505 OA
ATOM     15  H   UNL     1      37.069 -18.661 -21.622  0.00  0.00    +0.292 HD
ENDBRANCH   2  14
BRANCH   3  16
ATOM     16  O   UNL     1      32.453 -20.223 -21.019  0.00  0.00    -0.505 OA
ATOM     17  H   UNL     1      31.801 -20.895 -20.975  0.00  0.00    +0.292 HD
ENDBRANCH   3  16
BRANCH   6  18
ATOM     18  O   UNL     1      35.317 -22.574 -18.026  0.00  0.00    -0.505 OA
ATOM     19  H   UNL     1      34.635 -23.189 -17.837  0.00  0.00    +0.292 HD
ENDBRANCH   6  18
TORSDOF 4
ENDMDL
MODEL 7
REMARK VINA RESULT:      -7.2      5.333      7.323
REMARK  Name = 11160307
REMARK  4 active torsions:
REMARK  status: ('A' for Active; 'I' for Inactive)
REMARK    1  A    between atoms: C_1  and  C_9
REMARK    2  A    between atoms: C_2  and  O_14
REMARK    3  A    between atoms: C_3  and  O_16
REMARK    4  A    between atoms: C_6  and  O_18
REMARK                            x       y       z     vdW  Elec       q    Type
REMARK                         _______ _______ _______ _____ _____    ______ ____
ROOT
ATOM      1  C   UNL     1      33.413 -14.133 -24.049  0.00  0.00    +0.122 C 
ATOM      2  C   UNL     1      33.037 -14.514 -25.337  0.00  0.00    +0.144 C 
ATOM      3  C   UNL     1      34.257 -14.952 -23.298  0.00  0.00    +0.144 C 
ATOM      4  C   UNL     1      33.504 -15.714 -25.874  0.00  0.00    +0.074 C 
ATOM      5  C   UNL     1      34.723 -16.152 -23.835  0.00  0.00    +0.074 C 
ATOM      6  C   UNL     1      34.347 -16.532 -25.123  0.00  0.00    +0.140 C 
ENDROOT
BRANCH   1   9
ATOM      7  O   UNL     1      31.993 -12.913 -22.678  0.00  0.00    -0.269 OA
ATOM      8  N   UNL     1      33.437 -11.592 -23.782  0.00  0.00    -0.231 N 
ATOM      9  C   UNL     1      32.919 -12.864 -23.481  0.00  0.00    +0.262 C 
ATOM     10  C   UNL     1      34.482 -11.340 -24.652  0.00  0.00    +0.072 C 
ATOM     11  C   UNL     1      32.988 -10.375 -23.309  0.00  0.00    +0.072 C 
ATOM     12  C   UNL     1      34.704  -9.982 -24.703  0.00  0.00    +0.018 C 
ATOM     13  C   UNL     1      33.758  -9.371 -23.854  0.00  0.00    +0.018 C 
ENDBRANCH   1   9
BRANCH   2  14
ATOM     14  O   UNL     1      32.214 -13.728 -26.088  0.00  0.00    -0.505 OA
ATOM     15  H   UNL     1      32.249 -13.773 -27.023  0.00  0.00    +0.292 HD
ENDBRANCH   2  14
BRANCH   3  16
ATOM     16  O   UNL     1      34.636 -14.600 -22.037  0.00  0.00    -0.505 OA
ATOM     17  H   UNL     1      34.915 -13.723 -21.859  0.00  0.00    +0.292 HD
ENDBRANCH   3  16
BRANCH   6  18
ATOM     18  O   UNL     1      34.803 -17.702 -25.648  0.00  0.00    -0.505 OA
ATOM     19  H   UNL     1      34.399 -18.062 -26.413  0.00  0.00    +0.292 HD
ENDBRANCH   6  18
TORSDOF 4
ENDMDL
MODEL 8
REMARK VINA RESULT:      -7.2      5.335      7.486
REMARK  Name = 11160307
REMARK  4 active torsions:
REMARK  status: ('A' for Active; 'I' for Inactive)
REMARK    1  A    between atoms: C_1  and  C_9
REMARK    2  A    between atoms: C_2  and  O_14
REMARK    3  A    between atoms: C_3  and  O_16
REMARK    4  A    between atoms: C_6  and  O_18
REMARK                            x       y       z     vdW  Elec       q    Type
REMARK                         _______ _______ _______ _____ _____    ______ ____
ROOT
ATOM      1  C   UNL     1      33.409 -14.135 -24.047  0.00  0.00    +0.122 C 
ATOM      2  C   UNL     1      34.260 -14.949 -23.298  0.00  0.00    +0.144 C 
ATOM      3  C   UNL     1      33.029 -14.522 -25.333  0.00  0.00    +0.144 C 
ATOM      4  C   UNL     1      34.731 -16.147 -23.833  0.00  0.00    +0.074 C 
ATOM      5  C   UNL     1      33.500 -15.720 -25.868  0.00  0.00    +0.074 C 
ATOM      6  C   UNL     1      34.350 -16.533 -25.119  0.00  0.00    +0.140 C 
ENDROOT
BRANCH   1   9
ATOM      7  O   UNL     1      31.983 -12.919 -22.679  0.00  0.00    -0.269 OA
ATOM      8  N   UNL     1      33.428 -11.595 -23.779  0.00  0.00    -0.231 N 
ATOM      9  C   UNL     1      32.912 -12.867 -23.480  0.00  0.00    +0.262 C 
ATOM     10  C   UNL     1      34.475 -11.341 -24.646  0.00  0.00    +0.072 C 
ATOM     11  C   UNL     1      32.975 -10.378 -23.307  0.00  0.00    +0.072 C 
ATOM     12  C   UNL     1      34.695  -9.982 -24.696  0.00  0.00    +0.018 C 
ATOM     13  C   UNL     1      33.746  -9.374 -23.849  0.00  0.00    +0.018 C 
ENDBRANCH   1   9
BRANCH   2  14
ATOM     14  O   UNL     1      34.644 -14.590 -22.039  0.00  0.00    -0.505 OA
ATOM     15  H   UNL     1      35.554 -14.501 -21.835  0.00  0.00    +0.292 HD
ENDBRANCH   2  14
BRANCH   3  16
ATOM     16  O   UNL     1      32.200 -13.742 -26.083  0.00  0.00    -0.505 OA
ATOM     17  H   UNL     1      31.394 -13.432 -25.720  0.00  0.00    +0.292 HD
ENDBRANCH   3  16
BRANCH   6  18
ATOM     18  O   UNL     1      34.809 -17.703 -25.641  0.00  0.00    -0.505 OA
ATOM     19  H   UNL     1      35.335 -17.696 -26.417  0.00  0.00    +0.292 HD
ENDBRANCH   6  18
TORSDOF 4
ENDMDL
MODEL 9
REMARK VINA RESULT:      -7.1      6.373      8.448
REMARK  Name = 11160307
REMARK  4 active torsions:
REMARK  status: ('A' for Active; 'I' for Inactive)
REMARK    1  A    between atoms: C_1  and  C_9
REMARK    2  A    between atoms: C_2  and  O_14
REMARK    3  A    between atoms: C_3  and  O_16
REMARK    4  A    between atoms: C_6  and  O_18
REMARK                            x       y       z     vdW  Elec       q    Type
REMARK                         _______ _______ _______ _____ _____    ______ ____
ROOT
ATOM      1  C   UNL     1      34.378 -23.277 -15.708  0.00  0.00    +0.122 C 
ATOM      2  C   UNL     1      33.937 -23.113 -17.022  0.00  0.00    +0.144 C 
ATOM      3  C   UNL     1      33.451 -23.382 -14.670  0.00  0.00    +0.144 C 
ATOM      4  C   UNL     1      32.571 -23.053 -17.297  0.00  0.00    +0.074 C 
ATOM      5  C   UNL     1      32.085 -23.323 -14.946  0.00  0.00    +0.074 C 
ATOM      6  C   UNL     1      31.645 -23.159 -16.259  0.00  0.00    +0.140 C 
ENDROOT
BRANCH   1   9
ATOM      7  O   UNL     1      36.453 -22.287 -15.395  0.00  0.00    -0.269 OA
ATOM      8  N   UNL     1      36.539 -24.520 -15.152  0.00  0.00    -0.231 N 
ATOM      9  C   UNL     1      35.823 -23.340 -15.417  0.00  0.00    +0.262 C 
ATOM     10  C   UNL     1      36.000 -25.794 -15.123  0.00  0.00    +0.072 C 
ATOM     11  C   UNL     1      37.895 -24.637 -14.912  0.00  0.00    +0.072 C 
ATOM     12  C   UNL     1      37.001 -26.697 -14.842  0.00  0.00    +0.018 C 
ATOM     13  C   UNL     1      38.199 -25.965 -14.709  0.00  0.00    +0.018 C 
ENDBRANCH   1   9
BRANCH   2  14
ATOM     14  O   UNL     1      34.825 -23.008 -18.051  0.00  0.00    -0.505 OA
ATOM     15  H   UNL     1      35.081 -23.773 -18.529  0.00  0.00    +0.292 HD
ENDBRANCH   2  14
BRANCH   3  16
ATOM     16  O   UNL     1      33.860 -23.542 -13.379  0.00  0.00    -0.505 OA
ATOM     17  H   UNL     1      34.030 -24.401 -13.046  0.00  0.00    +0.292 HD
ENDBRANCH   3  16
BRANCH   6  18
ATOM     18  O   UNL     1      30.312 -23.101 -16.528  0.00  0.00    -0.505 OA
ATOM     19  H   UNL     1      29.960 -22.372 -17.001  0.00  0.00    +0.292 HD
ENDBRANCH   6  18
TORSDOF 4
ENDMDL
