MODEL 1
REMARK VINA RESULT:     -12.3      0.000      0.000
REMARK  Name = 24864821
REMARK  5 active torsions:
REMARK  status: ('A' for Active; 'I' for Inactive)
REMARK    1  A    between atoms: C_5  and  C_16
REMARK    2  A    between atoms: C_7  and  C_10
REMARK    3  A    between atoms: C_16  and  O_17
REMARK    4  A    between atoms: O_17  and  C_20
REMARK    5  A    between atoms: C_25  and  O_28
REMARK                            x       y       z     vdW  Elec       q    Type
REMARK                         _______ _______ _______ _____ _____    ______ ____
ROOT
ATOM      1  N   UNL     1      36.235 -23.097 -15.607  0.00  0.00    -0.191 N 
ATOM      2  N   UNL     1      34.902 -22.863 -15.700  0.00  0.00    -0.163 NA
ATOM      3  N   UNL     1      38.398 -22.947 -15.930  0.00  0.00    -0.128 NA
ATOM      4  N   UNL     1      38.169 -23.941 -15.002  0.00  0.00    -0.127 NA
ATOM      5  C   UNL     1      37.231 -22.453 -16.281  0.00  0.00    +0.208 A 
ATOM      6  C   UNL     1      36.870 -24.024 -14.813  0.00  0.00    +0.186 A 
ATOM      7  C   UNL     1      34.179 -23.625 -14.929  0.00  0.00    +0.101 C 
ATOM      8  C   UNL     1      36.061 -24.845 -14.004  0.00  0.00    +0.042 C 
ATOM      9  C   UNL     1      34.732 -24.687 -14.028  0.00  0.00    +0.024 C 
ENDROOT
BRANCH   7  10
ATOM     10  C   UNL     1      32.702 -23.462 -14.938  0.00  0.00    +0.019 C 
ATOM     11  C   UNL     1      32.041 -23.156 -16.127  0.00  0.00    +0.002 C 
ATOM     12  C   UNL     1      31.976 -23.618 -13.757  0.00  0.00    +0.002 C 
ATOM     13  C   UNL     1      30.655 -23.005 -16.135  0.00  0.00    +0.000 C 
ATOM     14  C   UNL     1      30.590 -23.467 -13.765  0.00  0.00    +0.000 C 
ATOM     15  C   UNL     1      29.928 -23.160 -14.954  0.00  0.00    +0.000 C 
ENDBRANCH   7  10
BRANCH   5  16
ATOM     16  C   UNL     1      36.975 -21.350 -17.266  0.00  0.00    +0.272 C 
BRANCH  16  17
ATOM     17  O   UNL     1      36.691 -21.923 -18.541  0.00  0.00    -0.467 OA
BRANCH  17  20
ATOM     18  N   UNL     1      33.088 -20.871 -20.303  0.00  0.00    -0.248 NA
ATOM     19  C   UNL     1      35.461 -20.524 -20.076  0.00  0.00    +0.030 C 
ATOM     20  C   UNL     1      35.518 -21.560 -19.133  0.00  0.00    +0.138 C 
ATOM     21  C   UNL     1      34.209 -20.208 -20.643  0.00  0.00    +0.066 C 
ATOM     22  C   UNL     1      36.612 -19.811 -20.456  0.00  0.00    +0.059 C 
ATOM     23  C   UNL     1      34.155 -19.179 -21.579  0.00  0.00    +0.109 C 
ATOM     24  C   UNL     1      34.364 -22.244 -18.780  0.00  0.00    +0.057 C 
ATOM     25  C   UNL     1      35.298 -18.471 -21.957  0.00  0.00    +0.118 C 
ATOM     26  C   UNL     1      36.528 -18.787 -21.394  0.00  0.00    +0.011 C 
ATOM     27  C   UNL     1      33.184 -21.864 -19.389  0.00  0.00    +0.102 C 
BRANCH  25  28
ATOM     28  O   UNL     1      35.206 -17.472 -22.876  0.00  0.00    -0.476 OA
ATOM     29  C   UNL     1      34.997 -17.858 -24.235  0.00  0.00    +0.252 C 
ENDBRANCH  25  28
ENDBRANCH  17  20
ENDBRANCH  16  17
ENDBRANCH   5  16
TORSDOF 5
ENDMDL
MODEL 2
REMARK VINA RESULT:     -12.1      7.160     11.088
REMARK  Name = 24864821
REMARK  5 active torsions:
REMARK  status: ('A' for Active; 'I' for Inactive)
REMARK    1  A    between atoms: C_5  and  C_16
REMARK    2  A    between atoms: C_7  and  C_10
REMARK    3  A    between atoms: C_16  and  O_17
REMARK    4  A    between atoms: O_17  and  C_20
REMARK    5  A    between atoms: C_25  and  O_28
REMARK                            x       y       z     vdW  Elec       q    Type
REMARK                         _______ _______ _______ _____ _____    ______ ____
ROOT
ATOM      1  N   UNL     1      33.595 -15.308 -23.206  0.00  0.00    -0.191 N 
ATOM      2  N   UNL     1      33.910 -16.241 -22.274  0.00  0.00    -0.163 NA
ATOM      3  N   UNL     1      32.857 -13.463 -24.131  0.00  0.00    -0.128 NA
ATOM      4  N   UNL     1      33.369 -14.270 -25.127  0.00  0.00    -0.127 NA
ATOM      5  C   UNL     1      33.000 -14.099 -22.991  0.00  0.00    +0.208 A 
ATOM      6  C   UNL     1      33.810 -15.373 -24.563  0.00  0.00    +0.186 A 
ATOM      7  C   UNL     1      34.484 -17.303 -22.766  0.00  0.00    +0.101 C 
ATOM      8  C   UNL     1      34.415 -16.541 -25.068  0.00  0.00    +0.042 C 
ATOM      9  C   UNL     1      34.764 -17.519 -24.222  0.00  0.00    +0.024 C 
ENDROOT
BRANCH   7  10
ATOM     10  C   UNL     1      34.882 -18.398 -21.842  0.00  0.00    +0.019 C 
ATOM     11  C   UNL     1      33.915 -19.257 -21.321  0.00  0.00    +0.002 C 
ATOM     12  C   UNL     1      36.223 -18.567 -21.499  0.00  0.00    +0.002 C 
ATOM     13  C   UNL     1      34.289 -20.285 -20.456  0.00  0.00    +0.000 C 
ATOM     14  C   UNL     1      36.598 -19.595 -20.634  0.00  0.00    +0.000 C 
ATOM     15  C   UNL     1      35.631 -20.455 -20.112  0.00  0.00    +0.000 C 
ENDBRANCH   7  10
BRANCH   5  16
ATOM     16  C   UNL     1      32.591 -13.618 -21.629  0.00  0.00    +0.272 C 
BRANCH  16  17
ATOM     17  O   UNL     1      31.584 -12.618 -21.773  0.00  0.00    -0.467 OA
BRANCH  17  20
ATOM     18  N   UNL     1      31.983  -9.233 -19.412  0.00  0.00    -0.248 NA
ATOM     19  C   UNL     1      31.990 -10.245 -21.598  0.00  0.00    +0.030 C 
ATOM     20  C   UNL     1      31.719 -11.492 -21.017  0.00  0.00    +0.138 C 
ATOM     21  C   UNL     1      32.116  -9.128 -20.747  0.00  0.00    +0.066 C 
ATOM     22  C   UNL     1      32.135 -10.098 -22.988  0.00  0.00    +0.059 C 
ATOM     23  C   UNL     1      32.385  -7.891 -21.326  0.00  0.00    +0.109 C 
ATOM     24  C   UNL     1      31.581 -11.604 -19.641  0.00  0.00    +0.057 C 
ATOM     25  C   UNL     1      32.530  -7.744 -22.708  0.00  0.00    +0.118 C 
ATOM     26  C   UNL     1      32.405  -8.850 -23.540  0.00  0.00    +0.011 C 
ATOM     27  C   UNL     1      31.721 -10.453 -18.889  0.00  0.00    +0.102 C 
BRANCH  25  28
ATOM     28  O   UNL     1      32.791  -6.518 -23.237  0.00  0.00    -0.476 OA
ATOM     29  C   UNL     1      31.855  -6.008 -24.186  0.00  0.00    +0.252 C 
ENDBRANCH  25  28
ENDBRANCH  17  20
ENDBRANCH  16  17
ENDBRANCH   5  16
TORSDOF 5
ENDMDL
MODEL 3
REMARK VINA RESULT:     -11.9      8.386     13.638
REMARK  Name = 24864821
REMARK  5 active torsions:
REMARK  status: ('A' for Active; 'I' for Inactive)
REMARK    1  A    between atoms: C_5  and  C_16
REMARK    2  A    between atoms: C_7  and  C_10
REMARK    3  A    between atoms: C_16  and  O_17
REMARK    4  A    between atoms: O_17  and  C_20
REMARK    5  A    between atoms: C_25  and  O_28
REMARK                            x       y       z     vdW  Elec       q    Type
REMARK                         _______ _______ _______ _____ _____    ______ ____
ROOT
ATOM      1  N   UNL     1      32.024  -9.926 -21.338  0.00  0.00    -0.191 N 
ATOM      2  N   UNL     1      32.344  -9.264 -22.478  0.00  0.00    -0.163 NA
ATOM      3  N   UNL     1      31.470 -11.535 -19.957  0.00  0.00    -0.128 NA
ATOM      4  N   UNL     1      31.606 -10.371 -19.229  0.00  0.00    -0.127 NA
ATOM      5  C   UNL     1      31.722 -11.251 -21.215  0.00  0.00    +0.208 A 
ATOM      6  C   UNL     1      31.940  -9.412 -20.065  0.00  0.00    +0.186 A 
ATOM      7  C   UNL     1      32.596  -7.998 -22.297  0.00  0.00    +0.101 C 
ATOM      8  C   UNL     1      32.199  -8.037 -19.904  0.00  0.00    +0.042 C 
ATOM      9  C   UNL     1      32.525  -7.300 -20.973  0.00  0.00    +0.024 C 
ENDROOT
BRANCH   7  10
ATOM     10  C   UNL     1      32.963  -7.163 -23.471  0.00  0.00    +0.019 C 
ATOM     11  C   UNL     1      34.239  -7.262 -24.026  0.00  0.00    +0.002 C 
ATOM     12  C   UNL     1      32.031  -6.283 -24.019  0.00  0.00    +0.002 C 
ATOM     13  C   UNL     1      34.582  -6.481 -25.128  0.00  0.00    +0.000 C 
ATOM     14  C   UNL     1      32.374  -5.501 -25.122  0.00  0.00    +0.000 C 
ATOM     15  C   UNL     1      33.650  -5.599 -25.677  0.00  0.00    +0.000 C 
ENDBRANCH   7  10
BRANCH   5  16
ATOM     16  C   UNL     1      31.699 -12.199 -22.378  0.00  0.00    +0.272 C 
BRANCH  16  17
ATOM     17  O   UNL     1      33.029 -12.369 -22.865  0.00  0.00    -0.467 OA
BRANCH  17  20
ATOM     18  N   UNL     1      33.908 -15.989 -24.686  0.00  0.00    -0.248 NA
ATOM     19  C   UNL     1      33.864 -14.628 -22.699  0.00  0.00    +0.030 C 
ATOM     20  C   UNL     1      33.326 -13.568 -23.443  0.00  0.00    +0.138 C 
ATOM     21  C   UNL     1      34.144 -15.836 -23.370  0.00  0.00    +0.066 C 
ATOM     22  C   UNL     1      34.123 -14.504 -21.323  0.00  0.00    +0.059 C 
ATOM     23  C   UNL     1      34.678 -16.888 -22.631  0.00  0.00    +0.109 C 
ATOM     24  C   UNL     1      33.082 -13.722 -24.800  0.00  0.00    +0.057 C 
ATOM     25  C   UNL     1      34.935 -16.765 -21.263  0.00  0.00    +0.118 C 
ATOM     26  C   UNL     1      34.658 -15.571 -20.608  0.00  0.00    +0.011 C 
ATOM     27  C   UNL     1      33.388 -14.943 -25.369  0.00  0.00    +0.102 C 
BRANCH  25  28
ATOM     28  O   UNL     1      35.457 -17.816 -20.573  0.00  0.00    -0.476 OA
ATOM     29  C   UNL     1      36.237 -18.755 -21.312  0.00  0.00    +0.252 C 
ENDBRANCH  25  28
ENDBRANCH  17  20
ENDBRANCH  16  17
ENDBRANCH   5  16
TORSDOF 5
ENDMDL
MODEL 4
REMARK VINA RESULT:     -11.9      4.707     10.743
REMARK  Name = 24864821
REMARK  5 active torsions:
REMARK  status: ('A' for Active; 'I' for Inactive)
REMARK    1  A    between atoms: C_5  and  C_16
REMARK    2  A    between atoms: C_7  and  C_10
REMARK    3  A    between atoms: C_16  and  O_17
REMARK    4  A    between atoms: O_17  and  C_20
REMARK    5  A    between atoms: C_25  and  O_28
REMARK                            x       y       z     vdW  Elec       q    Type
REMARK                         _______ _______ _______ _____ _____    ______ ____
ROOT
ATOM      1  N   UNL     1      34.038 -15.475 -24.227  0.00  0.00    -0.191 N 
ATOM      2  N   UNL     1      33.812 -14.315 -23.562  0.00  0.00    -0.163 NA
ATOM      3  N   UNL     1      34.601 -17.551 -24.649  0.00  0.00    -0.128 NA
ATOM      4  N   UNL     1      34.167 -16.975 -25.825  0.00  0.00    -0.127 NA
ATOM      5  C   UNL     1      34.518 -16.641 -23.705  0.00  0.00    +0.208 A 
ATOM      6  C   UNL     1      33.831 -15.730 -25.563  0.00  0.00    +0.186 A 
ATOM      7  C   UNL     1      33.340 -13.361 -24.315  0.00  0.00    +0.101 C 
ATOM      8  C   UNL     1      33.337 -14.675 -26.354  0.00  0.00    +0.042 C 
ATOM      9  C   UNL     1      33.082 -13.490 -25.785  0.00  0.00    +0.024 C 
ENDROOT
BRANCH   7  10
ATOM     10  C   UNL     1      33.046 -12.039 -23.701  0.00  0.00    +0.019 C 
ATOM     11  C   UNL     1      32.144 -11.947 -22.643  0.00  0.00    +0.002 C 
ATOM     12  C   UNL     1      33.676 -10.891 -24.184  0.00  0.00    +0.002 C 
ATOM     13  C   UNL     1      31.870 -10.707 -22.066  0.00  0.00    +0.000 C 
ATOM     14  C   UNL     1      33.402  -9.652 -23.607  0.00  0.00    +0.000 C 
ATOM     15  C   UNL     1      32.499  -9.558 -22.548  0.00  0.00    +0.000 C 
ENDBRANCH   7  10
BRANCH   5  16
ATOM     16  C   UNL     1      34.880 -16.803 -22.258  0.00  0.00    +0.272 C 
BRANCH  16  17
ATOM     17  O   UNL     1      34.269 -17.991 -21.757  0.00  0.00    -0.467 OA
BRANCH  17  20
ATOM     18  N   UNL     1      36.825 -20.743 -20.002  0.00  0.00    -0.248 NA
ATOM     19  C   UNL     1      34.579 -20.000 -20.456  0.00  0.00    +0.030 C 
ATOM     20  C   UNL     1      35.091 -18.908 -21.171  0.00  0.00    +0.138 C 
ATOM     21  C   UNL     1      35.495 -20.905 -19.880  0.00  0.00    +0.066 C 
ATOM     22  C   UNL     1      33.196 -20.201 -20.309  0.00  0.00    +0.059 C 
ATOM     23  C   UNL     1      34.986 -21.989 -19.170  0.00  0.00    +0.109 C 
ATOM     24  C   UNL     1      36.462 -18.739 -21.298  0.00  0.00    +0.057 C 
ATOM     25  C   UNL     1      33.611 -22.188 -19.023  0.00  0.00    +0.118 C 
ATOM     26  C   UNL     1      32.715 -21.293 -19.594  0.00  0.00    +0.011 C 
ATOM     27  C   UNL     1      37.279 -19.677 -20.700  0.00  0.00    +0.102 C 
BRANCH  25  28
ATOM     28  O   UNL     1      33.151 -23.261 -18.323  0.00  0.00    -0.476 OA
ATOM     29  C   UNL     1      33.472 -23.316 -16.933  0.00  0.00    +0.252 C 
ENDBRANCH  25  28
ENDBRANCH  17  20
ENDBRANCH  16  17
ENDBRANCH   5  16
TORSDOF 5
ENDMDL
MODEL 5
REMARK VINA RESULT:     -11.7      4.271      9.797
REMARK  Name = 24864821
REMARK  5 active torsions:
REMARK  status: ('A' for Active; 'I' for Inactive)
REMARK    1  A    between atoms: C_5  and  C_16
REMARK    2  A    between atoms: C_7  and  C_10
REMARK    3  A    between atoms: C_16  and  O_17
REMARK    4  A    between atoms: O_17  and  C_20
REMARK    5  A    between atoms: C_25  and  O_28
REMARK                            x       y       z     vdW  Elec       q    Type
REMARK                         _______ _______ _______ _____ _____    ______ ____
ROOT
ATOM      1  N   UNL     1      34.245 -16.015 -23.743  0.00  0.00    -0.191 N 
ATOM      2  N   UNL     1      33.816 -15.099 -22.839  0.00  0.00    -0.163 NA
ATOM      3  N   UNL     1      35.224 -17.772 -24.615  0.00  0.00    -0.128 NA
ATOM      4  N   UNL     1      34.586 -17.087 -25.628  0.00  0.00    -0.127 NA
ATOM      5  C   UNL     1      35.011 -17.117 -23.496  0.00  0.00    +0.208 A 
ATOM      6  C   UNL     1      34.001 -16.035 -25.096  0.00  0.00    +0.186 A 
ATOM      7  C   UNL     1      33.088 -14.150 -23.357  0.00  0.00    +0.101 C 
ATOM      8  C   UNL     1      33.227 -14.987 -25.630  0.00  0.00    +0.042 C 
ATOM      9  C   UNL     1      32.757 -14.035 -24.814  0.00  0.00    +0.024 C 
ENDROOT
BRANCH   7  10
ATOM     10  C   UNL     1      32.554 -13.087 -22.467  0.00  0.00    +0.019 C 
ATOM     11  C   UNL     1      32.288 -13.367 -21.127  0.00  0.00    +0.002 C 
ATOM     12  C   UNL     1      32.320 -11.807 -22.971  0.00  0.00    +0.002 C 
ATOM     13  C   UNL     1      31.788 -12.368 -20.292  0.00  0.00    +0.000 C 
ATOM     14  C   UNL     1      31.820 -10.809 -22.136  0.00  0.00    +0.000 C 
ATOM     15  C   UNL     1      31.553 -11.089 -20.796  0.00  0.00    +0.000 C 
ENDBRANCH   7  10
BRANCH   5  16
ATOM     16  C   UNL     1      35.506 -17.481 -22.127  0.00  0.00    +0.272 C 
BRANCH  16  17
ATOM     17  O   UNL     1      35.672 -18.896 -22.053  0.00  0.00    -0.467 OA
BRANCH  17  20
ATOM     18  N   UNL     1      32.791 -20.977 -19.917  0.00  0.00    -0.248 NA
ATOM     19  C   UNL     1      35.109 -20.424 -20.272  0.00  0.00    +0.030 C 
ATOM     20  C   UNL     1      34.741 -19.590 -21.337  0.00  0.00    +0.138 C 
ATOM     21  C   UNL     1      34.087 -21.108 -19.580  0.00  0.00    +0.066 C 
ATOM     22  C   UNL     1      36.453 -20.585 -19.893  0.00  0.00    +0.059 C 
ATOM     23  C   UNL     1      34.453 -21.936 -18.523  0.00  0.00    +0.109 C 
ATOM     24  C   UNL     1      33.406 -19.452 -21.687  0.00  0.00    +0.057 C 
ATOM     25  C   UNL     1      35.789 -22.096 -18.146  0.00  0.00    +0.118 C 
ATOM     26  C   UNL     1      36.790 -21.420 -18.832  0.00  0.00    +0.011 C 
ATOM     27  C   UNL     1      32.477 -20.162 -20.950  0.00  0.00    +0.102 C 
BRANCH  25  28
ATOM     28  O   UNL     1      36.108 -22.914 -17.106  0.00  0.00    -0.476 OA
ATOM     29  C   UNL     1      37.249 -22.557 -16.326  0.00  0.00    +0.252 C 
ENDBRANCH  25  28
ENDBRANCH  17  20
ENDBRANCH  16  17
ENDBRANCH   5  16
TORSDOF 5
ENDMDL
MODEL 6
REMARK VINA RESULT:     -11.2      7.215     12.623
REMARK  Name = 24864821
REMARK  5 active torsions:
REMARK  status: ('A' for Active; 'I' for Inactive)
REMARK    1  A    between atoms: C_5  and  C_16
REMARK    2  A    between atoms: C_7  and  C_10
REMARK    3  A    between atoms: C_16  and  O_17
REMARK    4  A    between atoms: O_17  and  C_20
REMARK    5  A    between atoms: C_25  and  O_28
REMARK                            x       y       z     vdW  Elec       q    Type
REMARK                         _______ _______ _______ _____ _____    ______ ____
ROOT
ATOM      1  N   UNL     1      32.329 -11.622 -22.133  0.00  0.00    -0.191 N 
ATOM      2  N   UNL     1      32.643 -10.622 -22.994  0.00  0.00    -0.163 NA
ATOM      3  N   UNL     1      32.048 -13.627 -21.293  0.00  0.00    -0.128 NA
ATOM      4  N   UNL     1      31.664 -12.703 -20.342  0.00  0.00    -0.127 NA
ATOM      5  C   UNL     1      32.442 -12.964 -22.356  0.00  0.00    +0.208 A 
ATOM      6  C   UNL     1      31.837 -11.504 -20.854  0.00  0.00    +0.186 A 
ATOM      7  C   UNL     1      32.443  -9.429 -22.509  0.00  0.00    +0.101 C 
ATOM      8  C   UNL     1      31.613 -10.203 -20.364  0.00  0.00    +0.042 C 
ATOM      9  C   UNL     1      31.895  -9.150 -21.143  0.00  0.00    +0.024 C 
ENDROOT
BRANCH   7  10
ATOM     10  C   UNL     1      32.753  -8.247 -23.356  0.00  0.00    +0.019 C 
ATOM     11  C   UNL     1      34.075  -7.958 -23.692  0.00  0.00    +0.002 C 
ATOM     12  C   UNL     1      31.722  -7.428 -23.815  0.00  0.00    +0.002 C 
ATOM     13  C   UNL     1      34.366  -6.851 -24.488  0.00  0.00    +0.000 C 
ATOM     14  C   UNL     1      32.012  -6.321 -24.611  0.00  0.00    +0.000 C 
ATOM     15  C   UNL     1      33.334  -6.031 -24.948  0.00  0.00    +0.000 C 
ENDBRANCH   7  10
BRANCH   5  16
ATOM     16  C   UNL     1      32.950 -13.541 -23.645  0.00  0.00    +0.272 C 
BRANCH  16  17
ATOM     17  O   UNL     1      34.147 -14.272 -23.387  0.00  0.00    -0.467 OA
BRANCH  17  20
ATOM     18  N   UNL     1      34.355 -18.084 -25.005  0.00  0.00    -0.248 NA
ATOM     19  C   UNL     1      34.600 -16.625 -23.103  0.00  0.00    +0.030 C 
ATOM     20  C   UNL     1      34.222 -15.534 -23.898  0.00  0.00    +0.138 C 
ATOM     21  C   UNL     1      34.653 -17.899 -23.706  0.00  0.00    +0.066 C 
ATOM     22  C   UNL     1      34.918 -16.470 -21.743  0.00  0.00    +0.059 C 
ATOM     23  C   UNL     1      35.028 -18.983 -22.916  0.00  0.00    +0.109 C 
ATOM     24  C   UNL     1      33.914 -15.721 -25.238  0.00  0.00    +0.057 C 
ATOM     25  C   UNL     1      35.345 -18.828 -21.564  0.00  0.00    +0.118 C 
ATOM     26  C   UNL     1      35.290 -17.570 -20.977  0.00  0.00    +0.011 C 
ATOM     27  C   UNL     1      33.995 -17.005 -25.738  0.00  0.00    +0.102 C 
BRANCH  25  28
ATOM     28  O   UNL     1      35.706 -19.911 -20.823  0.00  0.00    -0.476 OA
ATOM     29  C   UNL     1      34.660 -20.621 -20.158  0.00  0.00    +0.252 C 
ENDBRANCH  25  28
ENDBRANCH  17  20
ENDBRANCH  16  17
ENDBRANCH   5  16
TORSDOF 5
ENDMDL
MODEL 7
REMARK VINA RESULT:     -11.2      1.838      4.389
REMARK  Name = 24864821
REMARK  5 active torsions:
REMARK  status: ('A' for Active; 'I' for Inactive)
REMARK    1  A    between atoms: C_5  and  C_16
REMARK    2  A    between atoms: C_7  and  C_10
REMARK    3  A    between atoms: C_16  and  O_17
REMARK    4  A    between atoms: O_17  and  C_20
REMARK    5  A    between atoms: C_25  and  O_28
REMARK                            x       y       z     vdW  Elec       q    Type
REMARK                         _______ _______ _______ _____ _____    ______ ____
ROOT
ATOM      1  N   UNL     1      33.204 -23.563 -15.884  0.00  0.00    -0.191 N 
ATOM      2  N   UNL     1      34.468 -24.004 -15.663  0.00  0.00    -0.163 NA
ATOM      3  N   UNL     1      31.399 -22.862 -16.911  0.00  0.00    -0.128 NA
ATOM      4  N   UNL     1      31.131 -22.919 -15.559  0.00  0.00    -0.127 NA
ATOM      5  C   UNL     1      32.642 -23.250 -17.087  0.00  0.00    +0.208 A 
ATOM      6  C   UNL     1      32.218 -23.341 -14.951  0.00  0.00    +0.186 A 
ATOM      7  C   UNL     1      34.732 -24.234 -14.407  0.00  0.00    +0.101 C 
ATOM      8  C   UNL     1      32.539 -23.581 -13.600  0.00  0.00    +0.042 C 
ATOM      9  C   UNL     1      33.764 -24.020 -13.284  0.00  0.00    +0.024 C 
ENDROOT
BRANCH   7  10
ATOM     10  C   UNL     1      36.085 -24.726 -14.036  0.00  0.00    +0.019 C 
ATOM     11  C   UNL     1      36.348 -25.121 -12.725  0.00  0.00    +0.002 C 
ATOM     12  C   UNL     1      37.090 -24.794 -15.000  0.00  0.00    +0.002 C 
ATOM     13  C   UNL     1      37.616 -25.584 -12.378  0.00  0.00    +0.000 C 
ATOM     14  C   UNL     1      38.359 -25.257 -14.653  0.00  0.00    +0.000 C 
ATOM     15  C   UNL     1      38.623 -25.652 -13.341  0.00  0.00    +0.000 C 
ENDBRANCH   7  10
BRANCH   5  16
ATOM     16  C   UNL     1      33.381 -23.353 -18.389  0.00  0.00    +0.272 C 
BRANCH  16  17
ATOM     17  O   UNL     1      33.259 -22.118 -19.092  0.00  0.00    -0.467 OA
BRANCH  17  20
ATOM     18  N   UNL     1      36.816 -20.190 -20.000  0.00  0.00    -0.248 NA
ATOM     19  C   UNL     1      34.436 -20.395 -20.307  0.00  0.00    +0.030 C 
ATOM     20  C   UNL     1      34.417 -21.469 -19.405  0.00  0.00    +0.138 C 
ATOM     21  C   UNL     1      35.674 -19.777 -20.579  0.00  0.00    +0.066 C 
ATOM     22  C   UNL     1      33.262 -19.937 -20.929  0.00  0.00    +0.059 C 
ATOM     23  C   UNL     1      35.691 -18.711 -21.474  0.00  0.00    +0.109 C 
ATOM     24  C   UNL     1      35.593 -21.897 -18.807  0.00  0.00    +0.057 C 
ATOM     25  C   UNL     1      34.524 -18.256 -22.093  0.00  0.00    +0.118 C 
ATOM     26  C   UNL     1      33.308 -18.870 -21.820  0.00  0.00    +0.011 C 
ATOM     27  C   UNL     1      36.757 -21.229 -19.136  0.00  0.00    +0.102 C 
BRANCH  25  28
ATOM     28  O   UNL     1      34.580 -17.209 -22.962  0.00  0.00    -0.476 OA
ATOM     29  C   UNL     1      34.932 -17.506 -24.313  0.00  0.00    +0.252 C 
ENDBRANCH  25  28
ENDBRANCH  17  20
ENDBRANCH  16  17
ENDBRANCH   5  16
TORSDOF 5
ENDMDL
MODEL 8
REMARK VINA RESULT:     -10.9      8.073     13.320
REMARK  Name = 24864821
REMARK  5 active torsions:
REMARK  status: ('A' for Active; 'I' for Inactive)
REMARK    1  A    between atoms: C_5  and  C_16
REMARK    2  A    between atoms: C_7  and  C_10
REMARK    3  A    between atoms: C_16  and  O_17
REMARK    4  A    between atoms: O_17  and  C_20
REMARK    5  A    between atoms: C_25  and  O_28
REMARK                            x       y       z     vdW  Elec       q    Type
REMARK                         _______ _______ _______ _____ _____    ______ ____
ROOT
ATOM      1  N   UNL     1      32.091 -10.279 -21.466  0.00  0.00    -0.191 N 
ATOM      2  N   UNL     1      32.465  -9.581 -22.567  0.00  0.00    -0.163 NA
ATOM      3  N   UNL     1      31.529 -11.940 -20.152  0.00  0.00    -0.128 NA
ATOM      4  N   UNL     1      31.517 -10.779 -19.407  0.00  0.00    -0.127 NA
ATOM      5  C   UNL     1      31.874 -11.623 -21.380  0.00  0.00    +0.208 A 
ATOM      6  C   UNL     1      31.856  -9.788 -20.203  0.00  0.00    +0.186 A 
ATOM      7  C   UNL     1      32.610  -8.303 -22.356  0.00  0.00    +0.101 C 
ATOM      8  C   UNL     1      32.002  -8.400 -20.009  0.00  0.00    +0.042 C 
ATOM      9  C   UNL     1      32.370  -7.628 -21.040  0.00  0.00    +0.024 C 
ENDROOT
BRANCH   7  10
ATOM     10  C   UNL     1      33.022  -7.429 -23.486  0.00  0.00    +0.019 C 
ATOM     11  C   UNL     1      32.102  -6.556 -24.064  0.00  0.00    +0.002 C 
ATOM     12  C   UNL     1      34.331  -7.483 -23.967  0.00  0.00    +0.002 C 
ATOM     13  C   UNL     1      32.490  -5.735 -25.123  0.00  0.00    +0.000 C 
ATOM     14  C   UNL     1      34.719  -6.663 -25.026  0.00  0.00    +0.000 C 
ATOM     15  C   UNL     1      33.799  -5.788 -25.605  0.00  0.00    +0.000 C 
ENDBRANCH   7  10
BRANCH   5  16
ATOM     16  C   UNL     1      32.023 -12.554 -22.547  0.00  0.00    +0.272 C 
BRANCH  16  17
ATOM     17  O   UNL     1      33.405 -12.861 -22.723  0.00  0.00    -0.467 OA
BRANCH  17  20
ATOM     18  N   UNL     1      34.706 -16.517 -21.266  0.00  0.00    -0.248 NA
ATOM     19  C   UNL     1      34.017 -15.159 -23.132  0.00  0.00    +0.030 C 
ATOM     20  C   UNL     1      33.832 -14.072 -22.266  0.00  0.00    +0.138 C 
ATOM     21  C   UNL     1      34.461 -16.379 -22.582  0.00  0.00    +0.066 C 
ATOM     22  C   UNL     1      33.771 -15.051 -24.512  0.00  0.00    +0.059 C 
ATOM     23  C   UNL     1      34.644 -17.458 -23.443  0.00  0.00    +0.109 C 
ATOM     24  C   UNL     1      34.084 -14.212 -20.909  0.00  0.00    +0.057 C 
ATOM     25  C   UNL     1      34.400 -17.351 -24.814  0.00  0.00    +0.118 C 
ATOM     26  C   UNL     1      33.962 -16.145 -25.349  0.00  0.00    +0.011 C 
ATOM     27  C   UNL     1      34.516 -15.445 -20.463  0.00  0.00    +0.102 C 
BRANCH  25  28
ATOM     28  O   UNL     1      34.592 -18.427 -25.625  0.00  0.00    -0.476 OA
ATOM     29  C   UNL     1      34.851 -19.679 -24.991  0.00  0.00    +0.252 C 
ENDBRANCH  25  28
ENDBRANCH  17  20
ENDBRANCH  16  17
ENDBRANCH   5  16
TORSDOF 5
ENDMDL
MODEL 9
REMARK VINA RESULT:     -10.8      2.525      3.984
REMARK  Name = 24864821
REMARK  5 active torsions:
REMARK  status: ('A' for Active; 'I' for Inactive)
REMARK    1  A    between atoms: C_5  and  C_16
REMARK    2  A    between atoms: C_7  and  C_10
REMARK    3  A    between atoms: C_16  and  O_17
REMARK    4  A    between atoms: O_17  and  C_20
REMARK    5  A    between atoms: C_25  and  O_28
REMARK                            x       y       z     vdW  Elec       q    Type
REMARK                         _______ _______ _______ _____ _____    ______ ____
ROOT
ATOM      1  N   UNL     1      33.872 -22.073 -18.432  0.00  0.00    -0.191 N 
ATOM      2  N   UNL     1      32.582 -22.290 -18.074  0.00  0.00    -0.163 NA
ATOM      3  N   UNL     1      35.630 -21.365 -19.532  0.00  0.00    -0.128 NA
ATOM      4  N   UNL     1      36.067 -22.094 -18.445  0.00  0.00    -0.127 NA
ATOM      5  C   UNL     1      34.316 -21.363 -19.509  0.00  0.00    +0.208 A 
ATOM      6  C   UNL     1      35.006 -22.514 -17.791  0.00  0.00    +0.186 A 
ATOM      7  C   UNL     1      32.450 -23.000 -16.988  0.00  0.00    +0.101 C 
ATOM      8  C   UNL     1      34.832 -23.294 -16.631  0.00  0.00    +0.042 C 
ATOM      9  C   UNL     1      33.593 -23.561 -16.198  0.00  0.00    +0.024 C 
ENDROOT
BRANCH   7  10
ATOM     10  C   UNL     1      31.083 -23.303 -16.489  0.00  0.00    +0.019 C 
ATOM     11  C   UNL     1      30.868 -24.418 -15.679  0.00  0.00    +0.002 C 
ATOM     12  C   UNL     1      30.016 -22.472 -16.829  0.00  0.00    +0.002 C 
ATOM     13  C   UNL     1      29.585 -24.700 -15.209  0.00  0.00    +0.000 C 
ATOM     14  C   UNL     1      28.734 -22.754 -16.359  0.00  0.00    +0.000 C 
ATOM     15  C   UNL     1      28.517 -23.869 -15.549  0.00  0.00    +0.000 C 
ENDBRANCH   7  10
BRANCH   5  16
ATOM     16  C   UNL     1      33.396 -20.697 -20.489  0.00  0.00    +0.272 C 
BRANCH  16  17
ATOM     17  O   UNL     1      33.677 -19.299 -20.515  0.00  0.00    -0.467 OA
BRANCH  17  20
ATOM     18  N   UNL     1      35.159 -17.811 -24.090  0.00  0.00    -0.248 NA
ATOM     19  C   UNL     1      34.161 -17.408 -21.935  0.00  0.00    +0.030 C 
ATOM     20  C   UNL     1      34.159 -18.787 -21.683  0.00  0.00    +0.138 C 
ATOM     21  C   UNL     1      34.677 -16.958 -23.168  0.00  0.00    +0.066 C 
ATOM     22  C   UNL     1      33.665 -16.488 -20.995  0.00  0.00    +0.059 C 
ATOM     23  C   UNL     1      34.677 -15.588 -23.417  0.00  0.00    +0.109 C 
ATOM     24  C   UNL     1      34.656 -19.670 -22.632  0.00  0.00    +0.057 C 
ATOM     25  C   UNL     1      34.185 -14.674 -22.483  0.00  0.00    +0.118 C 
ATOM     26  C   UNL     1      33.677 -15.125 -21.270  0.00  0.00    +0.011 C 
ATOM     27  C   UNL     1      35.141 -19.135 -23.809  0.00  0.00    +0.102 C 
BRANCH  25  28
ATOM     28  O   UNL     1      34.204 -13.342 -22.761  0.00  0.00    -0.476 OA
ATOM     29  C   UNL     1      33.712 -12.938 -24.039  0.00  0.00    +0.252 C 
ENDBRANCH  25  28
ENDBRANCH  17  20
ENDBRANCH  16  17
ENDBRANCH   5  16
TORSDOF 5
ENDMDL
