MODEL 1
REMARK VINA RESULT:      -5.6      0.000      0.000
REMARK  Name = 6994741
REMARK  6 active torsions:
REMARK  status: ('A' for Active; 'I' for Inactive)
REMARK    1  A    between atoms: CA_1  and  N_2
REMARK    2  A    between atoms: CA_1  and  C_7
REMARK    3  A    between atoms: CA_1  and  C_10
REMARK    4  A    between atoms: C_7  and  O_8
REMARK    5  A    between atoms: C_10  and  C_11
REMARK    6  A    between atoms: C_10  and  O_14
REMARK                            x       y       z     vdW  Elec       q    Type
REMARK                         _______ _______ _______ _____ _____    ______ ____
ROOT
ATOM      1  CA  UNL     1      36.772 -24.083 -11.998  0.00  0.00    +0.063 C 
ENDROOT
BRANCH   1   2
ATOM      2  N   UNL     1      37.416 -22.973 -11.294  0.00  0.00    +0.390 N 
ATOM      3  H1  UNL     1      37.044 -22.089 -11.641  0.00  0.00    -0.088 HD
ATOM      4  H2  UNL     1      38.423 -23.006 -11.457  0.00  0.00    -0.088 HD
ATOM      5  H3  UNL     1      37.230 -23.052 -10.294  0.00  0.00    -0.088 HD
ENDBRANCH   1   2
BRANCH   1   7
ATOM      6  OXT UNL     1      35.469 -24.503  -9.974  0.00  0.00    -0.253 OA
ATOM      7  C   UNL     1      35.560 -24.521 -11.195  0.00  0.00    +0.295 C 
BRANCH   7   8
ATOM      8  O   UNL     1      34.539 -24.927 -11.996  0.00  0.00    -0.482 OA
ATOM      9  H   UNL     1      34.461 -25.830 -12.235  0.00  0.00    +0.295 HD
ENDBRANCH   7   8
ENDBRANCH   1   7
BRANCH   1  10
ATOM     10  C   UNL     1      37.750 -25.239 -12.304  0.00  0.00    +0.101 C 
BRANCH  10  11
ATOM     11  C   UNL     1      38.212 -25.427 -13.772  0.00  0.00    +0.025 C 
ATOM     12  C   UNL     1      39.725 -25.597 -13.912  0.00  0.00    +0.002 C 
ATOM     13  C   UNL     1      37.511 -26.639 -14.404  0.00  0.00    +0.002 C 
ENDBRANCH  10  11
BRANCH  10  14
ATOM     14  O   UNL     1      37.130 -26.451 -11.853  0.00  0.00    -0.386 OA
ATOM     15  H   UNL     1      36.630 -26.849 -12.582  0.00  0.00    +0.210 HD
ENDBRANCH  10  14
ENDBRANCH   1  10
TORSDOF 6
ENDMDL
MODEL 2
REMARK VINA RESULT:      -5.5      3.750      4.933
REMARK  Name = 6994741
REMARK  6 active torsions:
REMARK  status: ('A' for Active; 'I' for Inactive)
REMARK    1  A    between atoms: CA_1  and  N_2
REMARK    2  A    between atoms: CA_1  and  C_7
REMARK    3  A    between atoms: CA_1  and  C_10
REMARK    4  A    between atoms: C_7  and  O_8
REMARK    5  A    between atoms: C_10  and  C_11
REMARK    6  A    between atoms: C_10  and  O_14
REMARK                            x       y       z     vdW  Elec       q    Type
REMARK                         _______ _______ _______ _____ _____    ______ ____
ROOT
ATOM      1  CA  UNL     1      38.732 -25.482 -14.564  0.00  0.00    +0.063 C 
ENDROOT
BRANCH   1   2
ATOM      2  N   UNL     1      38.729 -25.936 -13.173  0.00  0.00    +0.390 N 
ATOM      3  H1  UNL     1      39.273 -26.795 -13.095  0.00  0.00    -0.088 HD
ATOM      4  H2  UNL     1      37.770 -26.112 -12.875  0.00  0.00    -0.088 HD
ATOM      5  H3  UNL     1      39.143 -25.216 -12.580  0.00  0.00    -0.088 HD
ENDBRANCH   1   2
BRANCH   1   7
ATOM      6  OXT UNL     1      41.072 -24.797 -14.393  0.00  0.00    -0.253 OA
ATOM      7  C   UNL     1      40.173 -25.343 -15.021  0.00  0.00    +0.295 C 
BRANCH   7   8
ATOM      8  O   UNL     1      40.383 -25.930 -16.230  0.00  0.00    -0.482 OA
ATOM      9  H   UNL     1      40.033 -25.541 -17.007  0.00  0.00    +0.295 HD
ENDBRANCH   7   8
ENDBRANCH   1   7
BRANCH   1  10
ATOM     10  C   UNL     1      37.903 -24.194 -14.770  0.00  0.00    +0.101 C 
BRANCH  10  11
ATOM     11  C   UNL     1      36.407 -24.349 -15.148  0.00  0.00    +0.025 C 
ATOM     12  C   UNL     1      35.506 -24.624 -13.944  0.00  0.00    +0.002 C 
ATOM     13  C   UNL     1      35.904 -23.092 -15.875  0.00  0.00    +0.002 C 
ENDBRANCH  10  11
BRANCH  10  14
ATOM     14  O   UNL     1      38.561 -23.421 -15.784  0.00  0.00    -0.386 OA
ATOM     15  H   UNL     1      38.056 -22.611 -15.950  0.00  0.00    +0.210 HD
ENDBRANCH  10  14
ENDBRANCH   1  10
TORSDOF 6
ENDMDL
MODEL 3
REMARK VINA RESULT:      -5.3      3.450      4.397
REMARK  Name = 6994741
REMARK  6 active torsions:
REMARK  status: ('A' for Active; 'I' for Inactive)
REMARK    1  A    between atoms: CA_1  and  N_2
REMARK    2  A    between atoms: CA_1  and  C_7
REMARK    3  A    between atoms: CA_1  and  C_10
REMARK    4  A    between atoms: C_7  and  O_8
REMARK    5  A    between atoms: C_10  and  C_11
REMARK    6  A    between atoms: C_10  and  O_14
REMARK                            x       y       z     vdW  Elec       q    Type
REMARK                         _______ _______ _______ _____ _____    ______ ____
ROOT
ATOM      1  CA  UNL     1      36.527 -25.459 -14.438  0.00  0.00    +0.063 C 
ENDROOT
BRANCH   1   2
ATOM      2  N   UNL     1      36.416 -25.764 -13.011  0.00  0.00    +0.390 N 
ATOM      3  H1  UNL     1      37.209 -25.357 -12.514  0.00  0.00    -0.088 HD
ATOM      4  H2  UNL     1      36.415 -26.775 -12.879  0.00  0.00    -0.088 HD
ATOM      5  H3  UNL     1      35.548 -25.372 -12.646  0.00  0.00    -0.088 HD
ENDBRANCH   1   2
BRANCH   1   7
ATOM      6  OXT UNL     1      36.668 -27.178 -16.169  0.00  0.00    -0.253 OA
ATOM      7  C   UNL     1      37.107 -26.672 -15.144  0.00  0.00    +0.295 C 
BRANCH   7   8
ATOM      8  O   UNL     1      38.219 -27.142 -14.517  0.00  0.00    -0.482 OA
ATOM      9  H   UNL     1      38.160 -27.895 -13.962  0.00  0.00    +0.295 HD
ENDBRANCH   7   8
ENDBRANCH   1   7
BRANCH   1  10
ATOM     10  C   UNL     1      37.320 -24.161 -14.709  0.00  0.00    +0.101 C 
BRANCH  10  11
ATOM     11  C   UNL     1      36.549 -22.952 -15.298  0.00  0.00    +0.025 C 
ATOM     12  C   UNL     1      37.270 -22.292 -16.474  0.00  0.00    +0.002 C 
ATOM     13  C   UNL     1      35.144 -23.379 -15.748  0.00  0.00    +0.002 C 
ENDBRANCH  10  11
BRANCH  10  14
ATOM     14  O   UNL     1      38.400 -24.499 -15.591  0.00  0.00    -0.386 OA
ATOM     15  H   UNL     1      38.071 -25.073 -16.299  0.00  0.00    +0.210 HD
ENDBRANCH  10  14
ENDBRANCH   1  10
TORSDOF 6
ENDMDL
MODEL 4
REMARK VINA RESULT:      -5.2      7.715      8.797
REMARK  Name = 6994741
REMARK  6 active torsions:
REMARK  status: ('A' for Active; 'I' for Inactive)
REMARK    1  A    between atoms: CA_1  and  N_2
REMARK    2  A    between atoms: CA_1  and  C_7
REMARK    3  A    between atoms: CA_1  and  C_10
REMARK    4  A    between atoms: C_7  and  O_8
REMARK    5  A    between atoms: C_10  and  C_11
REMARK    6  A    between atoms: C_10  and  O_14
REMARK                            x       y       z     vdW  Elec       q    Type
REMARK                         _______ _______ _______ _____ _____    ______ ____
ROOT
ATOM      1  CA  UNL     1      29.048 -23.338 -15.677  0.00  0.00    +0.063 C 
ENDROOT
BRANCH   1   2
ATOM      2  N   UNL     1      28.630 -24.696 -15.322  0.00  0.00    +0.390 N 
ATOM      3  H1  UNL     1      27.716 -24.888 -15.731  0.00  0.00    -0.088 HD
ATOM      4  H2  UNL     1      28.573 -24.779 -14.307  0.00  0.00    -0.088 HD
ATOM      5  H3  UNL     1      29.311 -25.365 -15.681  0.00  0.00    -0.088 HD
ENDBRANCH   1   2
BRANCH   1   7
ATOM      6  OXT UNL     1      27.690 -21.650 -16.809  0.00  0.00    -0.253 OA
ATOM      7  C   UNL     1      28.094 -22.804 -16.731  0.00  0.00    +0.295 C 
BRANCH   7   8
ATOM      8  O   UNL     1      27.741 -23.761 -17.631  0.00  0.00    -0.482 OA
ATOM      9  H   UNL     1      27.215 -23.536 -18.373  0.00  0.00    +0.295 HD
ENDBRANCH   7   8
ENDBRANCH   1   7
BRANCH   1  10
ATOM     10  C   UNL     1      30.530 -23.265 -16.105  0.00  0.00    +0.101 C 
BRANCH  10  11
ATOM     11  C   UNL     1      31.574 -22.860 -15.032  0.00  0.00    +0.025 C 
ATOM     12  C   UNL     1      31.267 -23.428 -13.646  0.00  0.00    +0.002 C 
ATOM     13  C   UNL     1      32.981 -23.307 -15.456  0.00  0.00    +0.002 C 
ENDBRANCH  10  11
BRANCH  10  14
ATOM     14  O   UNL     1      30.612 -22.347 -17.203  0.00  0.00    -0.386 OA
ATOM     15  H   UNL     1      30.540 -22.834 -18.038  0.00  0.00    +0.210 HD
ENDBRANCH  10  14
ENDBRANCH   1  10
TORSDOF 6
ENDMDL
MODEL 5
REMARK VINA RESULT:      -5.1     10.773     11.326
REMARK  Name = 6994741
REMARK  6 active torsions:
REMARK  status: ('A' for Active; 'I' for Inactive)
REMARK    1  A    between atoms: CA_1  and  N_2
REMARK    2  A    between atoms: CA_1  and  C_7
REMARK    3  A    between atoms: CA_1  and  C_10
REMARK    4  A    between atoms: C_7  and  O_8
REMARK    5  A    between atoms: C_10  and  C_11
REMARK    6  A    between atoms: C_10  and  O_14
REMARK                            x       y       z     vdW  Elec       q    Type
REMARK                         _______ _______ _______ _____ _____    ______ ____
ROOT
ATOM      1  CA  UNL     1      34.726 -18.894 -21.939  0.00  0.00    +0.063 C 
ENDROOT
BRANCH   1   2
ATOM      2  N   UNL     1      34.902 -19.200 -23.359  0.00  0.00    +0.390 N 
ATOM      3  H1  UNL     1      35.154 -18.349 -23.861  0.00  0.00    -0.088 HD
ATOM      4  H2  UNL     1      34.030 -19.572 -23.737  0.00  0.00    -0.088 HD
ATOM      5  H3  UNL     1      35.642 -19.893 -23.468  0.00  0.00    -0.088 HD
ENDBRANCH   1   2
BRANCH   1   7
ATOM      6  OXT UNL     1      35.270 -16.925 -20.596  0.00  0.00    -0.253 OA
ATOM      7  C   UNL     1      35.254 -17.493 -21.681  0.00  0.00    +0.295 C 
BRANCH   7   8
ATOM      8  O   UNL     1      35.751 -16.921 -22.811  0.00  0.00    -0.482 OA
ATOM      9  H   UNL     1      35.887 -15.995 -22.846  0.00  0.00    +0.295 HD
ENDBRANCH   7   8
ENDBRANCH   1   7
BRANCH   1  10
ATOM     10  C   UNL     1      35.359 -19.961 -21.018  0.00  0.00    +0.101 C 
BRANCH  10  11
ATOM     11  C   UNL     1      34.466 -20.587 -19.916  0.00  0.00    +0.025 C 
ATOM     12  C   UNL     1      32.982 -20.612 -20.284  0.00  0.00    +0.002 C 
ATOM     13  C   UNL     1      34.928 -22.018 -19.601  0.00  0.00    +0.002 C 
ENDBRANCH  10  11
BRANCH  10  14
ATOM     14  O   UNL     1      36.508 -19.363 -20.401  0.00  0.00    -0.386 OA
ATOM     15  H   UNL     1      37.249 -19.369 -21.026  0.00  0.00    +0.210 HD
ENDBRANCH  10  14
ENDBRANCH   1  10
TORSDOF 6
ENDMDL
MODEL 6
REMARK VINA RESULT:      -5.0     11.765     12.304
REMARK  Name = 6994741
REMARK  6 active torsions:
REMARK  status: ('A' for Active; 'I' for Inactive)
REMARK    1  A    between atoms: CA_1  and  N_2
REMARK    2  A    between atoms: CA_1  and  C_7
REMARK    3  A    between atoms: CA_1  and  C_10
REMARK    4  A    between atoms: C_7  and  O_8
REMARK    5  A    between atoms: C_10  and  C_11
REMARK    6  A    between atoms: C_10  and  O_14
REMARK                            x       y       z     vdW  Elec       q    Type
REMARK                         _______ _______ _______ _____ _____    ______ ____
ROOT
ATOM      1  CA  UNL     1      34.692 -18.119 -22.713  0.00  0.00    +0.063 C 
ENDROOT
BRANCH   1   2
ATOM      2  N   UNL     1      34.987 -18.535 -24.086  0.00  0.00    +0.390 N 
ATOM      3  H1  UNL     1      35.906 -18.186 -24.356  0.00  0.00    -0.088 HD
ATOM      4  H2  UNL     1      34.280 -18.155 -24.715  0.00  0.00    -0.088 HD
ATOM      5  H3  UNL     1      34.980 -19.554 -24.141  0.00  0.00    -0.088 HD
ENDBRANCH   1   2
BRANCH   1   7
ATOM      6  OXT UNL     1      34.682 -15.917 -21.653  0.00  0.00    -0.253 OA
ATOM      7  C   UNL     1      35.024 -16.643 -22.578  0.00  0.00    +0.295 C 
BRANCH   7   8
ATOM      8  O   UNL     1      35.788 -16.196 -23.611  0.00  0.00    -0.482 OA
ATOM      9  H   UNL     1      36.698 -16.416 -23.650  0.00  0.00    +0.295 HD
ENDBRANCH   7   8
ENDBRANCH   1   7
BRANCH   1  10
ATOM     10  C   UNL     1      35.401 -19.000 -21.661  0.00  0.00    +0.101 C 
BRANCH  10  11
ATOM     11  C   UNL     1      34.627 -20.220 -21.099  0.00  0.00    +0.025 C 
ATOM     12  C   UNL     1      35.324 -20.881 -19.909  0.00  0.00    +0.002 C 
ATOM     13  C   UNL     1      33.207 -19.808 -20.682  0.00  0.00    +0.002 C 
ENDBRANCH  10  11
BRANCH  10  14
ATOM     14  O   UNL     1      35.774 -18.144 -20.571  0.00  0.00    -0.386 OA
ATOM     15  H   UNL     1      34.979 -17.867 -20.091  0.00  0.00    +0.210 HD
ENDBRANCH  10  14
ENDBRANCH   1  10
TORSDOF 6
ENDMDL
MODEL 7
REMARK VINA RESULT:      -5.0      2.568      4.130
REMARK  Name = 6994741
REMARK  6 active torsions:
REMARK  status: ('A' for Active; 'I' for Inactive)
REMARK    1  A    between atoms: CA_1  and  N_2
REMARK    2  A    between atoms: CA_1  and  C_7
REMARK    3  A    between atoms: CA_1  and  C_10
REMARK    4  A    between atoms: C_7  and  O_8
REMARK    5  A    between atoms: C_10  and  C_11
REMARK    6  A    between atoms: C_10  and  O_14
REMARK                            x       y       z     vdW  Elec       q    Type
REMARK                         _______ _______ _______ _____ _____    ______ ____
ROOT
ATOM      1  CA  UNL     1      36.970 -25.701 -14.183  0.00  0.00    +0.063 C 
ENDROOT
BRANCH   1   2
ATOM      2  N   UNL     1      36.301 -26.814 -14.859  0.00  0.00    +0.390 N 
ATOM      3  H1  UNL     1      35.299 -26.631 -14.904  0.00  0.00    -0.088 HD
ATOM      4  H2  UNL     1      36.467 -27.675 -14.339  0.00  0.00    -0.088 HD
ATOM      5  H3  UNL     1      36.673 -26.909 -15.804  0.00  0.00    -0.088 HD
ENDBRANCH   1   2
BRANCH   1   7
ATOM      6  OXT UNL     1      39.103 -26.748 -14.755  0.00  0.00    -0.253 OA
ATOM      7  C   UNL     1      38.445 -25.737 -14.544  0.00  0.00    +0.295 C 
BRANCH   7   8
ATOM      8  O   UNL     1      38.976 -24.488 -14.639  0.00  0.00    -0.482 OA
ATOM      9  H   UNL     1      39.172 -24.125 -15.480  0.00  0.00    +0.295 HD
ENDBRANCH   7   8
ENDBRANCH   1   7
BRANCH   1  10
ATOM     10  C   UNL     1      36.717 -25.694 -12.659  0.00  0.00    +0.101 C 
BRANCH  10  11
ATOM     11  C   UNL     1      35.973 -24.476 -12.054  0.00  0.00    +0.025 C 
ATOM     12  C   UNL     1      36.853 -23.232 -11.930  0.00  0.00    +0.002 C 
ATOM     13  C   UNL     1      34.735 -24.132 -12.896  0.00  0.00    +0.002 C 
ENDBRANCH  10  11
BRANCH  10  14
ATOM     14  O   UNL     1      37.993 -25.826 -12.015  0.00  0.00    -0.386 OA
ATOM     15  H   UNL     1      38.681 -25.444 -12.581  0.00  0.00    +0.210 HD
ENDBRANCH  10  14
ENDBRANCH   1  10
TORSDOF 6
ENDMDL
MODEL 8
REMARK VINA RESULT:      -4.9      3.270      3.958
REMARK  Name = 6994741
REMARK  6 active torsions:
REMARK  status: ('A' for Active; 'I' for Inactive)
REMARK    1  A    between atoms: CA_1  and  N_2
REMARK    2  A    between atoms: CA_1  and  C_7
REMARK    3  A    between atoms: CA_1  and  C_10
REMARK    4  A    between atoms: C_7  and  O_8
REMARK    5  A    between atoms: C_10  and  C_11
REMARK    6  A    between atoms: C_10  and  O_14
REMARK                            x       y       z     vdW  Elec       q    Type
REMARK                         _______ _______ _______ _____ _____    ______ ____
ROOT
ATOM      1  CA  UNL     1      36.701 -23.526 -14.422  0.00  0.00    +0.063 C 
ENDROOT
BRANCH   1   2
ATOM      2  N   UNL     1      35.343 -23.090 -14.092  0.00  0.00    +0.390 N 
ATOM      3  H1  UNL     1      34.819 -23.875 -13.704  0.00  0.00    -0.088 HD
ATOM      4  H2  UNL     1      34.879 -22.757 -14.937  0.00  0.00    -0.088 HD
ATOM      5  H3  UNL     1      35.385 -22.336 -13.406  0.00  0.00    -0.088 HD
ENDBRANCH   1   2
BRANCH   1   7
ATOM      6  OXT UNL     1      36.181 -22.820 -16.703  0.00  0.00    -0.253 OA
ATOM      7  C   UNL     1      37.011 -23.095 -15.844  0.00  0.00    +0.295 C 
BRANCH   7   8
ATOM      8  O   UNL     1      38.349 -23.015 -16.073  0.00  0.00    -0.482 OA
ATOM      9  H   UNL     1      38.670 -22.909 -16.946  0.00  0.00    +0.295 HD
ENDBRANCH   7   8
ENDBRANCH   1   7
BRANCH   1  10
ATOM     10  C   UNL     1      36.914 -25.038 -14.185  0.00  0.00    +0.101 C 
BRANCH  10  11
ATOM     11  C   UNL     1      38.042 -25.466 -13.211  0.00  0.00    +0.025 C 
ATOM     12  C   UNL     1      39.401 -25.620 -13.894  0.00  0.00    +0.002 C 
ATOM     13  C   UNL     1      38.171 -24.454 -12.062  0.00  0.00    +0.002 C 
ENDBRANCH  10  11
BRANCH  10  14
ATOM     14  O   UNL     1      37.151 -25.640 -15.465  0.00  0.00    -0.386 OA
ATOM     15  H   UNL     1      37.297 -24.946 -16.126  0.00  0.00    +0.210 HD
ENDBRANCH  10  14
ENDBRANCH   1  10
TORSDOF 6
ENDMDL
MODEL 9
REMARK VINA RESULT:      -4.9     11.508     11.880
REMARK  Name = 6994741
REMARK  6 active torsions:
REMARK  status: ('A' for Active; 'I' for Inactive)
REMARK    1  A    between atoms: CA_1  and  N_2
REMARK    2  A    between atoms: CA_1  and  C_7
REMARK    3  A    between atoms: CA_1  and  C_10
REMARK    4  A    between atoms: C_7  and  O_8
REMARK    5  A    between atoms: C_10  and  C_11
REMARK    6  A    between atoms: C_10  and  O_14
REMARK                            x       y       z     vdW  Elec       q    Type
REMARK                         _______ _______ _______ _____ _____    ______ ____
ROOT
ATOM      1  CA  UNL     1      41.660 -14.236 -16.128  0.00  0.00    +0.063 C 
ENDROOT
BRANCH   1   2
ATOM      2  N   UNL     1      42.055 -12.888 -15.717  0.00  0.00    +0.390 N 
ATOM      3  H1  UNL     1      42.950 -12.651 -16.143  0.00  0.00    -0.088 HD
ATOM      4  H2  UNL     1      42.142 -12.856 -14.701  0.00  0.00    -0.088 HD
ATOM      5  H3  UNL     1      41.346 -12.220 -16.019  0.00  0.00    -0.088 HD
ENDBRANCH   1   2
BRANCH   1   7
ATOM      6  OXT UNL     1      40.939 -14.515 -13.810  0.00  0.00    -0.253 OA
ATOM      7  C   UNL     1      40.924 -14.894 -14.974  0.00  0.00    +0.295 C 
BRANCH   7   8
ATOM      8  O   UNL     1      40.197 -15.970 -15.381  0.00  0.00    -0.482 OA
ATOM      9  H   UNL     1      40.621 -16.793 -15.527  0.00  0.00    +0.295 HD
ENDBRANCH   7   8
ENDBRANCH   1   7
BRANCH   1  10
ATOM     10  C   UNL     1      42.853 -15.073 -16.644  0.00  0.00    +0.101 C 
BRANCH  10  11
ATOM     11  C   UNL     1      42.945 -15.338 -18.168  0.00  0.00    +0.025 C 
ATOM     12  C   UNL     1      43.363 -16.769 -18.507  0.00  0.00    +0.002 C 
ATOM     13  C   UNL     1      41.600 -15.035 -18.848  0.00  0.00    +0.002 C 
ENDBRANCH  10  11
BRANCH  10  14
ATOM     14  O   UNL     1      42.821 -16.330 -15.954  0.00  0.00    -0.386 OA
ATOM     15  H   UNL     1      43.720 -16.577 -15.690  0.00  0.00    +0.210 HD
ENDBRANCH  10  14
ENDBRANCH   1  10
TORSDOF 6
ENDMDL
