MODEL 1
REMARK VINA RESULT:     -11.7      0.000      0.000
REMARK  Name = 16752640
REMARK  7 active torsions:
REMARK  status: ('A' for Active; 'I' for Inactive)
REMARK    1  A    between atoms: C_1  and  N_4
REMARK    2  A    between atoms: C_1  and  C_18
REMARK    3  A    between atoms: C_1  and  C_21
REMARK    4  A    between atoms: C_11  and  C_14
REMARK    5  A    between atoms: C_14  and  O_15
REMARK    6  A    between atoms: C_18  and  O_19
REMARK    7  A    between atoms: C_21  and  C_22
REMARK                            x       y       z     vdW  Elec       q    Type
REMARK                         _______ _______ _______ _____ _____    ______ ____
ROOT
ATOM      1  C   UNL     1      34.430 -20.296 -20.989  0.00  0.00    +0.186 C 
ENDROOT
BRANCH   1   4
ATOM      2  O   UNL     1      37.056 -20.300 -19.570  0.00  0.00    -0.269 OA
ATOM      3  O   UNL     1      32.800 -22.109 -19.273  0.00  0.00    -0.269 OA
ATOM      4  N   UNL     1      34.815 -21.000 -19.782  0.00  0.00    -0.213 N 
ATOM      5  C   UNL     1      36.028 -21.786 -18.038  0.00  0.00    +0.059 C 
ATOM      6  C   UNL     1      36.072 -20.925 -19.219  0.00  0.00    +0.256 C 
ATOM      7  C   UNL     1      33.965 -21.820 -19.070  0.00  0.00    +0.256 C 
ATOM      8  C   UNL     1      34.754 -22.328 -17.948  0.00  0.00    +0.058 C 
ATOM      9  C   UNL     1      37.011 -22.076 -17.115  0.00  0.00    +0.011 C 
ATOM     10  C   UNL     1      34.396 -23.187 -16.930  0.00  0.00    +0.005 C 
ATOM     11  C   UNL     1      36.671 -22.945 -16.074  0.00  0.00    +0.076 C 
ATOM     12  C   UNL     1      35.377 -23.496 -15.983  0.00  0.00    +0.007 C 
BRANCH  11  14
ATOM     13  O   UNL     1      37.525 -23.162 -13.850  0.00  0.00    -0.245 OA
ATOM     14  C   UNL     1      37.667 -23.287 -15.071  0.00  0.00    +0.338 C 
BRANCH  14  15
ATOM     15  O   UNL     1      38.813 -23.774 -15.619  0.00  0.00    -0.477 OA
ATOM     16  H   UNL     1      39.021 -23.586 -16.513  0.00  0.00    +0.295 HD
ENDBRANCH  14  15
ENDBRANCH  11  14
ENDBRANCH   1   4
BRANCH   1  18
ATOM     17  O   UNL     1      32.692 -18.734 -20.361  0.00  0.00    -0.248 OA
ATOM     18  C   UNL     1      32.995 -19.797 -20.895  0.00  0.00    +0.333 C 
BRANCH  18  19
ATOM     19  O   UNL     1      32.071 -20.613 -21.455  0.00  0.00    -0.479 OA
ATOM     20  H   UNL     1      31.158 -20.429 -21.349  0.00  0.00    +0.295 HD
ENDBRANCH  18  19
ENDBRANCH   1  18
BRANCH   1  21
ATOM     21  C   UNL     1      35.376 -19.123 -21.278  0.00  0.00    +0.058 C 
BRANCH  21  22
ATOM     22  C   UNL     1      35.024 -18.382 -22.546  0.00  0.00    -0.020 C 
ATOM     23  C   UNL     1      34.762 -17.002 -22.553  0.00  0.00    -0.004 C 
ATOM     24  C   UNL     1      34.438 -16.367 -23.775  0.00  0.00    -0.000 C 
ATOM     25  C   UNL     1      34.968 -19.125 -23.726  0.00  0.00    -0.004 C 
ATOM     26  C   UNL     1      34.813 -16.240 -21.375  0.00  0.00    -0.000 C 
ATOM     27  C   UNL     1      34.387 -17.129 -24.954  0.00  0.00    -0.000 C 
ATOM     28  C   UNL     1      34.650 -18.498 -24.928  0.00  0.00    -0.000 C 
ATOM     29  C   UNL     1      34.176 -14.987 -23.783  0.00  0.00    -0.000 C 
ATOM     30  C   UNL     1      34.549 -14.870 -21.401  0.00  0.00    -0.000 C 
ATOM     31  C   UNL     1      34.231 -14.245 -22.602  0.00  0.00    -0.000 C 
ENDBRANCH  21  22
ENDBRANCH   1  21
TORSDOF 7
ENDMDL
MODEL 2
REMARK VINA RESULT:     -11.6      4.331      7.607
REMARK  Name = 16752640
REMARK  7 active torsions:
REMARK  status: ('A' for Active; 'I' for Inactive)
REMARK    1  A    between atoms: C_1  and  N_4
REMARK    2  A    between atoms: C_1  and  C_18
REMARK    3  A    between atoms: C_1  and  C_21
REMARK    4  A    between atoms: C_11  and  C_14
REMARK    5  A    between atoms: C_14  and  O_15
REMARK    6  A    between atoms: C_18  and  O_19
REMARK    7  A    between atoms: C_21  and  C_22
REMARK                            x       y       z     vdW  Elec       q    Type
REMARK                         _______ _______ _______ _____ _____    ______ ____
ROOT
ATOM      1  C   UNL     1      33.922 -13.708 -25.076  0.00  0.00    +0.186 C 
ENDROOT
BRANCH   1   4
ATOM      2  O   UNL     1      34.641 -14.307 -22.242  0.00  0.00    -0.269 OA
ATOM      3  O   UNL     1      33.873 -16.432 -26.288  0.00  0.00    -0.269 OA
ATOM      4  N   UNL     1      34.184 -14.990 -24.452  0.00  0.00    -0.213 N 
ATOM      5  C   UNL     1      34.700 -16.576 -22.920  0.00  0.00    +0.059 C 
ATOM      6  C   UNL     1      34.513 -15.139 -23.121  0.00  0.00    +0.256 C 
ATOM      7  C   UNL     1      34.132 -16.193 -25.123  0.00  0.00    +0.256 C 
ATOM      8  C   UNL     1      34.470 -17.213 -24.130  0.00  0.00    +0.058 C 
ATOM      9  C   UNL     1      35.040 -17.275 -21.781  0.00  0.00    +0.011 C 
ATOM     10  C   UNL     1      34.568 -18.582 -24.265  0.00  0.00    +0.005 C 
ATOM     11  C   UNL     1      35.145 -18.664 -21.893  0.00  0.00    +0.076 C 
ATOM     12  C   UNL     1      34.912 -19.312 -23.123  0.00  0.00    +0.007 C 
BRANCH  11  14
ATOM     13  O   UNL     1      34.728 -20.180 -20.089  0.00  0.00    -0.245 OA
ATOM     14  C   UNL     1      35.500 -19.454 -20.724  0.00  0.00    +0.338 C 
BRANCH  14  15
ATOM     15  O   UNL     1      36.809 -19.315 -20.381  0.00  0.00    -0.477 OA
ATOM     16  H   UNL     1      37.293 -18.567 -20.670  0.00  0.00    +0.295 HD
ENDBRANCH  14  15
ENDBRANCH  11  14
ENDBRANCH   1   4
BRANCH   1  18
ATOM     17  O   UNL     1      33.758 -13.621 -27.489  0.00  0.00    -0.248 OA
ATOM     18  C   UNL     1      33.223 -13.887 -26.417  0.00  0.00    +0.333 C 
BRANCH  18  19
ATOM     19  O   UNL     1      31.961 -14.372 -26.341  0.00  0.00    -0.479 OA
ATOM     20  H   UNL     1      31.815 -15.297 -26.317  0.00  0.00    +0.295 HD
ENDBRANCH  18  19
ENDBRANCH   1  18
BRANCH   1  21
ATOM     21  C   UNL     1      33.083 -12.802 -24.165  0.00  0.00    +0.058 C 
BRANCH  21  22
ATOM     22  C   UNL     1      33.594 -11.382 -24.115  0.00  0.00    -0.020 C 
ATOM     23  C   UNL     1      33.058 -10.430 -23.233  0.00  0.00    -0.004 C 
ATOM     24  C   UNL     1      33.582  -9.115 -23.234  0.00  0.00    -0.000 C 
ATOM     25  C   UNL     1      34.630 -11.044 -24.986  0.00  0.00    -0.004 C 
ATOM     26  C   UNL     1      32.015 -10.753 -22.351  0.00  0.00    -0.000 C 
ATOM     27  C   UNL     1      34.626  -8.792 -24.117  0.00  0.00    -0.000 C 
ATOM     28  C   UNL     1      35.145  -9.750 -24.986  0.00  0.00    -0.000 C 
ATOM     29  C   UNL     1      33.046  -8.162 -22.352  0.00  0.00    -0.000 C 
ATOM     30  C   UNL     1      31.495  -9.794 -21.481  0.00  0.00    -0.000 C 
ATOM     31  C   UNL     1      32.009  -8.501 -21.482  0.00  0.00    -0.000 C 
ENDBRANCH  21  22
ENDBRANCH   1  21
TORSDOF 7
ENDMDL
MODEL 3
REMARK VINA RESULT:     -11.4      0.998      1.974
REMARK  Name = 16752640
REMARK  7 active torsions:
REMARK  status: ('A' for Active; 'I' for Inactive)
REMARK    1  A    between atoms: C_1  and  N_4
REMARK    2  A    between atoms: C_1  and  C_18
REMARK    3  A    between atoms: C_1  and  C_21
REMARK    4  A    between atoms: C_11  and  C_14
REMARK    5  A    between atoms: C_14  and  O_15
REMARK    6  A    between atoms: C_18  and  O_19
REMARK    7  A    between atoms: C_21  and  C_22
REMARK                            x       y       z     vdW  Elec       q    Type
REMARK                         _______ _______ _______ _____ _____    ______ ____
ROOT
ATOM      1  C   UNL     1      34.421 -20.393 -20.879  0.00  0.00    +0.186 C 
ENDROOT
BRANCH   1   4
ATOM      2  O   UNL     1      32.795 -22.243 -19.195  0.00  0.00    -0.269 OA
ATOM      3  O   UNL     1      37.028 -20.374 -19.432  0.00  0.00    -0.269 OA
ATOM      4  N   UNL     1      34.799 -21.096 -19.669  0.00  0.00    -0.213 N 
ATOM      5  C   UNL     1      34.722 -22.413 -17.828  0.00  0.00    +0.059 C 
ATOM      6  C   UNL     1      33.949 -21.929 -18.972  0.00  0.00    +0.256 C 
ATOM      7  C   UNL     1      36.046 -21.005 -19.088  0.00  0.00    +0.256 C 
ATOM      8  C   UNL     1      35.990 -21.854 -17.899  0.00  0.00    +0.058 C 
ATOM      9  C   UNL     1      34.357 -23.269 -16.810  0.00  0.00    +0.011 C 
ATOM     10  C   UNL     1      36.959 -22.122 -16.955  0.00  0.00    +0.005 C 
ATOM     11  C   UNL     1      35.324 -23.555 -15.841  0.00  0.00    +0.076 C 
ATOM     12  C   UNL     1      36.611 -22.986 -15.912  0.00  0.00    +0.007 C 
BRANCH  11  14
ATOM     13  O   UNL     1      34.369 -24.138 -13.726  0.00  0.00    -0.245 OA
ATOM     14  C   UNL     1      34.996 -24.452 -14.744  0.00  0.00    +0.338 C 
BRANCH  14  15
ATOM     15  O   UNL     1      35.460 -25.714 -14.947  0.00  0.00    -0.477 OA
ATOM     16  H   UNL     1      35.583 -26.291 -14.219  0.00  0.00    +0.295 HD
ENDBRANCH  14  15
ENDBRANCH  11  14
ENDBRANCH   1   4
BRANCH   1  18
ATOM     17  O   UNL     1      32.665 -18.837 -20.288  0.00  0.00    -0.248 OA
ATOM     18  C   UNL     1      32.981 -19.906 -20.800  0.00  0.00    +0.333 C 
BRANCH  18  19
ATOM     19  O   UNL     1      32.067 -20.743 -21.347  0.00  0.00    -0.479 OA
ATOM     20  H   UNL     1      32.087 -20.923 -22.266  0.00  0.00    +0.295 HD
ENDBRANCH  18  19
ENDBRANCH   1  18
BRANCH   1  21
ATOM     21  C   UNL     1      35.359 -19.210 -21.155  0.00  0.00    +0.058 C 
BRANCH  21  22
ATOM     22  C   UNL     1      35.022 -18.477 -22.432  0.00  0.00    -0.020 C 
ATOM     23  C   UNL     1      34.779 -17.094 -22.453  0.00  0.00    -0.004 C 
ATOM     24  C   UNL     1      34.469 -16.466 -23.682  0.00  0.00    -0.000 C 
ATOM     25  C   UNL     1      34.961 -19.230 -23.604  0.00  0.00    -0.004 C 
ATOM     26  C   UNL     1      34.836 -16.321 -21.282  0.00  0.00    -0.000 C 
ATOM     27  C   UNL     1      34.412 -17.239 -24.854  0.00  0.00    -0.000 C 
ATOM     28  C   UNL     1      34.656 -18.612 -24.814  0.00  0.00    -0.000 C 
ATOM     29  C   UNL     1      34.225 -15.083 -23.705  0.00  0.00    -0.000 C 
ATOM     30  C   UNL     1      34.591 -14.948 -21.322  0.00  0.00    -0.000 C 
ATOM     31  C   UNL     1      34.286 -14.331 -22.531  0.00  0.00    -0.000 C 
ENDBRANCH  21  22
ENDBRANCH   1  21
TORSDOF 7
ENDMDL
MODEL 4
REMARK VINA RESULT:     -11.4      6.630     10.996
REMARK  Name = 16752640
REMARK  7 active torsions:
REMARK  status: ('A' for Active; 'I' for Inactive)
REMARK    1  A    between atoms: C_1  and  N_4
REMARK    2  A    between atoms: C_1  and  C_18
REMARK    3  A    between atoms: C_1  and  C_21
REMARK    4  A    between atoms: C_11  and  C_14
REMARK    5  A    between atoms: C_14  and  O_15
REMARK    6  A    between atoms: C_18  and  O_19
REMARK    7  A    between atoms: C_21  and  C_22
REMARK                            x       y       z     vdW  Elec       q    Type
REMARK                         _______ _______ _______ _____ _____    ______ ____
ROOT
ATOM      1  C   UNL     1      33.206 -13.502 -24.414  0.00  0.00    +0.186 C 
ENDROOT
BRANCH   1   4
ATOM      2  O   UNL     1      31.596 -12.270 -22.224  0.00  0.00    -0.269 OA
ATOM      3  O   UNL     1      34.857 -11.197 -25.336  0.00  0.00    -0.269 OA
ATOM      4  N   UNL     1      33.220 -12.137 -23.927  0.00  0.00    -0.213 N 
ATOM      5  C   UNL     1      32.743 -10.264 -22.746  0.00  0.00    +0.059 C 
ATOM      6  C   UNL     1      32.419 -11.682 -22.901  0.00  0.00    +0.256 C 
ATOM      7  C   UNL     1      34.034 -11.150 -24.441  0.00  0.00    +0.256 C 
ATOM      8  C   UNL     1      33.719  -9.942 -23.677  0.00  0.00    +0.058 C 
ATOM      9  C   UNL     1      32.234  -9.329 -21.869  0.00  0.00    +0.011 C 
ATOM     10  C   UNL     1      34.238  -8.668 -23.780  0.00  0.00    +0.005 C 
ATOM     11  C   UNL     1      32.745  -8.031 -21.954  0.00  0.00    +0.076 C 
ATOM     12  C   UNL     1      33.737  -7.703 -22.901  0.00  0.00    +0.007 C 
BRANCH  11  14
ATOM     13  O   UNL     1      31.505  -6.069 -21.377  0.00  0.00    -0.245 OA
ATOM     14  C   UNL     1      32.247  -7.003 -21.055  0.00  0.00    +0.338 C 
BRANCH  14  15
ATOM     15  O   UNL     1      32.688  -7.169 -19.779  0.00  0.00    -0.477 OA
ATOM     16  H   UNL     1      32.994  -8.008 -19.494  0.00  0.00    +0.295 HD
ENDBRANCH  14  15
ENDBRANCH  11  14
ENDBRANCH   1   4
BRANCH   1  18
ATOM     17  O   UNL     1      32.962 -12.607 -26.648  0.00  0.00    -0.248 OA
ATOM     18  C   UNL     1      32.811 -13.554 -25.883  0.00  0.00    +0.333 C 
BRANCH  18  19
ATOM     19  O   UNL     1      32.282 -14.733 -26.289  0.00  0.00    -0.479 OA
ATOM     20  H   UNL     1      31.448 -15.009 -25.963  0.00  0.00    +0.295 HD
ENDBRANCH  18  19
ENDBRANCH   1  18
BRANCH   1  21
ATOM     21  C   UNL     1      34.567 -14.182 -24.213  0.00  0.00    +0.058 C 
BRANCH  21  22
ATOM     22  C   UNL     1      34.566 -15.180 -23.080  0.00  0.00    -0.020 C 
ATOM     23  C   UNL     1      34.629 -16.564 -23.309  0.00  0.00    -0.004 C 
ATOM     24  C   UNL     1      34.625 -17.448 -22.204  0.00  0.00    -0.000 C 
ATOM     25  C   UNL     1      34.500 -14.674 -21.782  0.00  0.00    -0.004 C 
ATOM     26  C   UNL     1      34.696 -17.091 -24.609  0.00  0.00    -0.000 C 
ATOM     27  C   UNL     1      34.558 -16.922 -20.903  0.00  0.00    -0.000 C 
ATOM     28  C   UNL     1      34.496 -15.544 -20.695  0.00  0.00    -0.000 C 
ATOM     29  C   UNL     1      34.688 -18.832 -22.432  0.00  0.00    -0.000 C 
ATOM     30  C   UNL     1      34.757 -18.469 -24.817  0.00  0.00    -0.000 C 
ATOM     31  C   UNL     1      34.753 -19.338 -23.731  0.00  0.00    -0.000 C 
ENDBRANCH  21  22
ENDBRANCH   1  21
TORSDOF 7
ENDMDL
MODEL 5
REMARK VINA RESULT:     -11.1      6.206     10.708
REMARK  Name = 16752640
REMARK  7 active torsions:
REMARK  status: ('A' for Active; 'I' for Inactive)
REMARK    1  A    between atoms: C_1  and  N_4
REMARK    2  A    between atoms: C_1  and  C_18
REMARK    3  A    between atoms: C_1  and  C_21
REMARK    4  A    between atoms: C_11  and  C_14
REMARK    5  A    between atoms: C_14  and  O_15
REMARK    6  A    between atoms: C_18  and  O_19
REMARK    7  A    between atoms: C_21  and  C_22
REMARK                            x       y       z     vdW  Elec       q    Type
REMARK                         _______ _______ _______ _____ _____    ______ ____
ROOT
ATOM      1  C   UNL     1      33.260 -14.236 -24.396  0.00  0.00    +0.186 C 
ENDROOT
BRANCH   1   4
ATOM      2  O   UNL     1      34.162 -11.630 -25.538  0.00  0.00    -0.269 OA
ATOM      3  O   UNL     1      31.776 -13.360 -21.962  0.00  0.00    -0.269 OA
ATOM      4  N   UNL     1      33.038 -12.893 -23.896  0.00  0.00    -0.213 N 
ATOM      5  C   UNL     1      33.076 -10.639 -23.681  0.00  0.00    +0.059 C 
ATOM      6  C   UNL     1      33.513 -11.757 -24.516  0.00  0.00    +0.256 C 
ATOM      7  C   UNL     1      32.331 -12.612 -22.746  0.00  0.00    +0.256 C 
ATOM      8  C   UNL     1      32.361 -11.156 -22.610  0.00  0.00    +0.058 C 
ATOM      9  C   UNL     1      33.280  -9.284 -23.836  0.00  0.00    +0.011 C 
ATOM     10  C   UNL     1      31.813 -10.345 -21.639  0.00  0.00    +0.005 C 
ATOM     11  C   UNL     1      32.733  -8.442 -22.864  0.00  0.00    +0.076 C 
ATOM     12  C   UNL     1      32.008  -8.967 -21.775  0.00  0.00    +0.007 C 
BRANCH  11  14
ATOM     13  O   UNL     1      32.522  -6.166 -22.155  0.00  0.00    -0.245 OA
ATOM     14  C   UNL     1      32.915  -7.003 -22.975  0.00  0.00    +0.338 C 
BRANCH  14  15
ATOM     15  O   UNL     1      33.583  -6.649 -24.106  0.00  0.00    -0.477 OA
ATOM     16  H   UNL     1      34.162  -5.913 -24.097  0.00  0.00    +0.295 HD
ENDBRANCH  14  15
ENDBRANCH  11  14
ENDBRANCH   1   4
BRANCH   1  18
ATOM     17  O   UNL     1      33.732 -14.895 -26.676  0.00  0.00    -0.248 OA
ATOM     18  C   UNL     1      32.989 -14.311 -25.892  0.00  0.00    +0.333 C 
BRANCH  18  19
ATOM     19  O   UNL     1      31.857 -13.689 -26.298  0.00  0.00    -0.479 OA
ATOM     20  H   UNL     1      31.434 -13.072 -25.734  0.00  0.00    +0.295 HD
ENDBRANCH  18  19
ENDBRANCH   1  18
BRANCH   1  21
ATOM     21  C   UNL     1      34.685 -14.717 -24.096  0.00  0.00    +0.058 C 
BRANCH  21  22
ATOM     22  C   UNL     1      34.733 -15.797 -23.042  0.00  0.00    -0.020 C 
ATOM     23  C   UNL     1      34.762 -17.161 -23.376  0.00  0.00    -0.004 C 
ATOM     24  C   UNL     1      34.806 -18.125 -22.341  0.00  0.00    -0.000 C 
ATOM     25  C   UNL     1      34.748 -15.389 -21.708  0.00  0.00    -0.004 C 
ATOM     26  C   UNL     1      34.746 -17.589 -24.713  0.00  0.00    -0.000 C 
ATOM     27  C   UNL     1      34.821 -17.697 -21.003  0.00  0.00    -0.000 C 
ATOM     28  C   UNL     1      34.792 -16.338 -20.690  0.00  0.00    -0.000 C 
ATOM     29  C   UNL     1      34.835 -19.489 -22.674  0.00  0.00    -0.000 C 
ATOM     30  C   UNL     1      34.775 -18.948 -25.026  0.00  0.00    -0.000 C 
ATOM     31  C   UNL     1      34.819 -19.896 -24.009  0.00  0.00    -0.000 C 
ENDBRANCH  21  22
ENDBRANCH   1  21
TORSDOF 7
ENDMDL
MODEL 6
REMARK VINA RESULT:     -11.0      5.456      9.734
REMARK  Name = 16752640
REMARK  7 active torsions:
REMARK  status: ('A' for Active; 'I' for Inactive)
REMARK    1  A    between atoms: C_1  and  N_4
REMARK    2  A    between atoms: C_1  and  C_18
REMARK    3  A    between atoms: C_1  and  C_21
REMARK    4  A    between atoms: C_11  and  C_14
REMARK    5  A    between atoms: C_14  and  O_15
REMARK    6  A    between atoms: C_18  and  O_19
REMARK    7  A    between atoms: C_21  and  C_22
REMARK                            x       y       z     vdW  Elec       q    Type
REMARK                         _______ _______ _______ _____ _____    ______ ____
ROOT
ATOM      1  C   UNL     1      33.192 -14.723 -24.680  0.00  0.00    +0.186 C 
ENDROOT
BRANCH   1   4
ATOM      2  O   UNL     1      33.579 -11.794 -25.099  0.00  0.00    -0.269 OA
ATOM      3  O   UNL     1      31.995 -14.802 -21.951  0.00  0.00    -0.269 OA
ATOM      4  N   UNL     1      32.882 -13.624 -23.787  0.00  0.00    -0.213 N 
ATOM      5  C   UNL     1      32.670 -11.540 -22.926  0.00  0.00    +0.059 C 
ATOM      6  C   UNL     1      33.112 -12.300 -24.095  0.00  0.00    +0.256 C 
ATOM      7  C   UNL     1      32.327 -13.788 -22.536  0.00  0.00    +0.256 C 
ATOM      8  C   UNL     1      32.196 -12.440 -21.983  0.00  0.00    +0.058 C 
ATOM      9  C   UNL     1      32.678 -10.180 -22.698  0.00  0.00    +0.011 C 
ATOM     10  C   UNL     1      31.703 -12.027 -20.762  0.00  0.00    +0.005 C 
ATOM     11  C   UNL     1      32.183  -9.738 -21.467  0.00  0.00    +0.076 C 
ATOM     12  C   UNL     1      31.702 -10.652 -20.508  0.00  0.00    +0.007 C 
BRANCH  11  14
ATOM     13  O   UNL     1      31.579  -7.452 -21.834  0.00  0.00    -0.245 OA
ATOM     14  C   UNL     1      32.166  -8.314 -21.171  0.00  0.00    +0.338 C 
BRANCH  14  15
ATOM     15  O   UNL     1      32.881  -8.006 -20.056  0.00  0.00    -0.477 OA
ATOM     16  H   UNL     1      33.012  -7.110 -19.816  0.00  0.00    +0.295 HD
ENDBRANCH  14  15
ENDBRANCH  11  14
ENDBRANCH   1   4
BRANCH   1  18
ATOM     17  O   UNL     1      33.998 -14.286 -26.919  0.00  0.00    -0.248 OA
ATOM     18  C   UNL     1      33.054 -14.298 -26.136  0.00  0.00    +0.333 C 
BRANCH  18  19
ATOM     19  O   UNL     1      31.803 -13.938 -26.508  0.00  0.00    -0.479 OA
ATOM     20  H   UNL     1      31.680 -13.283 -27.167  0.00  0.00    +0.295 HD
ENDBRANCH  18  19
ENDBRANCH   1  18
BRANCH   1  21
ATOM     21  C   UNL     1      34.601 -15.272 -24.426  0.00  0.00    +0.058 C 
BRANCH  21  22
ATOM     22  C   UNL     1      34.639 -16.779 -24.332  0.00  0.00    -0.020 C 
ATOM     23  C   UNL     1      34.873 -17.442 -23.116  0.00  0.00    -0.004 C 
ATOM     24  C   UNL     1      34.896 -18.857 -23.094  0.00  0.00    -0.000 C 
ATOM     25  C   UNL     1      34.429 -17.498 -25.508  0.00  0.00    -0.004 C 
ATOM     26  C   UNL     1      35.087 -16.733 -21.923  0.00  0.00    -0.000 C 
ATOM     27  C   UNL     1      34.682 -19.566 -24.288  0.00  0.00    -0.000 C 
ATOM     28  C   UNL     1      34.451 -18.891 -25.486  0.00  0.00    -0.000 C 
ATOM     29  C   UNL     1      35.130 -19.521 -21.879  0.00  0.00    -0.000 C 
ATOM     30  C   UNL     1      35.319 -17.409 -20.725  0.00  0.00    -0.000 C 
ATOM     31  C   UNL     1      35.341 -18.800 -20.703  0.00  0.00    -0.000 C 
ENDBRANCH  21  22
ENDBRANCH   1  21
TORSDOF 7
ENDMDL
MODEL 7
REMARK VINA RESULT:     -10.9      5.560      9.642
REMARK  Name = 16752640
REMARK  7 active torsions:
REMARK  status: ('A' for Active; 'I' for Inactive)
REMARK    1  A    between atoms: C_1  and  N_4
REMARK    2  A    between atoms: C_1  and  C_18
REMARK    3  A    between atoms: C_1  and  C_21
REMARK    4  A    between atoms: C_11  and  C_14
REMARK    5  A    between atoms: C_14  and  O_15
REMARK    6  A    between atoms: C_18  and  O_19
REMARK    7  A    between atoms: C_21  and  C_22
REMARK                            x       y       z     vdW  Elec       q    Type
REMARK                         _______ _______ _______ _____ _____    ______ ____
ROOT
ATOM      1  C   UNL     1      33.216 -14.751 -24.812  0.00  0.00    +0.186 C 
ENDROOT
BRANCH   1   4
ATOM      2  O   UNL     1      32.068 -14.554 -22.065  0.00  0.00    -0.269 OA
ATOM      3  O   UNL     1      33.754 -11.891 -25.461  0.00  0.00    -0.269 OA
ATOM      4  N   UNL     1      32.978 -13.571 -24.004  0.00  0.00    -0.213 N 
ATOM      5  C   UNL     1      32.360 -12.215 -22.299  0.00  0.00    +0.059 C 
ATOM      6  C   UNL     1      32.434 -13.608 -22.738  0.00  0.00    +0.256 C 
ATOM      7  C   UNL     1      33.269 -12.288 -24.418  0.00  0.00    +0.256 C 
ATOM      8  C   UNL     1      32.865 -11.417 -23.315  0.00  0.00    +0.058 C 
ATOM      9  C   UNL     1      31.895 -11.682 -21.115  0.00  0.00    +0.011 C 
ATOM     10  C   UNL     1      32.931 -10.044 -23.200  0.00  0.00    +0.005 C 
ATOM     11  C   UNL     1      31.952 -10.292 -20.976  0.00  0.00    +0.076 C 
ATOM     12  C   UNL     1      32.464  -9.481 -22.009  0.00  0.00    +0.007 C 
BRANCH  11  14
ATOM     13  O   UNL     1      31.808  -8.558 -19.335  0.00  0.00    -0.245 OA
ATOM     14  C   UNL     1      31.476  -9.673 -19.749  0.00  0.00    +0.338 C 
BRANCH  14  15
ATOM     15  O   UNL     1      30.599 -10.464 -19.074  0.00  0.00    -0.477 OA
ATOM     16  H   UNL     1      30.913 -11.074 -18.436  0.00  0.00    +0.295 HD
ENDBRANCH  14  15
ENDBRANCH  11  14
ENDBRANCH   1   4
BRANCH   1  18
ATOM     17  O   UNL     1      33.870 -14.648 -27.140  0.00  0.00    -0.248 OA
ATOM     18  C   UNL     1      33.007 -14.451 -26.290  0.00  0.00    +0.333 C 
BRANCH  18  19
ATOM     19  O   UNL     1      31.787 -13.953 -26.603  0.00  0.00    -0.479 OA
ATOM     20  H   UNL     1      31.255 -14.384 -27.243  0.00  0.00    +0.295 HD
ENDBRANCH  18  19
ENDBRANCH   1  18
BRANCH   1  21
ATOM     21  C   UNL     1      34.627 -15.309 -24.586  0.00  0.00    +0.058 C 
BRANCH  21  22
ATOM     22  C   UNL     1      34.646 -16.810 -24.418  0.00  0.00    -0.020 C 
ATOM     23  C   UNL     1      34.858 -17.416 -23.168  0.00  0.00    -0.004 C 
ATOM     24  C   UNL     1      34.865 -18.827 -23.078  0.00  0.00    -0.000 C 
ATOM     25  C   UNL     1      34.444 -17.584 -25.561  0.00  0.00    -0.004 C 
ATOM     26  C   UNL     1      35.065 -16.652 -22.009  0.00  0.00    -0.000 C 
ATOM     27  C   UNL     1      34.658 -19.592 -24.238  0.00  0.00    -0.000 C 
ATOM     28  C   UNL     1      34.450 -18.973 -25.470  0.00  0.00    -0.000 C 
ATOM     29  C   UNL     1      35.077 -19.434 -21.829  0.00  0.00    -0.000 C 
ATOM     30  C   UNL     1      35.274 -17.271 -20.776  0.00  0.00    -0.000 C 
ATOM     31  C   UNL     1      35.280 -18.659 -20.686  0.00  0.00    -0.000 C 
ENDBRANCH  21  22
ENDBRANCH   1  21
TORSDOF 7
ENDMDL
MODEL 8
REMARK VINA RESULT:     -10.9      4.405      7.762
REMARK  Name = 16752640
REMARK  7 active torsions:
REMARK  status: ('A' for Active; 'I' for Inactive)
REMARK    1  A    between atoms: C_1  and  N_4
REMARK    2  A    between atoms: C_1  and  C_18
REMARK    3  A    between atoms: C_1  and  C_21
REMARK    4  A    between atoms: C_11  and  C_14
REMARK    5  A    between atoms: C_14  and  O_15
REMARK    6  A    between atoms: C_18  and  O_19
REMARK    7  A    between atoms: C_21  and  C_22
REMARK                            x       y       z     vdW  Elec       q    Type
REMARK                         _______ _______ _______ _____ _____    ______ ____
ROOT
ATOM      1  C   UNL     1      33.515 -13.029 -23.218  0.00  0.00    +0.186 C 
ENDROOT
BRANCH   1   4
ATOM      2  O   UNL     1      34.320 -14.361 -20.672  0.00  0.00    -0.269 OA
ATOM      3  O   UNL     1      33.798 -15.247 -25.190  0.00  0.00    -0.269 OA
ATOM      4  N   UNL     1      33.938 -14.398 -22.998  0.00  0.00    -0.213 N 
ATOM      5  C   UNL     1      34.656 -16.297 -21.996  0.00  0.00    +0.059 C 
ATOM      6  C   UNL     1      34.292 -14.900 -21.763  0.00  0.00    +0.256 C 
ATOM      7  C   UNL     1      34.032 -15.341 -24.000  0.00  0.00    +0.256 C 
ATOM      8  C   UNL     1      34.500 -16.564 -23.348  0.00  0.00    +0.058 C 
ATOM      9  C   UNL     1      35.088 -17.260 -21.107  0.00  0.00    +0.011 C 
ATOM     10  C   UNL     1      34.766 -17.807 -23.883  0.00  0.00    +0.005 C 
ATOM     11  C   UNL     1      35.364 -18.528 -21.627  0.00  0.00    +0.076 C 
ATOM     12  C   UNL     1      35.206 -18.799 -23.001  0.00  0.00    +0.007 C 
BRANCH  11  14
ATOM     13  O   UNL     1      36.958 -19.675 -20.260  0.00  0.00    -0.245 OA
ATOM     14  C   UNL     1      35.822 -19.584 -20.737  0.00  0.00    +0.338 C 
BRANCH  14  15
ATOM     15  O   UNL     1      34.849 -20.497 -20.469  0.00  0.00    -0.477 OA
ATOM     16  H   UNL     1      33.950 -20.281 -20.618  0.00  0.00    +0.295 HD
ENDBRANCH  14  15
ENDBRANCH  11  14
ENDBRANCH   1   4
BRANCH   1  18
ATOM     17  O   UNL     1      34.623 -11.974 -25.093  0.00  0.00    -0.248 OA
ATOM     18  C   UNL     1      33.677 -12.637 -24.681  0.00  0.00    +0.333 C 
BRANCH  18  19
ATOM     19  O   UNL     1      32.696 -13.083 -25.501  0.00  0.00    -0.479 OA
ATOM     20  H   UNL     1      32.076 -12.479 -25.862  0.00  0.00    +0.295 HD
ENDBRANCH  18  19
ENDBRANCH   1  18
BRANCH   1  21
ATOM     21  C   UNL     1      32.063 -12.813 -22.776  0.00  0.00    +0.058 C 
BRANCH  21  22
ATOM     22  C   UNL     1      31.925 -11.768 -21.695  0.00  0.00    -0.020 C 
ATOM     23  C   UNL     1      32.020 -10.394 -21.972  0.00  0.00    -0.004 C 
ATOM     24  C   UNL     1      31.882  -9.465 -20.914  0.00  0.00    -0.000 C 
ATOM     25  C   UNL     1      31.698 -12.219 -20.394  0.00  0.00    -0.004 C 
ATOM     26  C   UNL     1      32.250  -9.923 -23.275  0.00  0.00    -0.000 C 
ATOM     27  C   UNL     1      31.653  -9.936 -19.611  0.00  0.00    -0.000 C 
ATOM     28  C   UNL     1      31.562 -11.303 -19.354  0.00  0.00    -0.000 C 
ATOM     29  C   UNL     1      31.977  -8.091 -21.191  0.00  0.00    -0.000 C 
ATOM     30  C   UNL     1      32.341  -8.555 -23.532  0.00  0.00    -0.000 C 
ATOM     31  C   UNL     1      32.206  -7.641 -22.492  0.00  0.00    -0.000 C 
ENDBRANCH  21  22
ENDBRANCH   1  21
TORSDOF 7
ENDMDL
MODEL 9
REMARK VINA RESULT:     -10.8      4.355      9.346
REMARK  Name = 16752640
REMARK  7 active torsions:
REMARK  status: ('A' for Active; 'I' for Inactive)
REMARK    1  A    between atoms: C_1  and  N_4
REMARK    2  A    between atoms: C_1  and  C_18
REMARK    3  A    between atoms: C_1  and  C_21
REMARK    4  A    between atoms: C_11  and  C_14
REMARK    5  A    between atoms: C_14  and  O_15
REMARK    6  A    between atoms: C_18  and  O_19
REMARK    7  A    between atoms: C_21  and  C_22
REMARK                            x       y       z     vdW  Elec       q    Type
REMARK                         _______ _______ _______ _____ _____    ______ ____
ROOT
ATOM      1  C   UNL     1      33.722 -16.430 -22.735  0.00  0.00    +0.186 C 
ENDROOT
BRANCH   1   4
ATOM      2  O   UNL     1      33.766 -13.966 -24.418  0.00  0.00    -0.269 OA
ATOM      3  O   UNL     1      32.414 -15.450 -20.241  0.00  0.00    -0.269 OA
ATOM      4  N   UNL     1      33.237 -15.101 -22.420  0.00  0.00    -0.213 N 
ATOM      5  C   UNL     1      32.730 -12.899 -22.574  0.00  0.00    +0.059 C 
ATOM      6  C   UNL     1      33.317 -14.032 -23.288  0.00  0.00    +0.256 C 
ATOM      7  C   UNL     1      32.647 -14.765 -21.220  0.00  0.00    +0.256 C 
ATOM      8  C   UNL     1      32.325 -13.342 -21.324  0.00  0.00    +0.058 C 
ATOM      9  C   UNL     1      32.560 -11.590 -22.975  0.00  0.00    +0.011 C 
ATOM     10  C   UNL     1      31.727 -12.500 -20.409  0.00  0.00    +0.005 C 
ATOM     11  C   UNL     1      31.956 -10.718 -22.064  0.00  0.00    +0.076 C 
ATOM     12  C   UNL     1      31.545 -11.168 -20.793  0.00  0.00    +0.007 C 
BRANCH  11  14
ATOM     13  O   UNL     1      31.368  -8.927 -23.538  0.00  0.00    -0.245 OA
ATOM     14  C   UNL     1      31.750  -9.326 -22.432  0.00  0.00    +0.338 C 
BRANCH  14  15
ATOM     15  O   UNL     1      32.025  -8.472 -21.410  0.00  0.00    -0.477 OA
ATOM     16  H   UNL     1      32.645  -7.780 -21.532  0.00  0.00    +0.295 HD
ENDBRANCH  14  15
ENDBRANCH  11  14
ENDBRANCH   1   4
BRANCH   1  18
ATOM     17  O   UNL     1      33.946 -16.796 -25.116  0.00  0.00    -0.248 OA
ATOM     18  C   UNL     1      34.466 -16.440 -24.063  0.00  0.00    +0.333 C 
BRANCH  18  19
ATOM     19  O   UNL     1      35.750 -16.015 -23.999  0.00  0.00    -0.479 OA
ATOM     20  H   UNL     1      36.259 -16.179 -23.230  0.00  0.00    +0.295 HD
ENDBRANCH  18  19
ENDBRANCH   1  18
BRANCH   1  21
ATOM     21  C   UNL     1      34.628 -16.974 -21.623  0.00  0.00    +0.058 C 
BRANCH  21  22
ATOM     22  C   UNL     1      34.182 -18.320 -21.105  0.00  0.00    -0.020 C 
ATOM     23  C   UNL     1      35.101 -19.303 -20.701  0.00  0.00    -0.004 C 
ATOM     24  C   UNL     1      34.619 -20.545 -20.224  0.00  0.00    -0.000 C 
ATOM     25  C   UNL     1      32.809 -18.558 -21.041  0.00  0.00    -0.004 C 
ATOM     26  C   UNL     1      36.486 -19.080 -20.759  0.00  0.00    -0.000 C 
ATOM     27  C   UNL     1      33.233 -20.768 -20.165  0.00  0.00    -0.000 C 
ATOM     28  C   UNL     1      32.336 -19.781 -20.571  0.00  0.00    -0.000 C 
ATOM     29  C   UNL     1      35.537 -21.528 -19.820  0.00  0.00    -0.000 C 
ATOM     30  C   UNL     1      37.384 -20.068 -20.354  0.00  0.00    -0.000 C 
ATOM     31  C   UNL     1      36.910 -21.289 -19.885  0.00  0.00    -0.000 C 
ENDBRANCH  21  22
ENDBRANCH   1  21
TORSDOF 7
ENDMDL
