MODEL 1
REMARK VINA RESULT:     -11.6      0.000      0.000
REMARK  Name = 6323250
REMARK  8 active torsions:
REMARK  status: ('A' for Active; 'I' for Inactive)
REMARK    1  A    between atoms: N_2  and  C_23
REMARK    2  A    between atoms: N_3  and  C_5
REMARK    3  A    between atoms: N_3  and  C_12
REMARK    4  A    between atoms: C_12  and  C_15
REMARK    5  A    between atoms: C_15  and  C_17
REMARK    6  A    between atoms: C_23  and  C_26
REMARK    7  A    between atoms: N_25  and  C_28
REMARK    8  A    between atoms: C_28  and  C_31
REMARK                            x       y       z     vdW  Elec       q    Type
REMARK                         _______ _______ _______ _____ _____    ______ ____
ROOT
ATOM      1  O   UNL     1      34.921 -14.238 -22.056  0.00  0.00    -0.271 OA
ATOM      2  N   UNL     1      33.935 -14.107 -24.167  0.00  0.00    -0.250 N 
ATOM      3  N   UNL     1      34.297 -16.809 -24.358  0.00  0.00    -0.313 N 
ATOM      4  C   UNL     1      34.704 -16.214 -23.246  0.00  0.00    +0.207 C 
ATOM      5  C   UNL     1      33.528 -14.788 -25.312  0.00  0.00    +0.046 C 
ATOM      6  C   UNL     1      34.538 -14.781 -23.089  0.00  0.00    +0.263 C 
ATOM      7  C   UNL     1      33.716 -16.113 -25.385  0.00  0.00    +0.070 C 
ATOM      8  C   UNL     1      32.889 -14.039 -26.445  0.00  0.00    +0.049 C 
ATOM      9  H   UNL     1      34.416 -17.782 -24.449  0.00  0.00    +0.148 HD
ENDROOT
BRANCH   4  10
ATOM     10  N   UNL     1      35.272 -16.845 -22.227  0.00  0.00    -0.271 NA
ATOM     11  H   UNL     1      36.196 -16.616 -21.973  0.00  0.00    +0.125 HD
BRANCH  10  12
ATOM     12  C   UNL     1      34.559 -17.871 -21.474  0.00  0.00    +0.140 C 
BRANCH  12  15
ATOM     13  F   UNL     1      36.638 -18.948 -21.437  0.00  0.00    -0.201 F 
ATOM     14  F   UNL     1      35.192 -19.605 -22.914  0.00  0.00    -0.201 F 
ATOM     15  C   UNL     1      35.307 -19.191 -21.618  0.00  0.00    +0.298 C 
BRANCH  15  17
ATOM     16  N   UNL     1      35.671 -21.016 -20.068  0.00  0.00    -0.325 N 
ATOM     17  C   UNL     1      34.779 -20.217 -20.646  0.00  0.00    +0.155 C 
ATOM     18  C   UNL     1      33.434 -20.316 -20.375  0.00  0.00    -0.001 C 
ATOM     19  C   UNL     1      35.301 -21.959 -19.191  0.00  0.00    +0.058 C 
ATOM     20  C   UNL     1      33.021 -21.288 -19.468  0.00  0.00    -0.001 C 
ATOM     21  C   UNL     1      33.960 -22.120 -18.867  0.00  0.00    +0.015 C 
ATOM     22  H   UNL     1      36.624 -20.912 -20.290  0.00  0.00    +0.147 HD
ENDBRANCH  15  17
ENDBRANCH  12  15
ENDBRANCH  10  12
ENDBRANCH   4  10
BRANCH   2  23
ATOM     23  C   UNL     1      33.741 -12.662 -24.073  0.00  0.00    +0.183 C 
BRANCH  23  26
ATOM     24  O   UNL     1      31.853 -13.229 -22.675  0.00  0.00    -0.273 OA
ATOM     25  N   UNL     1      32.508 -11.005 -22.851  0.00  0.00    -0.298 N 
ATOM     26  C   UNL     1      32.607 -12.364 -23.115  0.00  0.00    +0.243 C 
ATOM     27  H   UNL     1      33.169 -10.401 -23.259  0.00  0.00    +0.150 HD
BRANCH  25  28
ATOM     28  C   UNL     1      31.483 -10.434 -22.007  0.00  0.00    +0.138 C 
BRANCH  28  31
ATOM     29  F   UNL     1      31.035  -8.378 -23.879  0.00  0.00    -0.203 F 
ATOM     30  N   UNL     1      32.221  -8.721 -20.466  0.00  0.00    -0.244 NA
ATOM     31  C   UNL     1      31.750  -8.989 -21.700  0.00  0.00    +0.106 C 
ATOM     32  C   UNL     1      31.504  -8.038 -22.671  0.00  0.00    +0.151 C 
ATOM     33  C   UNL     1      31.762  -6.710 -22.351  0.00  0.00    +0.008 C 
ATOM     34  C   UNL     1      32.249  -6.386 -21.089  0.00  0.00    +0.019 C 
ATOM     35  C   UNL     1      32.460  -7.420 -20.191  0.00  0.00    +0.098 C 
ATOM     36  C   UNL     1      31.519  -5.634 -23.355  0.00  0.00    +0.033 C 
ENDBRANCH  28  31
ENDBRANCH  25  28
ENDBRANCH  23  26
ENDBRANCH   2  23
TORSDOF 8
ENDMDL
MODEL 2
REMARK VINA RESULT:     -11.5      1.910      2.759
REMARK  Name = 6323250
REMARK  8 active torsions:
REMARK  status: ('A' for Active; 'I' for Inactive)
REMARK    1  A    between atoms: N_2  and  C_23
REMARK    2  A    between atoms: N_3  and  C_5
REMARK    3  A    between atoms: N_3  and  C_12
REMARK    4  A    between atoms: C_12  and  C_15
REMARK    5  A    between atoms: C_15  and  C_17
REMARK    6  A    between atoms: C_23  and  C_26
REMARK    7  A    between atoms: N_25  and  C_28
REMARK    8  A    between atoms: C_28  and  C_31
REMARK                            x       y       z     vdW  Elec       q    Type
REMARK                         _______ _______ _______ _____ _____    ______ ____
ROOT
ATOM      1  O   UNL     1      35.138 -16.467 -20.448  0.00  0.00    -0.271 OA
ATOM      2  N   UNL     1      34.700 -16.253 -22.730  0.00  0.00    -0.250 N 
ATOM      3  N   UNL     1      34.885 -18.975 -22.887  0.00  0.00    -0.313 N 
ATOM      4  C   UNL     1      35.060 -18.417 -21.697  0.00  0.00    +0.207 C 
ATOM      5  C   UNL     1      34.527 -16.896 -23.953  0.00  0.00    +0.046 C 
ATOM      6  C   UNL     1      34.973 -16.976 -21.554  0.00  0.00    +0.263 C 
ATOM      7  C   UNL     1      34.623 -18.231 -24.007  0.00  0.00    +0.070 C 
ATOM      8  C   UNL     1      34.239 -16.095 -25.190  0.00  0.00    +0.049 C 
ATOM      9  H   UNL     1      34.947 -19.953 -22.968  0.00  0.00    +0.148 HD
ENDROOT
BRANCH   4  10
ATOM     10  N   UNL     1      35.316 -19.094 -20.586  0.00  0.00    -0.271 NA
ATOM     11  H   UNL     1      35.890 -18.688 -19.896  0.00  0.00    +0.125 HD
BRANCH  10  12
ATOM     12  C   UNL     1      34.766 -20.427 -20.363  0.00  0.00    +0.140 C 
BRANCH  12  15
ATOM     13  F   UNL     1      36.838 -20.458 -19.272  0.00  0.00    -0.201 F 
ATOM     14  F   UNL     1      36.367 -22.120 -20.584  0.00  0.00    -0.201 F 
ATOM     15  C   UNL     1      35.817 -21.278 -19.661  0.00  0.00    +0.298 C 
BRANCH  15  17
ATOM     16  N   UNL     1      35.977 -22.181 -17.419  0.00  0.00    -0.325 N 
ATOM     17  C   UNL     1      35.214 -22.026 -18.497  0.00  0.00    +0.155 C 
ATOM     18  C   UNL     1      33.933 -22.522 -18.556  0.00  0.00    -0.001 C 
ATOM     19  C   UNL     1      35.532 -22.831 -16.335  0.00  0.00    +0.058 C 
ATOM     20  C   UNL     1      33.445 -23.203 -17.444  0.00  0.00    -0.001 C 
ATOM     21  C   UNL     1      34.249 -23.360 -16.320  0.00  0.00    +0.015 C 
ATOM     22  H   UNL     1      36.888 -21.810 -17.418  0.00  0.00    +0.147 HD
ENDBRANCH  15  17
ENDBRANCH  12  15
ENDBRANCH  10  12
ENDBRANCH   4  10
BRANCH   2  23
ATOM     23  C   UNL     1      34.601 -14.797 -22.654  0.00  0.00    +0.183 C 
BRANCH  23  26
ATOM     24  O   UNL     1      32.349 -15.196 -21.875  0.00  0.00    -0.273 OA
ATOM     25  N   UNL     1      32.945 -13.063 -22.580  0.00  0.00    -0.298 N 
ATOM     26  C   UNL     1      33.182 -14.402 -22.304  0.00  0.00    +0.243 C 
ATOM     27  H   UNL     1      33.689 -12.517 -22.922  0.00  0.00    +0.150 HD
BRANCH  25  28
ATOM     28  C   UNL     1      31.659 -12.430 -22.388  0.00  0.00    +0.138 C 
BRANCH  28  31
ATOM     29  F   UNL     1      32.185  -9.754 -23.095  0.00  0.00    -0.203 F 
ATOM     30  N   UNL     1      31.514 -11.680 -20.092  0.00  0.00    -0.244 NA
ATOM     31  C   UNL     1      31.724 -11.324 -21.376  0.00  0.00    +0.106 C 
ATOM     32  C   UNL     1      31.986 -10.036 -21.801  0.00  0.00    +0.151 C 
ATOM     33  C   UNL     1      32.038  -9.037 -20.835  0.00  0.00    +0.008 C 
ATOM     34  C   UNL     1      31.828  -9.358 -19.498  0.00  0.00    +0.019 C 
ATOM     35  C   UNL     1      31.572 -10.683 -19.182  0.00  0.00    +0.098 C 
ATOM     36  C   UNL     1      32.318  -7.626 -21.227  0.00  0.00    +0.033 C 
ENDBRANCH  28  31
ENDBRANCH  25  28
ENDBRANCH  23  26
ENDBRANCH   2  23
TORSDOF 8
ENDMDL
MODEL 3
REMARK VINA RESULT:     -11.1      1.646      9.736
REMARK  Name = 6323250
REMARK  8 active torsions:
REMARK  status: ('A' for Active; 'I' for Inactive)
REMARK    1  A    between atoms: N_2  and  C_23
REMARK    2  A    between atoms: N_3  and  C_5
REMARK    3  A    between atoms: N_3  and  C_12
REMARK    4  A    between atoms: C_12  and  C_15
REMARK    5  A    between atoms: C_15  and  C_17
REMARK    6  A    between atoms: C_23  and  C_26
REMARK    7  A    between atoms: N_25  and  C_28
REMARK    8  A    between atoms: C_28  and  C_31
REMARK                            x       y       z     vdW  Elec       q    Type
REMARK                         _______ _______ _______ _____ _____    ______ ____
ROOT
ATOM      1  O   UNL     1      33.451 -12.488 -22.448  0.00  0.00    -0.271 OA
ATOM      2  N   UNL     1      33.267 -13.965 -24.246  0.00  0.00    -0.250 N 
ATOM      3  N   UNL     1      33.621 -11.806 -25.885  0.00  0.00    -0.313 N 
ATOM      4  C   UNL     1      33.628 -11.590 -24.576  0.00  0.00    +0.207 C 
ATOM      5  C   UNL     1      33.267 -14.129 -25.629  0.00  0.00    +0.046 C 
ATOM      6  C   UNL     1      33.444 -12.698 -23.659  0.00  0.00    +0.263 C 
ATOM      7  C   UNL     1      33.442 -13.057 -26.414  0.00  0.00    +0.070 C 
ATOM      8  C   UNL     1      33.073 -15.494 -26.224  0.00  0.00    +0.049 C 
ATOM      9  H   UNL     1      33.747 -11.044 -26.494  0.00  0.00    +0.148 HD
ENDROOT
BRANCH   4  10
ATOM     10  N   UNL     1      33.796 -10.398 -24.019  0.00  0.00    -0.271 NA
ATOM     11  H   UNL     1      34.662 -10.181 -23.601  0.00  0.00    +0.125 HD
BRANCH  10  12
ATOM     12  C   UNL     1      32.729  -9.404 -24.009  0.00  0.00    +0.140 C 
BRANCH  12  15
ATOM     13  F   UNL     1      32.250  -7.378 -22.939  0.00  0.00    -0.201 F 
ATOM     14  F   UNL     1      34.143  -8.331 -22.483  0.00  0.00    -0.201 F 
ATOM     15  C   UNL     1      32.826  -8.596 -22.721  0.00  0.00    +0.298 C 
BRANCH  15  17
ATOM     16  N   UNL     1      31.436 -10.393 -21.880  0.00  0.00    -0.325 N 
ATOM     17  C   UNL     1      32.179  -9.333 -21.574  0.00  0.00    +0.155 C 
ATOM     18  C   UNL     1      32.355  -8.923 -20.273  0.00  0.00    -0.001 C 
ATOM     19  C   UNL     1      30.821 -11.113 -20.932  0.00  0.00    +0.058 C 
ATOM     20  C   UNL     1      31.727  -9.652 -19.268  0.00  0.00    -0.001 C 
ATOM     21  C   UNL     1      30.952 -10.760 -19.595  0.00  0.00    +0.015 C 
ATOM     22  H   UNL     1      31.336 -10.653 -22.823  0.00  0.00    +0.147 HD
ENDBRANCH  15  17
ENDBRANCH  12  15
ENDBRANCH  10  12
ENDBRANCH   4  10
BRANCH   2  23
ATOM     23  C   UNL     1      33.075 -15.123 -23.376  0.00  0.00    +0.183 C 
BRANCH  23  26
ATOM     24  O   UNL     1      35.462 -15.406 -23.619  0.00  0.00    -0.273 OA
ATOM     25  N   UNL     1      34.238 -17.015 -22.470  0.00  0.00    -0.298 N 
ATOM     26  C   UNL     1      34.398 -15.828 -23.171  0.00  0.00    +0.243 C 
ATOM     27  H   UNL     1      33.337 -17.255 -22.157  0.00  0.00    +0.150 HD
BRANCH  25  28
ATOM     28  C   UNL     1      35.331 -17.915 -22.175  0.00  0.00    +0.138 C 
BRANCH  28  31
ATOM     29  F   UNL     1      37.147 -19.462 -20.677  0.00  0.00    -0.203 F 
ATOM     30  N   UNL     1      33.572 -19.321 -21.291  0.00  0.00    -0.244 NA
ATOM     31  C   UNL     1      34.895 -19.063 -21.313  0.00  0.00    +0.106 C 
ATOM     32  C   UNL     1      35.846 -19.775 -20.607  0.00  0.00    +0.151 C 
ATOM     33  C   UNL     1      35.405 -20.831 -19.818  0.00  0.00    +0.008 C 
ATOM     34  C   UNL     1      34.049 -21.133 -19.765  0.00  0.00    +0.019 C 
ATOM     35  C   UNL     1      33.181 -20.354 -20.512  0.00  0.00    +0.098 C 
ATOM     36  C   UNL     1      36.380 -21.640 -19.032  0.00  0.00    +0.033 C 
ENDBRANCH  28  31
ENDBRANCH  25  28
ENDBRANCH  23  26
ENDBRANCH   2  23
TORSDOF 8
ENDMDL
MODEL 4
REMARK VINA RESULT:     -11.1      1.250      1.492
REMARK  Name = 6323250
REMARK  8 active torsions:
REMARK  status: ('A' for Active; 'I' for Inactive)
REMARK    1  A    between atoms: N_2  and  C_23
REMARK    2  A    between atoms: N_3  and  C_5
REMARK    3  A    between atoms: N_3  and  C_12
REMARK    4  A    between atoms: C_12  and  C_15
REMARK    5  A    between atoms: C_15  and  C_17
REMARK    6  A    between atoms: C_23  and  C_26
REMARK    7  A    between atoms: N_25  and  C_28
REMARK    8  A    between atoms: C_28  and  C_31
REMARK                            x       y       z     vdW  Elec       q    Type
REMARK                         _______ _______ _______ _____ _____    ______ ____
ROOT
ATOM      1  O   UNL     1      34.401 -14.286 -22.015  0.00  0.00    -0.271 OA
ATOM      2  N   UNL     1      33.371 -14.144 -24.105  0.00  0.00    -0.250 N 
ATOM      3  N   UNL     1      34.719 -16.424 -24.778  0.00  0.00    -0.313 N 
ATOM      4  C   UNL     1      34.907 -15.938 -23.558  0.00  0.00    +0.207 C 
ATOM      5  C   UNL     1      33.215 -14.701 -25.372  0.00  0.00    +0.046 C 
ATOM      6  C   UNL     1      34.218 -14.730 -23.147  0.00  0.00    +0.263 C 
ATOM      7  C   UNL     1      33.885 -15.819 -25.681  0.00  0.00    +0.070 C 
ATOM      8  C   UNL     1      32.304 -14.049 -26.372  0.00  0.00    +0.049 C 
ATOM      9  H   UNL     1      35.193 -17.244 -25.042  0.00  0.00    +0.148 HD
ENDROOT
BRANCH   4  10
ATOM     10  N   UNL     1      35.704 -16.488 -22.651  0.00  0.00    -0.271 NA
ATOM     11  H   UNL     1      36.672 -16.309 -22.689  0.00  0.00    +0.125 HD
BRANCH  10  12
ATOM     12  C   UNL     1      35.179 -17.353 -21.601  0.00  0.00    +0.140 C 
BRANCH  12  15
ATOM     13  F   UNL     1      37.083 -18.711 -21.493  0.00  0.00    -0.201 F 
ATOM     14  F   UNL     1      35.689 -19.062 -23.116  0.00  0.00    -0.201 F 
ATOM     15  C   UNL     1      35.751 -18.753 -21.788  0.00  0.00    +0.298 C 
BRANCH  15  17
ATOM     16  N   UNL     1      33.687 -19.643 -20.887  0.00  0.00    -0.325 N 
ATOM     17  C   UNL     1      35.011 -19.755 -20.937  0.00  0.00    +0.155 C 
ATOM     18  C   UNL     1      35.682 -20.736 -20.247  0.00  0.00    -0.001 C 
ATOM     19  C   UNL     1      32.941 -20.484 -20.159  0.00  0.00    +0.058 C 
ATOM     20  C   UNL     1      34.932 -21.625 -19.481  0.00  0.00    -0.001 C 
ATOM     21  C   UNL     1      33.547 -21.502 -19.434  0.00  0.00    +0.015 C 
ATOM     22  H   UNL     1      33.246 -18.926 -21.396  0.00  0.00    +0.147 HD
ENDBRANCH  15  17
ENDBRANCH  12  15
ENDBRANCH  10  12
ENDBRANCH   4  10
BRANCH   2  23
ATOM     23  C   UNL     1      32.649 -12.923 -23.753  0.00  0.00    +0.183 C 
BRANCH  23  26
ATOM     24  O   UNL     1      34.489 -11.770 -24.813  0.00  0.00    -0.273 OA
ATOM     25  N   UNL     1      33.048 -10.580 -23.430  0.00  0.00    -0.298 N 
ATOM     26  C   UNL     1      33.499 -11.716 -24.086  0.00  0.00    +0.243 C 
ATOM     27  H   UNL     1      32.242 -10.652 -22.871  0.00  0.00    +0.150 HD
BRANCH  25  28
ATOM     28  C   UNL     1      33.704  -9.295 -23.528  0.00  0.00    +0.138 C 
BRANCH  28  31
ATOM     29  F   UNL     1      32.839  -6.822 -24.564  0.00  0.00    -0.203 F 
ATOM     30  N   UNL     1      32.856  -8.568 -21.382  0.00  0.00    -0.244 NA
ATOM     31  C   UNL     1      33.030  -8.255 -22.681  0.00  0.00    +0.106 C 
ATOM     32  C   UNL     1      32.633  -7.066 -23.263  0.00  0.00    +0.151 C 
ATOM     33  C   UNL     1      32.011  -6.127 -22.448  0.00  0.00    +0.008 C 
ATOM     34  C   UNL     1      31.812  -6.407 -21.101  0.00  0.00    +0.019 C 
ATOM     35  C   UNL     1      32.248  -7.631 -20.621  0.00  0.00    +0.098 C 
ATOM     36  C   UNL     1      31.560  -4.823 -23.013  0.00  0.00    +0.033 C 
ENDBRANCH  28  31
ENDBRANCH  25  28
ENDBRANCH  23  26
ENDBRANCH   2  23
TORSDOF 8
ENDMDL
MODEL 5
REMARK VINA RESULT:     -11.1      1.936     10.243
REMARK  Name = 6323250
REMARK  8 active torsions:
REMARK  status: ('A' for Active; 'I' for Inactive)
REMARK    1  A    between atoms: N_2  and  C_23
REMARK    2  A    between atoms: N_3  and  C_5
REMARK    3  A    between atoms: N_3  and  C_12
REMARK    4  A    between atoms: C_12  and  C_15
REMARK    5  A    between atoms: C_15  and  C_17
REMARK    6  A    between atoms: C_23  and  C_26
REMARK    7  A    between atoms: N_25  and  C_28
REMARK    8  A    between atoms: C_28  and  C_31
REMARK                            x       y       z     vdW  Elec       q    Type
REMARK                         _______ _______ _______ _____ _____    ______ ____
ROOT
ATOM      1  O   UNL     1      34.366 -14.093 -21.479  0.00  0.00    -0.271 OA
ATOM      2  N   UNL     1      34.434 -15.587 -23.271  0.00  0.00    -0.250 N 
ATOM      3  N   UNL     1      32.968 -13.761 -24.679  0.00  0.00    -0.313 N 
ATOM      4  C   UNL     1      33.294 -13.454 -23.430  0.00  0.00    +0.207 C 
ATOM      5  C   UNL     1      34.061 -15.854 -24.586  0.00  0.00    +0.046 C 
ATOM      6  C   UNL     1      34.070 -14.385 -22.636  0.00  0.00    +0.263 C 
ATOM      7  C   UNL     1      33.342 -14.945 -25.258  0.00  0.00    +0.070 C 
ATOM      8  C   UNL     1      34.464 -17.147 -25.234  0.00  0.00    +0.049 C 
ATOM      9  H   UNL     1      32.441 -13.118 -25.206  0.00  0.00    +0.148 HD
ENDROOT
BRANCH   4  10
ATOM     10  N   UNL     1      32.954 -12.322 -22.828  0.00  0.00    -0.271 NA
ATOM     11  H   UNL     1      33.662 -11.727 -22.488  0.00  0.00    +0.125 HD
BRANCH  10  12
ATOM     12  C   UNL     1      31.557 -11.939 -22.658  0.00  0.00    +0.140 C 
BRANCH  12  15
ATOM     13  F   UNL     1      32.075 -12.073 -20.379  0.00  0.00    -0.201 F 
ATOM     14  F   UNL     1      30.075 -11.432 -20.919  0.00  0.00    -0.201 F 
ATOM     15  C   UNL     1      31.386 -11.313 -21.280  0.00  0.00    +0.298 C 
BRANCH  15  17
ATOM     16  N   UNL     1      32.005  -9.294 -22.465  0.00  0.00    -0.325 N 
ATOM     17  C   UNL     1      31.846  -9.876 -21.280  0.00  0.00    +0.155 C 
ATOM     18  C   UNL     1      32.088  -9.204 -20.105  0.00  0.00    -0.001 C 
ATOM     19  C   UNL     1      32.410  -8.021 -22.571  0.00  0.00    +0.058 C 
ATOM     20  C   UNL     1      32.511  -7.880 -20.185  0.00  0.00    -0.001 C 
ATOM     21  C   UNL     1      32.674  -7.278 -21.428  0.00  0.00    +0.015 C 
ATOM     22  H   UNL     1      31.821  -9.810 -23.283  0.00  0.00    +0.147 HD
ENDBRANCH  15  17
ENDBRANCH  12  15
ENDBRANCH  10  12
ENDBRANCH   4  10
BRANCH   2  23
ATOM     23  C   UNL     1      35.216 -16.570 -22.523  0.00  0.00    +0.183 C 
BRANCH  23  26
ATOM     24  O   UNL     1      33.509 -17.001 -20.868  0.00  0.00    -0.273 OA
ATOM     25  N   UNL     1      34.471 -18.789 -22.001  0.00  0.00    -0.298 N 
ATOM     26  C   UNL     1      34.288 -17.445 -21.710  0.00  0.00    +0.243 C 
ATOM     27  H   UNL     1      35.124 -19.032 -22.696  0.00  0.00    +0.150 HD
BRANCH  25  28
ATOM     28  C   UNL     1      33.749 -19.851 -21.335  0.00  0.00    +0.138 C 
BRANCH  28  31
ATOM     29  F   UNL     1      32.683 -21.658 -19.456  0.00  0.00    -0.203 F 
ATOM     30  N   UNL     1      35.917 -20.268 -20.343  0.00  0.00    -0.244 NA
ATOM     31  C   UNL     1      34.599 -20.551 -20.314  0.00  0.00    +0.106 C 
ATOM     32  C   UNL     1      34.002 -21.425 -19.426  0.00  0.00    +0.151 C 
ATOM     33  C   UNL     1      34.820 -22.056 -18.496  0.00  0.00    +0.008 C 
ATOM     34  C   UNL     1      36.185 -21.794 -18.488  0.00  0.00    +0.019 C 
ATOM     35  C   UNL     1      36.680 -20.901 -19.424  0.00  0.00    +0.098 C 
ATOM     36  C   UNL     1      34.238 -23.010 -17.509  0.00  0.00    +0.033 C 
ENDBRANCH  28  31
ENDBRANCH  25  28
ENDBRANCH  23  26
ENDBRANCH   2  23
TORSDOF 8
ENDMDL
MODEL 6
REMARK VINA RESULT:     -11.0      9.463     13.218
REMARK  Name = 6323250
REMARK  8 active torsions:
REMARK  status: ('A' for Active; 'I' for Inactive)
REMARK    1  A    between atoms: N_2  and  C_23
REMARK    2  A    between atoms: N_3  and  C_5
REMARK    3  A    between atoms: N_3  and  C_12
REMARK    4  A    between atoms: C_12  and  C_15
REMARK    5  A    between atoms: C_15  and  C_17
REMARK    6  A    between atoms: C_23  and  C_26
REMARK    7  A    between atoms: N_25  and  C_28
REMARK    8  A    between atoms: C_28  and  C_31
REMARK                            x       y       z     vdW  Elec       q    Type
REMARK                         _______ _______ _______ _____ _____    ______ ____
ROOT
ATOM      1  O   UNL     1      35.271 -25.463 -15.415  0.00  0.00    -0.271 OA
ATOM      2  N   UNL     1      36.711 -24.646 -13.771  0.00  0.00    -0.250 N 
ATOM      3  N   UNL     1      34.482 -23.912 -12.370  0.00  0.00    -0.313 N 
ATOM      4  C   UNL     1      34.301 -24.505 -13.542  0.00  0.00    +0.207 C 
ATOM      5  C   UNL     1      36.837 -24.018 -12.534  0.00  0.00    +0.046 C 
ATOM      6  C   UNL     1      35.448 -24.916 -14.329  0.00  0.00    +0.263 C 
ATOM      7  C   UNL     1      35.731 -23.666 -11.865  0.00  0.00    +0.070 C 
ATOM      8  C   UNL     1      38.200 -23.742 -11.967  0.00  0.00    +0.049 C 
ATOM      9  H   UNL     1      33.694 -23.639 -11.848  0.00  0.00    +0.148 HD
ENDROOT
BRANCH   4  10
ATOM     10  N   UNL     1      33.113 -24.763 -14.072  0.00  0.00    -0.271 NA
ATOM     11  H   UNL     1      32.846 -25.699 -14.222  0.00  0.00    +0.125 HD
BRANCH  10  12
ATOM     12  C   UNL     1      32.193 -23.692 -14.437  0.00  0.00    +0.140 C 
BRANCH  12  15
ATOM     13  F   UNL     1      30.551 -23.452 -12.785  0.00  0.00    -0.201 F 
ATOM     14  F   UNL     1      30.786 -25.408 -13.692  0.00  0.00    -0.201 F 
ATOM     15  C   UNL     1      30.791 -24.073 -13.977  0.00  0.00    +0.298 C 
BRANCH  15  17
ATOM     16  N   UNL     1      29.422 -24.664 -15.885  0.00  0.00    -0.325 N 
ATOM     17  C   UNL     1      29.765 -23.712 -15.023  0.00  0.00    +0.155 C 
ATOM     18  C   UNL     1      29.214 -22.453 -15.076  0.00  0.00    -0.001 C 
ATOM     19  C   UNL     1      28.519 -24.441 -16.850  0.00  0.00    +0.058 C 
ATOM     20  C   UNL     1      28.275 -22.193 -16.069  0.00  0.00    -0.001 C 
ATOM     21  C   UNL     1      27.920 -23.194 -16.967  0.00  0.00    +0.015 C 
ATOM     22  H   UNL     1      29.840 -25.552 -15.812  0.00  0.00    +0.147 HD
ENDBRANCH  15  17
ENDBRANCH  12  15
ENDBRANCH  10  12
ENDBRANCH   4  10
BRANCH   2  23
ATOM     23  C   UNL     1      37.907 -25.034 -14.515  0.00  0.00    +0.183 C 
BRANCH  23  26
ATOM     24  O   UNL     1      39.446 -23.637 -15.748  0.00  0.00    -0.273 OA
ATOM     25  N   UNL     1      37.159 -23.282 -15.974  0.00  0.00    -0.298 N 
ATOM     26  C   UNL     1      38.283 -23.931 -15.482  0.00  0.00    +0.243 C 
ATOM     27  H   UNL     1      36.273 -23.604 -15.693  0.00  0.00    +0.150 HD
BRANCH  25  28
ATOM     28  C   UNL     1      37.227 -22.156 -16.879  0.00  0.00    +0.138 C 
BRANCH  28  31
ATOM     29  F   UNL     1      37.128 -20.521 -19.171  0.00  0.00    -0.203 F 
ATOM     30  N   UNL     1      34.960 -22.828 -17.394  0.00  0.00    -0.244 NA
ATOM     31  C   UNL     1      36.014 -22.071 -17.760  0.00  0.00    +0.106 C 
ATOM     32  C   UNL     1      36.043 -21.246 -18.868  0.00  0.00    +0.151 C 
ATOM     33  C   UNL     1      34.902 -21.193 -19.661  0.00  0.00    +0.008 C 
ATOM     34  C   UNL     1      33.790 -21.957 -19.322  0.00  0.00    +0.019 C 
ATOM     35  C   UNL     1      33.870 -22.751 -18.189  0.00  0.00    +0.098 C 
ATOM     36  C   UNL     1      34.868 -20.322 -20.870  0.00  0.00    +0.033 C 
ENDBRANCH  28  31
ENDBRANCH  25  28
ENDBRANCH  23  26
ENDBRANCH   2  23
TORSDOF 8
ENDMDL
MODEL 7
REMARK VINA RESULT:     -11.0      4.071     12.209
REMARK  Name = 6323250
REMARK  8 active torsions:
REMARK  status: ('A' for Active; 'I' for Inactive)
REMARK    1  A    between atoms: N_2  and  C_23
REMARK    2  A    between atoms: N_3  and  C_5
REMARK    3  A    between atoms: N_3  and  C_12
REMARK    4  A    between atoms: C_12  and  C_15
REMARK    5  A    between atoms: C_15  and  C_17
REMARK    6  A    between atoms: C_23  and  C_26
REMARK    7  A    between atoms: N_25  and  C_28
REMARK    8  A    between atoms: C_28  and  C_31
REMARK                            x       y       z     vdW  Elec       q    Type
REMARK                         _______ _______ _______ _____ _____    ______ ____
ROOT
ATOM      1  O   UNL     1      37.103 -19.486 -20.662  0.00  0.00    -0.271 OA
ATOM      2  N   UNL     1      35.389 -20.885 -19.919  0.00  0.00    -0.250 N 
ATOM      3  N   UNL     1      33.634 -19.074 -20.975  0.00  0.00    -0.313 N 
ATOM      4  C   UNL     1      34.929 -18.813 -21.092  0.00  0.00    +0.207 C 
ATOM      5  C   UNL     1      34.017 -21.104 -19.826  0.00  0.00    +0.046 C 
ATOM      6  C   UNL     1      35.906 -19.738 -20.550  0.00  0.00    +0.263 C 
ATOM      7  C   UNL     1      33.174 -20.204 -20.350  0.00  0.00    +0.070 C 
ATOM      8  C   UNL     1      33.497 -22.338 -19.145  0.00  0.00    +0.049 C 
ATOM      9  H   UNL     1      32.984 -18.438 -21.348  0.00  0.00    +0.148 HD
ENDROOT
BRANCH   4  10
ATOM     10  N   UNL     1      35.421 -17.734 -21.687  0.00  0.00    -0.271 NA
ATOM     11  H   UNL     1      36.290 -17.376 -21.392  0.00  0.00    +0.125 HD
BRANCH  10  12
ATOM     12  C   UNL     1      34.703 -17.066 -22.766  0.00  0.00    +0.140 C 
BRANCH  12  15
ATOM     13  F   UNL     1      35.096 -15.224 -21.377  0.00  0.00    -0.201 F 
ATOM     14  F   UNL     1      33.064 -15.971 -21.505  0.00  0.00    -0.201 F 
ATOM     15  C   UNL     1      34.180 -15.730 -22.253  0.00  0.00    +0.298 C 
BRANCH  15  17
ATOM     16  N   UNL     1      34.071 -13.488 -23.160  0.00  0.00    -0.325 N 
ATOM     17  C   UNL     1      33.904 -14.786 -23.396  0.00  0.00    +0.155 C 
ATOM     18  C   UNL     1      33.498 -15.252 -24.624  0.00  0.00    -0.001 C 
ATOM     19  C   UNL     1      33.850 -12.570 -24.111  0.00  0.00    +0.058 C 
ATOM     20  C   UNL     1      33.261 -14.321 -25.631  0.00  0.00    -0.001 C 
ATOM     21  C   UNL     1      33.438 -12.965 -25.377  0.00  0.00    +0.015 C 
ATOM     22  H   UNL     1      34.363 -13.195 -22.267  0.00  0.00    +0.147 HD
ENDBRANCH  15  17
ENDBRANCH  12  15
ENDBRANCH  10  12
ENDBRANCH   4  10
BRANCH   2  23
ATOM     23  C   UNL     1      36.321 -21.856 -19.351  0.00  0.00    +0.183 C 
BRANCH  23  26
ATOM     24  O   UNL     1      37.244 -20.542 -17.545  0.00  0.00    -0.273 OA
ATOM     25  N   UNL     1      36.036 -22.466 -17.048  0.00  0.00    -0.298 N 
ATOM     26  C   UNL     1      36.584 -21.517 -17.899  0.00  0.00    +0.243 C 
ATOM     27  H   UNL     1      35.525 -23.208 -17.443  0.00  0.00    +0.150 HD
BRANCH  25  28
ATOM     28  C   UNL     1      36.179 -22.417 -15.610  0.00  0.00    +0.138 C 
BRANCH  28  31
ATOM     29  F   UNL     1      38.878 -23.114 -16.010  0.00  0.00    -0.203 F 
ATOM     30  N   UNL     1      35.946 -24.476 -14.360  0.00  0.00    -0.244 NA
ATOM     31  C   UNL     1      36.777 -23.680 -15.062  0.00  0.00    +0.106 C 
ATOM     32  C   UNL     1      38.110 -23.952 -15.301  0.00  0.00    +0.151 C 
ATOM     33  C   UNL     1      38.630 -25.131 -14.778  0.00  0.00    +0.008 C 
ATOM     34  C   UNL     1      37.809 -25.982 -14.047  0.00  0.00    +0.019 C 
ATOM     35  C   UNL     1      36.487 -25.612 -13.867  0.00  0.00    +0.098 C 
ATOM     36  C   UNL     1      40.062 -25.484 -15.000  0.00  0.00    +0.033 C 
ENDBRANCH  28  31
ENDBRANCH  25  28
ENDBRANCH  23  26
ENDBRANCH   2  23
TORSDOF 8
ENDMDL
MODEL 8
REMARK VINA RESULT:     -10.9      1.559      2.238
REMARK  Name = 6323250
REMARK  8 active torsions:
REMARK  status: ('A' for Active; 'I' for Inactive)
REMARK    1  A    between atoms: N_2  and  C_23
REMARK    2  A    between atoms: N_3  and  C_5
REMARK    3  A    between atoms: N_3  and  C_12
REMARK    4  A    between atoms: C_12  and  C_15
REMARK    5  A    between atoms: C_15  and  C_17
REMARK    6  A    between atoms: C_23  and  C_26
REMARK    7  A    between atoms: N_25  and  C_28
REMARK    8  A    between atoms: C_28  and  C_31
REMARK                            x       y       z     vdW  Elec       q    Type
REMARK                         _______ _______ _______ _____ _____    ______ ____
ROOT
ATOM      1  O   UNL     1      34.169 -14.847 -24.074  0.00  0.00    -0.271 OA
ATOM      2  N   UNL     1      32.840 -13.452 -22.758  0.00  0.00    -0.250 N 
ATOM      3  N   UNL     1      33.559 -15.000 -20.623  0.00  0.00    -0.313 N 
ATOM      4  C   UNL     1      34.054 -15.324 -21.810  0.00  0.00    +0.207 C 
ATOM      5  C   UNL     1      32.350 -13.161 -21.487  0.00  0.00    +0.046 C 
ATOM      6  C   UNL     1      33.707 -14.538 -22.978  0.00  0.00    +0.263 C 
ATOM      7  C   UNL     1      32.715 -13.933 -20.454  0.00  0.00    +0.070 C 
ATOM      8  C   UNL     1      31.426 -11.995 -21.285  0.00  0.00    +0.049 C 
ATOM      9  H   UNL     1      33.804 -15.542 -19.840  0.00  0.00    +0.148 HD
ENDROOT
BRANCH   4  10
ATOM     10  N   UNL     1      34.872 -16.346 -22.022  0.00  0.00    -0.271 NA
ATOM     11  H   UNL     1      35.240 -16.489 -22.925  0.00  0.00    +0.125 HD
BRANCH  10  12
ATOM     12  C   UNL     1      35.239 -17.263 -20.949  0.00  0.00    +0.140 C 
BRANCH  12  15
ATOM     13  F   UNL     1      36.984 -18.659 -21.649  0.00  0.00    -0.201 F 
ATOM     14  F   UNL     1      35.181 -18.622 -22.854  0.00  0.00    -0.201 F 
ATOM     15  C   UNL     1      35.623 -18.604 -21.562  0.00  0.00    +0.298 C 
BRANCH  15  17
ATOM     16  N   UNL     1      35.925 -20.486 -20.068  0.00  0.00    -0.325 N 
ATOM     17  C   UNL     1      35.058 -19.746 -20.754  0.00  0.00    +0.155 C 
ATOM     18  C   UNL     1      33.708 -20.004 -20.731  0.00  0.00    -0.001 C 
ATOM     19  C   UNL     1      35.522 -21.522 -19.321  0.00  0.00    +0.058 C 
ATOM     20  C   UNL     1      33.261 -21.076 -19.963  0.00  0.00    -0.001 C 
ATOM     21  C   UNL     1      34.173 -21.845 -19.248  0.00  0.00    +0.015 C 
ATOM     22  H   UNL     1      36.883 -20.268 -20.112  0.00  0.00    +0.147 HD
ENDBRANCH  15  17
ENDBRANCH  12  15
ENDBRANCH  10  12
ENDBRANCH   4  10
BRANCH   2  23
ATOM     23  C   UNL     1      32.449 -12.620 -23.895  0.00  0.00    +0.183 C 
BRANCH  23  26
ATOM     24  O   UNL     1      34.547 -11.608 -24.538  0.00  0.00    -0.273 OA
ATOM     25  N   UNL     1      32.919 -10.298 -23.518  0.00  0.00    -0.298 N 
ATOM     26  C   UNL     1      33.428 -11.476 -24.046  0.00  0.00    +0.243 C 
ATOM     27  H   UNL     1      32.007 -10.307 -23.149  0.00  0.00    +0.150 HD
BRANCH  25  28
ATOM     28  C   UNL     1      33.662  -9.058 -23.484  0.00  0.00    +0.138 C 
BRANCH  28  31
ATOM     29  F   UNL     1      32.695  -6.612 -24.493  0.00  0.00    -0.203 F 
ATOM     30  N   UNL     1      32.887  -8.342 -21.307  0.00  0.00    -0.244 NA
ATOM     31  C   UNL     1      32.999  -8.031 -22.614  0.00  0.00    +0.106 C 
ATOM     32  C   UNL     1      32.550  -6.854 -23.183  0.00  0.00    +0.151 C 
ATOM     33  C   UNL     1      31.940  -5.927 -22.346  0.00  0.00    +0.008 C 
ATOM     34  C   UNL     1      31.803  -6.205 -20.991  0.00  0.00    +0.019 C 
ATOM     35  C   UNL     1      32.289  -7.416 -20.525  0.00  0.00    +0.098 C 
ATOM     36  C   UNL     1      31.434  -4.637 -22.898  0.00  0.00    +0.033 C 
ENDBRANCH  28  31
ENDBRANCH  25  28
ENDBRANCH  23  26
ENDBRANCH   2  23
TORSDOF 8
ENDMDL
MODEL 9
REMARK VINA RESULT:     -10.8      2.877     10.651
REMARK  Name = 6323250
REMARK  8 active torsions:
REMARK  status: ('A' for Active; 'I' for Inactive)
REMARK    1  A    between atoms: N_2  and  C_23
REMARK    2  A    between atoms: N_3  and  C_5
REMARK    3  A    between atoms: N_3  and  C_12
REMARK    4  A    between atoms: C_12  and  C_15
REMARK    5  A    between atoms: C_15  and  C_17
REMARK    6  A    between atoms: C_23  and  C_26
REMARK    7  A    between atoms: N_25  and  C_28
REMARK    8  A    between atoms: C_28  and  C_31
REMARK                            x       y       z     vdW  Elec       q    Type
REMARK                         _______ _______ _______ _____ _____    ______ ____
ROOT
ATOM      1  O   UNL     1      35.201 -16.732 -20.477  0.00  0.00    -0.271 OA
ATOM      2  N   UNL     1      35.170 -18.191 -22.298  0.00  0.00    -0.250 N 
ATOM      3  N   UNL     1      34.303 -16.082 -23.805  0.00  0.00    -0.313 N 
ATOM      4  C   UNL     1      34.532 -15.862 -22.517  0.00  0.00    +0.207 C 
ATOM      5  C   UNL     1      34.912 -18.361 -23.656  0.00  0.00    +0.046 C 
ATOM      6  C   UNL     1      34.993 -16.945 -21.669  0.00  0.00    +0.263 C 
ATOM      7  C   UNL     1      34.487 -17.314 -24.376  0.00  0.00    +0.070 C 
ATOM      8  C   UNL     1      35.109 -19.705 -24.296  0.00  0.00    +0.049 C 
ATOM      9  H   UNL     1      33.992 -15.338 -24.367  0.00  0.00    +0.148 HD
ENDROOT
BRANCH   4  10
ATOM     10  N   UNL     1      34.368 -14.689 -21.921  0.00  0.00    -0.271 NA
ATOM     11  H   UNL     1      34.574 -14.604 -20.961  0.00  0.00    +0.125 HD
BRANCH  10  12
ATOM     12  C   UNL     1      33.889 -13.522 -22.653  0.00  0.00    +0.140 C 
BRANCH  12  15
ATOM     13  F   UNL     1      31.975 -14.434 -21.662  0.00  0.00    -0.201 F 
ATOM     14  F   UNL     1      31.749 -13.485 -23.599  0.00  0.00    -0.201 F 
ATOM     15  C   UNL     1      32.395 -13.367 -22.402  0.00  0.00    +0.298 C 
BRANCH  15  17
ATOM     16  N   UNL     1      32.284 -10.948 -22.441  0.00  0.00    -0.325 N 
ATOM     17  C   UNL     1      32.097 -12.052 -21.724  0.00  0.00    +0.155 C 
ATOM     18  C   UNL     1      31.653 -12.006 -20.424  0.00  0.00    -0.001 C 
ATOM     19  C   UNL     1      32.047  -9.733 -21.928  0.00  0.00    +0.058 C 
ATOM     20  C   UNL     1      31.400 -10.756 -19.865  0.00  0.00    -0.001 C 
ATOM     21  C   UNL     1      31.597  -9.605 -20.621  0.00  0.00    +0.015 C 
ATOM     22  H   UNL     1      32.603 -11.025 -23.369  0.00  0.00    +0.147 HD
ENDBRANCH  15  17
ENDBRANCH  12  15
ENDBRANCH  10  12
ENDBRANCH   4  10
BRANCH   2  23
ATOM     23  C   UNL     1      35.631 -19.324 -21.498  0.00  0.00    +0.183 C 
BRANCH  23  26
ATOM     24  O   UNL     1      33.280 -19.669 -21.060  0.00  0.00    -0.273 OA
ATOM     25  N   UNL     1      34.834 -21.126 -20.130  0.00  0.00    -0.298 N 
ATOM     26  C   UNL     1      34.439 -20.043 -20.902  0.00  0.00    +0.243 C 
ATOM     27  H   UNL     1      35.794 -21.336 -20.073  0.00  0.00    +0.150 HD
BRANCH  25  28
ATOM     28  C   UNL     1      33.904 -21.961 -19.403  0.00  0.00    +0.138 C 
BRANCH  28  31
ATOM     29  F   UNL     1      32.293 -23.093 -17.388  0.00  0.00    -0.203 F 
ATOM     30  N   UNL     1      35.774 -22.193 -17.885  0.00  0.00    -0.244 NA
ATOM     31  C   UNL     1      34.453 -22.385 -18.071  0.00  0.00    +0.106 C 
ATOM     32  C   UNL     1      33.598 -22.933 -17.134  0.00  0.00    +0.151 C 
ATOM     33  C   UNL     1      34.142 -23.314 -15.913  0.00  0.00    +0.008 C 
ATOM     34  C   UNL     1      35.501 -23.135 -15.676  0.00  0.00    +0.019 C 
ATOM     35  C   UNL     1      36.267 -22.576 -16.686  0.00  0.00    +0.098 C 
ATOM     36  C   UNL     1      33.274 -23.911 -14.857  0.00  0.00    +0.033 C 
ENDBRANCH  28  31
ENDBRANCH  25  28
ENDBRANCH  23  26
ENDBRANCH   2  23
TORSDOF 8
ENDMDL
