MODEL 1
REMARK VINA RESULT:      -5.5      0.000      0.000
REMARK  Name = 6951123
REMARK  5 active torsions:
REMARK  status: ('A' for Active; 'I' for Inactive)
REMARK    1  A    between atoms: CA_1  and  N_2
REMARK    2  A    between atoms: CA_1  and  C_7
REMARK    3  A    between atoms: CA_1  and  CB_10
REMARK    4  A    between atoms: C_7  and  O_8
REMARK    5  A    between atoms: CB_10  and  CG_11
REMARK                            x       y       z     vdW  Elec       q    Type
REMARK                         _______ _______ _______ _____ _____    ______ ____
ROOT
ATOM      1  CA  LEU A   1      38.910 -25.826 -14.231  0.00  0.00    +0.039 C 
ENDROOT
BRANCH   1   2
ATOM      2  N   LEU A   1      37.825 -25.541 -15.170  0.00  0.00    +0.391 N 
ATOM      3  C   ACE A   0      36.954 -26.697 -15.314  0.00  0.00    -0.105 C 
ATOM      4  H1  LEU A   1      38.222 -25.306 -16.080  0.00  0.00    -0.084 HD
ATOM      5  H2  LEU A   1      37.277 -24.760 -14.809  0.00  0.00    -0.084 HD
ENDBRANCH   1   2
BRANCH   1   7
ATOM      6  OXT LEU A   1      41.069 -24.693 -14.388  0.00  0.00    -0.253 OA
ATOM      7  C   LEU A   1      40.209 -25.400 -14.896  0.00  0.00    +0.293 C 
BRANCH   7   8
ATOM      8  O   LEU A   1      40.317 -25.891 -16.159  0.00  0.00    -0.482 OA
ATOM      9  H   LEU A   1      40.463 -25.307 -16.878  0.00  0.00    +0.295 HD
ENDBRANCH   7   8
ENDBRANCH   1   7
BRANCH   1  10
ATOM     10  CB  LEU A   1      38.732 -25.061 -12.910  0.00  0.00    -0.010 C 
BRANCH  10  11
ATOM     11  CG  LEU A   1      37.423 -24.255 -12.770  0.00  0.00    -0.002 C 
ATOM     12  CD1 LEU A   1      37.627 -22.939 -12.021  0.00  0.00    -0.000 C 
ATOM     13  CD2 LEU A   1      36.372 -25.103 -12.048  0.00  0.00    -0.000 C 
ENDBRANCH  10  11
ENDBRANCH   1  10
TORSDOF 5
ENDMDL
MODEL 2
REMARK VINA RESULT:      -5.5     11.089     11.541
REMARK  Name = 6951123
REMARK  5 active torsions:
REMARK  status: ('A' for Active; 'I' for Inactive)
REMARK    1  A    between atoms: CA_1  and  N_2
REMARK    2  A    between atoms: CA_1  and  C_7
REMARK    3  A    between atoms: CA_1  and  CB_10
REMARK    4  A    between atoms: C_7  and  O_8
REMARK    5  A    between atoms: CB_10  and  CG_11
REMARK                            x       y       z     vdW  Elec       q    Type
REMARK                         _______ _______ _______ _____ _____    ______ ____
ROOT
ATOM      1  CA  LEU A   1      35.442 -17.756 -22.206  0.00  0.00    +0.039 C 
ENDROOT
BRANCH   1   2
ATOM      2  N   LEU A   1      35.526 -17.214 -23.562  0.00  0.00    +0.391 N 
ATOM      3  C   ACE A   0      34.804 -18.059 -24.499  0.00  0.00    -0.105 C 
ATOM      4  H1  LEU A   1      36.505 -17.164 -23.842  0.00  0.00    -0.084 HD
ATOM      5  H2  LEU A   1      35.107 -16.284 -23.569  0.00  0.00    -0.084 HD
ENDBRANCH   1   2
BRANCH   1   7
ATOM      6  OXT LEU A   1      35.209 -16.330 -20.235  0.00  0.00    -0.253 OA
ATOM      7  C   LEU A   1      34.799 -16.693 -21.330  0.00  0.00    +0.293 C 
BRANCH   7   8
ATOM      8  O   LEU A   1      33.678 -16.177 -21.901  0.00  0.00    -0.482 OA
ATOM      9  H   LEU A   1      32.905 -16.052 -21.385  0.00  0.00    +0.295 HD
ENDBRANCH   7   8
ENDBRANCH   1   7
BRANCH   1  10
ATOM     10  CB  LEU A   1      34.598 -19.041 -22.161  0.00  0.00    -0.010 C 
BRANCH  10  11
ATOM     11  CG  LEU A   1      34.261 -19.573 -20.752  0.00  0.00    -0.002 C 
ATOM     12  CD1 LEU A   1      35.258 -20.630 -20.276  0.00  0.00    -0.000 C 
ATOM     13  CD2 LEU A   1      32.846 -20.160 -20.749  0.00  0.00    -0.000 C 
ENDBRANCH  10  11
ENDBRANCH   1  10
TORSDOF 5
ENDMDL
MODEL 3
REMARK VINA RESULT:      -5.3     11.079     11.690
REMARK  Name = 6951123
REMARK  5 active torsions:
REMARK  status: ('A' for Active; 'I' for Inactive)
REMARK    1  A    between atoms: CA_1  and  N_2
REMARK    2  A    between atoms: CA_1  and  C_7
REMARK    3  A    between atoms: CA_1  and  CB_10
REMARK    4  A    between atoms: C_7  and  O_8
REMARK    5  A    between atoms: CB_10  and  CG_11
REMARK                            x       y       z     vdW  Elec       q    Type
REMARK                         _______ _______ _______ _____ _____    ______ ____
ROOT
ATOM      1  CA  LEU A   1      34.475 -17.726 -22.370  0.00  0.00    +0.039 C 
ENDROOT
BRANCH   1   2
ATOM      2  N   LEU A   1      35.290 -16.981 -21.411  0.00  0.00    +0.391 N 
ATOM      3  C   ACE A   0      34.496 -15.961 -20.745  0.00  0.00    -0.105 C 
ATOM      4  H1  LEU A   1      36.062 -16.533 -21.905  0.00  0.00    -0.084 HD
ATOM      5  H2  LEU A   1      35.645 -17.630 -20.710  0.00  0.00    -0.084 HD
ENDBRANCH   1   2
BRANCH   1   7
ATOM      6  OXT LEU A   1      34.790 -18.063 -24.770  0.00  0.00    -0.253 OA
ATOM      7  C   LEU A   1      35.000 -17.404 -23.760  0.00  0.00    +0.293 C 
BRANCH   7   8
ATOM      8  O   LEU A   1      35.763 -16.278 -23.765  0.00  0.00    -0.482 OA
ATOM      9  H   LEU A   1      36.698 -16.346 -23.783  0.00  0.00    +0.295 HD
ENDBRANCH   7   8
ENDBRANCH   1   7
BRANCH   1  10
ATOM     10  CB  LEU A   1      34.557 -19.242 -22.127  0.00  0.00    -0.010 C 
BRANCH  10  11
ATOM     11  CG  LEU A   1      34.343 -19.701 -20.669  0.00  0.00    -0.002 C 
ATOM     12  CD1 LEU A   1      35.335 -20.786 -20.250  0.00  0.00    -0.000 C 
ATOM     13  CD2 LEU A   1      32.911 -20.216 -20.496  0.00  0.00    -0.000 C 
ENDBRANCH  10  11
ENDBRANCH   1  10
TORSDOF 5
ENDMDL
MODEL 4
REMARK VINA RESULT:      -5.3      2.109      2.537
REMARK  Name = 6951123
REMARK  5 active torsions:
REMARK  status: ('A' for Active; 'I' for Inactive)
REMARK    1  A    between atoms: CA_1  and  N_2
REMARK    2  A    between atoms: CA_1  and  C_7
REMARK    3  A    between atoms: CA_1  and  CB_10
REMARK    4  A    between atoms: C_7  and  O_8
REMARK    5  A    between atoms: CB_10  and  CG_11
REMARK                            x       y       z     vdW  Elec       q    Type
REMARK                         _______ _______ _______ _____ _____    ______ ____
ROOT
ATOM      1  CA  LEU A   1      39.081 -25.179 -14.040  0.00  0.00    +0.039 C 
ENDROOT
BRANCH   1   2
ATOM      2  N   LEU A   1      38.652 -25.977 -12.892  0.00  0.00    +0.391 N 
ATOM      3  C   ACE A   0      37.311 -26.499 -13.101  0.00  0.00    -0.105 C 
ATOM      4  H1  LEU A   1      38.657 -25.392 -12.057  0.00  0.00    -0.084 HD
ATOM      5  H2  LEU A   1      39.296 -26.761 -12.781  0.00  0.00    -0.084 HD
ENDBRANCH   1   2
BRANCH   1   7
ATOM      6  OXT LEU A   1      41.104 -26.548 -14.111  0.00  0.00    -0.253 OA
ATOM      7  C   LEU A   1      40.237 -25.913 -14.699  0.00  0.00    +0.293 C 
BRANCH   7   8
ATOM      8  O   LEU A   1      40.218 -25.779 -16.052  0.00  0.00    -0.482 OA
ATOM      9  H   LEU A   1      40.792 -26.297 -16.582  0.00  0.00    +0.295 HD
ENDBRANCH   7   8
ENDBRANCH   1   7
BRANCH   1  10
ATOM     10  CB  LEU A   1      37.943 -24.992 -15.058  0.00  0.00    -0.010 C 
BRANCH  10  11
ATOM     11  CG  LEU A   1      37.204 -23.639 -14.999  0.00  0.00    -0.002 C 
ATOM     12  CD1 LEU A   1      35.691 -23.795 -15.157  0.00  0.00    -0.000 C 
ATOM     13  CD2 LEU A   1      37.744 -22.710 -16.091  0.00  0.00    -0.000 C 
ENDBRANCH  10  11
ENDBRANCH   1  10
TORSDOF 5
ENDMDL
MODEL 5
REMARK VINA RESULT:      -5.3     12.093     12.604
REMARK  Name = 6951123
REMARK  5 active torsions:
REMARK  status: ('A' for Active; 'I' for Inactive)
REMARK    1  A    between atoms: CA_1  and  N_2
REMARK    2  A    between atoms: CA_1  and  C_7
REMARK    3  A    between atoms: CA_1  and  CB_10
REMARK    4  A    between atoms: C_7  and  O_8
REMARK    5  A    between atoms: CB_10  and  CG_11
REMARK                            x       y       z     vdW  Elec       q    Type
REMARK                         _______ _______ _______ _____ _____    ______ ____
ROOT
ATOM      1  CA  LEU A   1      34.824 -17.342 -23.453  0.00  0.00    +0.039 C 
ENDROOT
BRANCH   1   2
ATOM      2  N   LEU A   1      35.394 -15.996 -23.469  0.00  0.00    +0.391 N 
ATOM      3  C   ACE A   0      34.474 -15.040 -22.875  0.00  0.00    -0.105 C 
ATOM      4  H1  LEU A   1      35.582 -15.724 -24.434  0.00  0.00    -0.084 HD
ATOM      5  H2  LEU A   1      36.258 -16.000 -22.927  0.00  0.00    -0.084 HD
ENDBRANCH   1   2
BRANCH   1   7
ATOM      6  OXT LEU A   1      34.712 -17.029 -25.874  0.00  0.00    -0.253 OA
ATOM      7  C   LEU A   1      34.601 -17.759 -24.897  0.00  0.00    +0.293 C 
BRANCH   7   8
ATOM      8  O   LEU A   1      34.243 -19.068 -24.998  0.00  0.00    -0.482 OA
ATOM      9  H   LEU A   1      34.341 -19.638 -24.260  0.00  0.00    +0.295 HD
ENDBRANCH   7   8
ENDBRANCH   1   7
BRANCH   1  10
ATOM     10  CB  LEU A   1      35.762 -18.348 -22.766  0.00  0.00    -0.010 C 
BRANCH  10  11
ATOM     11  CG  LEU A   1      35.435 -18.675 -21.293  0.00  0.00    -0.002 C 
ATOM     12  CD1 LEU A   1      36.527 -19.512 -20.627  0.00  0.00    -0.000 C 
ATOM     13  CD2 LEU A   1      34.097 -19.415 -21.216  0.00  0.00    -0.000 C 
ENDBRANCH  10  11
ENDBRANCH   1  10
TORSDOF 5
ENDMDL
MODEL 6
REMARK VINA RESULT:      -5.3     13.993     14.414
REMARK  Name = 6951123
REMARK  5 active torsions:
REMARK  status: ('A' for Active; 'I' for Inactive)
REMARK    1  A    between atoms: CA_1  and  N_2
REMARK    2  A    between atoms: CA_1  and  C_7
REMARK    3  A    between atoms: CA_1  and  CB_10
REMARK    4  A    between atoms: C_7  and  O_8
REMARK    5  A    between atoms: CB_10  and  CG_11
REMARK                            x       y       z     vdW  Elec       q    Type
REMARK                         _______ _______ _______ _____ _____    ______ ____
ROOT
ATOM      1  CA  LEU A   1      33.772 -15.502 -24.028  0.00  0.00    +0.039 C 
ENDROOT
BRANCH   1   2
ATOM      2  N   LEU A   1      33.780 -14.043 -24.125  0.00  0.00    +0.391 N 
ATOM      3  C   ACE A   0      32.664 -13.473 -23.389  0.00  0.00    -0.105 C 
ATOM      4  H1  LEU A   1      33.706 -13.773 -25.107  0.00  0.00    -0.084 HD
ATOM      5  H2  LEU A   1      34.651 -13.693 -23.725  0.00  0.00    -0.084 HD
ENDBRANCH   1   2
BRANCH   1   7
ATOM      6  OXT LEU A   1      34.883 -16.816 -25.764  0.00  0.00    -0.253 OA
ATOM      7  C   LEU A   1      33.986 -16.053 -25.428  0.00  0.00    +0.293 C 
BRANCH   7   8
ATOM      8  O   LEU A   1      33.056 -15.587 -26.304  0.00  0.00    -0.482 OA
ATOM      9  H   LEU A   1      33.022 -14.672 -26.508  0.00  0.00    +0.295 HD
ENDBRANCH   7   8
ENDBRANCH   1   7
BRANCH   1  10
ATOM     10  CB  LEU A   1      34.884 -16.015 -23.098  0.00  0.00    -0.010 C 
BRANCH  10  11
ATOM     11  CG  LEU A   1      34.430 -16.473 -21.696  0.00  0.00    -0.002 C 
ATOM     12  CD1 LEU A   1      34.504 -15.348 -20.664  0.00  0.00    -0.000 C 
ATOM     13  CD2 LEU A   1      35.292 -17.653 -21.236  0.00  0.00    -0.000 C 
ENDBRANCH  10  11
ENDBRANCH   1  10
TORSDOF 5
ENDMDL
MODEL 7
REMARK VINA RESULT:      -5.2     14.080     14.535
REMARK  Name = 6951123
REMARK  5 active torsions:
REMARK  status: ('A' for Active; 'I' for Inactive)
REMARK    1  A    between atoms: CA_1  and  N_2
REMARK    2  A    between atoms: CA_1  and  C_7
REMARK    3  A    between atoms: CA_1  and  CB_10
REMARK    4  A    between atoms: C_7  and  O_8
REMARK    5  A    between atoms: CB_10  and  CG_11
REMARK                            x       y       z     vdW  Elec       q    Type
REMARK                         _______ _______ _______ _____ _____    ______ ____
ROOT
ATOM      1  CA  LEU A   1      33.636 -15.195 -23.784  0.00  0.00    +0.039 C 
ENDROOT
BRANCH   1   2
ATOM      2  N   LEU A   1      33.026 -14.217 -24.685  0.00  0.00    +0.391 N 
ATOM      3  C   ACE A   0      33.585 -12.894 -24.463  0.00  0.00    -0.105 C 
ATOM      4  H1  LEU A   1      32.020 -14.188 -24.515  0.00  0.00    -0.084 HD
ATOM      5  H2  LEU A   1      33.215 -14.496 -25.647  0.00  0.00    -0.084 HD
ENDBRANCH   1   2
BRANCH   1   7
ATOM      6  OXT LEU A   1      34.380 -16.428 -25.759  0.00  0.00    -0.253 OA
ATOM      7  C   LEU A   1      34.583 -16.047 -24.613  0.00  0.00    +0.293 C 
BRANCH   7   8
ATOM      8  O   LEU A   1      35.712 -16.366 -23.925  0.00  0.00    -0.482 OA
ATOM      9  H   LEU A   1      35.659 -16.918 -23.169  0.00  0.00    +0.295 HD
ENDBRANCH   7   8
ENDBRANCH   1   7
BRANCH   1  10
ATOM     10  CB  LEU A   1      34.418 -14.510 -22.651  0.00  0.00    -0.010 C 
BRANCH  10  11
ATOM     11  CG  LEU A   1      33.971 -14.864 -21.217  0.00  0.00    -0.002 C 
ATOM     12  CD1 LEU A   1      34.711 -16.079 -20.660  0.00  0.00    -0.000 C 
ATOM     13  CD2 LEU A   1      32.462 -15.125 -21.198  0.00  0.00    -0.000 C 
ENDBRANCH  10  11
ENDBRANCH   1  10
TORSDOF 5
ENDMDL
MODEL 8
REMARK VINA RESULT:      -5.2      2.074      2.854
REMARK  Name = 6951123
REMARK  5 active torsions:
REMARK  status: ('A' for Active; 'I' for Inactive)
REMARK    1  A    between atoms: CA_1  and  N_2
REMARK    2  A    between atoms: CA_1  and  C_7
REMARK    3  A    between atoms: CA_1  and  CB_10
REMARK    4  A    between atoms: C_7  and  O_8
REMARK    5  A    between atoms: CB_10  and  CG_11
REMARK                            x       y       z     vdW  Elec       q    Type
REMARK                         _______ _______ _______ _____ _____    ______ ____
ROOT
ATOM      1  CA  LEU A   1      37.208 -25.071 -14.472  0.00  0.00    +0.039 C 
ENDROOT
BRANCH   1   2
ATOM      2  N   LEU A   1      37.931 -24.189 -15.387  0.00  0.00    +0.391 N 
ATOM      3  C   ACE A   0      37.158 -22.988 -15.661  0.00  0.00    -0.105 C 
ATOM      4  H1  LEU A   1      38.102 -24.684 -16.263  0.00  0.00    -0.084 HD
ATOM      5  H2  LEU A   1      38.814 -23.920 -14.954  0.00  0.00    -0.084 HD
ENDBRANCH   1   2
BRANCH   1   7
ATOM      6  OXT LEU A   1      36.348 -26.877 -15.876  0.00  0.00    -0.253 OA
ATOM      7  C   LEU A   1      37.192 -26.458 -15.094  0.00  0.00    +0.293 C 
BRANCH   7   8
ATOM      8  O   LEU A   1      38.240 -27.216 -14.671  0.00  0.00    -0.482 OA
ATOM      9  H   LEU A   1      38.928 -27.437 -15.268  0.00  0.00    +0.295 HD
ENDBRANCH   7   8
ENDBRANCH   1   7
BRANCH   1  10
ATOM     10  CB  LEU A   1      37.885 -25.134 -13.092  0.00  0.00    -0.010 C 
BRANCH  10  11
ATOM     11  CG  LEU A   1      37.116 -24.463 -11.935  0.00  0.00    -0.002 C 
ATOM     12  CD1 LEU A   1      35.603 -24.629 -12.069  0.00  0.00    -0.000 C 
ATOM     13  CD2 LEU A   1      37.470 -22.974 -11.878  0.00  0.00    -0.000 C 
ENDBRANCH  10  11
ENDBRANCH   1  10
TORSDOF 5
ENDMDL
MODEL 9
REMARK VINA RESULT:      -5.2      3.154      4.366
REMARK  Name = 6951123
REMARK  5 active torsions:
REMARK  status: ('A' for Active; 'I' for Inactive)
REMARK    1  A    between atoms: CA_1  and  N_2
REMARK    2  A    between atoms: CA_1  and  C_7
REMARK    3  A    between atoms: CA_1  and  CB_10
REMARK    4  A    between atoms: C_7  and  O_8
REMARK    5  A    between atoms: CB_10  and  CG_11
REMARK                            x       y       z     vdW  Elec       q    Type
REMARK                         _______ _______ _______ _____ _____    ______ ____
ROOT
ATOM      1  CA  LEU A   1      36.740 -24.293 -12.430  0.00  0.00    +0.039 C 
ENDROOT
BRANCH   1   2
ATOM      2  N   LEU A   1      35.462 -25.000 -12.505  0.00  0.00    +0.391 N 
ATOM      3  C   ACE A   0      34.459 -24.181 -13.164  0.00  0.00    -0.105 C 
ATOM      4  H1  LEU A   1      35.147 -25.221 -11.560  0.00  0.00    -0.084 HD
ATOM      5  H2  LEU A   1      35.593 -25.856 -13.044  0.00  0.00    -0.084 HD
ENDBRANCH   1   2
BRANCH   1   7
ATOM      6  OXT LEU A   1      36.351 -24.020 -10.033  0.00  0.00    -0.253 OA
ATOM      7  C   LEU A   1      36.787 -23.579 -11.088  0.00  0.00    +0.293 C 
BRANCH   7   8
ATOM      8  O   LEU A   1      37.372 -22.355 -11.186  0.00  0.00    -0.482 OA
ATOM      9  H   LEU A   1      38.305 -22.278 -11.147  0.00  0.00    +0.295 HD
ENDBRANCH   7   8
ENDBRANCH   1   7
BRANCH   1  10
ATOM     10  CB  LEU A   1      37.931 -25.259 -12.540  0.00  0.00    -0.010 C 
BRANCH  10  11
ATOM     11  CG  LEU A   1      38.475 -25.495 -13.965  0.00  0.00    -0.002 C 
ATOM     12  CD1 LEU A   1      39.997 -25.633 -13.991  0.00  0.00    -0.000 C 
ATOM     13  CD2 LEU A   1      38.046 -24.342 -14.877  0.00  0.00    -0.000 C 
ENDBRANCH  10  11
ENDBRANCH   1  10
TORSDOF 5
ENDMDL
