MODEL 1
REMARK VINA RESULT:      -8.1      0.000      0.000
REMARK  Name = 9444
REMARK  5 active torsions:
REMARK  status: ('A' for Active; 'I' for Inactive)
REMARK    1  A    between atoms: C2*_2  and  O2*_16
REMARK    2  A    between atoms: C3*_3  and  O3*_18
REMARK    3  A    between atoms: C4*_4  and  C5*_20
REMARK    4  A    between atoms: C1*_5  and  N_7
REMARK    5  A    between atoms: C5*_20  and  O5*_21
REMARK                            x       y       z     vdW  Elec       q    Type
REMARK                         _______ _______ _______ _____ _____    ______ ____
ROOT
ATOM      1  O4* UNL     1      35.097 -17.151 -20.736  0.00  0.00    -0.332 OA
ATOM      2  C2* UNL     1      34.371 -18.006 -22.823  0.00  0.00    +0.187 C 
ATOM      3  C3* UNL     1      34.560 -16.510 -22.952  0.00  0.00    +0.171 C 
ATOM      4  C4* UNL     1      34.537 -16.059 -21.497  0.00  0.00    +0.175 C 
ATOM      5  C1* UNL     1      35.171 -18.318 -21.571  0.00  0.00    +0.234 C 
ENDROOT
BRANCH   5   7
ATOM      6  O   UNL     1      36.713 -20.124 -20.108  0.00  0.00    -0.192 OA
ATOM      7  N   UNL     1      34.645 -19.442 -20.849  0.00  0.00    -0.177 N 
ATOM      8  N   UNL     1      34.911 -21.361 -19.470  0.00  0.00    -0.252 NA
ATOM      9  N   UNL     1      32.766 -20.708 -20.199  0.00  0.00    -0.174 NA
ATOM     10  N   UNL     1      33.059 -22.605 -18.832  0.00  0.00    -0.293 N 
ATOM     11  C   UNL     1      35.494 -20.303 -20.137  0.00  0.00    +0.282 C 
ATOM     12  C   UNL     1      33.295 -19.716 -20.827  0.00  0.00    +0.245 C 
ATOM     13  C   UNL     1      33.617 -21.545 -19.505  0.00  0.00    +0.151 C 
ATOM     14  H   UNL     1      33.633 -23.224 -18.325  0.00  0.00    +0.155 HD
ATOM     15  H   UNL     1      32.085 -22.746 -18.856  0.00  0.00    +0.155 HD
ENDBRANCH   5   7
BRANCH   2  16
ATOM     16  O2* UNL     1      34.841 -18.706 -23.957  0.00  0.00    -0.378 OA
ATOM     17  H2* UNL     1      35.783 -18.904 -23.847  0.00  0.00    +0.211 HD
ENDBRANCH   2  16
BRANCH   3  18
ATOM     18  O3* UNL     1      35.853 -16.217 -23.483  0.00  0.00    -0.379 OA
ATOM     19  H3* UNL     1      36.214 -15.433 -23.040  0.00  0.00    +0.211 HD
ENDBRANCH   3  18
BRANCH   4  20
ATOM     20  C5* UNL     1      33.134 -15.784 -20.974  0.00  0.00    +0.169 C 
BRANCH  20  21
ATOM     21  O5* UNL     1      32.415 -15.063 -21.960  0.00  0.00    -0.379 OA
ATOM     22  H5* UNL     1      31.488 -15.346 -21.953  0.00  0.00    +0.211 HD
ENDBRANCH  20  21
ENDBRANCH   4  20
TORSDOF 5
ENDMDL
MODEL 2
REMARK VINA RESULT:      -7.8      6.746     10.060
REMARK  Name = 9444
REMARK  5 active torsions:
REMARK  status: ('A' for Active; 'I' for Inactive)
REMARK    1  A    between atoms: C2*_2  and  O2*_16
REMARK    2  A    between atoms: C3*_3  and  O3*_18
REMARK    3  A    between atoms: C4*_4  and  C5*_20
REMARK    4  A    between atoms: C1*_5  and  N_7
REMARK    5  A    between atoms: C5*_20  and  O5*_21
REMARK                            x       y       z     vdW  Elec       q    Type
REMARK                         _______ _______ _______ _____ _____    ______ ____
ROOT
ATOM      1  O4* UNL     1      37.896 -24.062 -13.689  0.00  0.00    -0.332 OA
ATOM      2  C2* UNL     1      36.846 -25.855 -14.828  0.00  0.00    +0.187 C 
ATOM      3  C3* UNL     1      37.669 -26.420 -13.690  0.00  0.00    +0.171 C 
ATOM      4  C4* UNL     1      38.624 -25.272 -13.387  0.00  0.00    +0.175 C 
ATOM      5  C1* UNL     1      36.707 -24.398 -14.424  0.00  0.00    +0.234 C 
ENDROOT
BRANCH   5   7
ATOM      6  O   UNL     1      34.364 -23.976 -15.876  0.00  0.00    -0.192 OA
ATOM      7  N   UNL     1      36.596 -23.523 -15.556  0.00  0.00    -0.177 N 
ATOM      8  N   UNL     1      35.350 -22.510 -17.311  0.00  0.00    -0.252 NA
ATOM      9  N   UNL     1      37.636 -22.006 -17.031  0.00  0.00    -0.174 NA
ATOM     10  N   UNL     1      36.378 -21.016 -18.760  0.00  0.00    -0.293 N 
ATOM     11  C   UNL     1      35.375 -23.369 -16.231  0.00  0.00    +0.282 C 
ATOM     12  C   UNL     1      37.676 -22.805 -16.021  0.00  0.00    +0.245 C 
ATOM     13  C   UNL     1      36.427 -21.867 -17.682  0.00  0.00    +0.151 C 
ATOM     14  H   UNL     1      35.534 -20.891 -19.250  0.00  0.00    +0.155 HD
ATOM     15  H   UNL     1      37.187 -20.531 -19.042  0.00  0.00    +0.155 HD
ENDBRANCH   5   7
BRANCH   2  16
ATOM     16  O2* UNL     1      35.598 -26.504 -14.960  0.00  0.00    -0.378 OA
ATOM     17  H2* UNL     1      35.682 -27.428 -14.680  0.00  0.00    +0.211 HD
ENDBRANCH   2  16
BRANCH   3  18
ATOM     18  O3* UNL     1      36.850 -26.626 -12.540  0.00  0.00    -0.379 OA
ATOM     19  H3* UNL     1      36.661 -25.771 -12.121  0.00  0.00    +0.211 HD
ENDBRANCH   3  18
BRANCH   4  20
ATOM     20  C5* UNL     1      39.884 -25.295 -14.242  0.00  0.00    +0.169 C 
BRANCH  20  21
ATOM     21  O5* UNL     1      40.199 -26.641 -14.550  0.00  0.00    -0.379 OA
ATOM     22  H5* UNL     1      41.138 -26.708 -14.781  0.00  0.00    +0.211 HD
ENDBRANCH  20  21
ENDBRANCH   4  20
TORSDOF 5
ENDMDL
MODEL 3
REMARK VINA RESULT:      -7.5      7.568      9.961
REMARK  Name = 9444
REMARK  5 active torsions:
REMARK  status: ('A' for Active; 'I' for Inactive)
REMARK    1  A    between atoms: C2*_2  and  O2*_16
REMARK    2  A    between atoms: C3*_3  and  O3*_18
REMARK    3  A    between atoms: C4*_4  and  C5*_20
REMARK    4  A    between atoms: C1*_5  and  N_7
REMARK    5  A    between atoms: C5*_20  and  O5*_21
REMARK                            x       y       z     vdW  Elec       q    Type
REMARK                         _______ _______ _______ _____ _____    ______ ____
ROOT
ATOM      1  O4* UNL     1      36.751 -26.108 -14.306  0.00  0.00    -0.332 OA
ATOM      2  C2* UNL     1      37.643 -23.989 -14.879  0.00  0.00    +0.187 C 
ATOM      3  C3* UNL     1      38.784 -24.908 -14.500  0.00  0.00    +0.171 C 
ATOM      4  C4* UNL     1      38.067 -26.002 -13.720  0.00  0.00    +0.175 C 
ATOM      5  C1* UNL     1      36.524 -24.975 -15.161  0.00  0.00    +0.234 C 
ENDROOT
BRANCH   5   7
ATOM      6  O   UNL     1      35.003 -23.484 -16.962  0.00  0.00    -0.192 OA
ATOM      7  N   UNL     1      35.227 -24.430 -14.877  0.00  0.00    -0.177 N 
ATOM      8  N   UNL     1      33.288 -23.198 -15.493  0.00  0.00    -0.252 NA
ATOM      9  N   UNL     1      33.462 -24.145 -13.341  0.00  0.00    -0.174 NA
ATOM     10  N   UNL     1      31.552 -22.920 -13.978  0.00  0.00    -0.293 N 
ATOM     11  C   UNL     1      34.529 -23.689 -15.843  0.00  0.00    +0.282 C 
ATOM     12  C   UNL     1      34.621 -24.611 -13.653  0.00  0.00    +0.245 C 
ATOM     13  C   UNL     1      32.790 -23.419 -14.305  0.00  0.00    +0.151 C 
ATOM     14  H   UNL     1      31.042 -22.397 -14.638  0.00  0.00    +0.155 HD
ATOM     15  H   UNL     1      31.174 -23.086 -13.084  0.00  0.00    +0.155 HD
ENDBRANCH   5   7
BRANCH   2  16
ATOM     16  O2* UNL     1      37.953 -23.183 -15.997  0.00  0.00    -0.378 OA
ATOM     17  H2* UNL     1      38.836 -22.799 -15.885  0.00  0.00    +0.211 HD
ENDBRANCH   2  16
BRANCH   3  18
ATOM     18  O3* UNL     1      39.352 -25.500 -15.668  0.00  0.00    -0.379 OA
ATOM     19  H3* UNL     1      40.157 -25.018 -15.916  0.00  0.00    +0.211 HD
ENDBRANCH   3  18
BRANCH   4  20
ATOM     20  C5* UNL     1      37.904 -25.680 -12.241  0.00  0.00    +0.169 C 
BRANCH  20  21
ATOM     21  O5* UNL     1      36.811 -26.425 -11.732  0.00  0.00    -0.379 OA
ATOM     22  H5* UNL     1      36.260 -25.851 -11.177  0.00  0.00    +0.211 HD
ENDBRANCH  20  21
ENDBRANCH   4  20
TORSDOF 5
ENDMDL
MODEL 4
REMARK VINA RESULT:      -7.5      7.715     10.036
REMARK  Name = 9444
REMARK  5 active torsions:
REMARK  status: ('A' for Active; 'I' for Inactive)
REMARK    1  A    between atoms: C2*_2  and  O2*_16
REMARK    2  A    between atoms: C3*_3  and  O3*_18
REMARK    3  A    between atoms: C4*_4  and  C5*_20
REMARK    4  A    between atoms: C1*_5  and  N_7
REMARK    5  A    between atoms: C5*_20  and  O5*_21
REMARK                            x       y       z     vdW  Elec       q    Type
REMARK                         _______ _______ _______ _____ _____    ______ ____
ROOT
ATOM      1  O4* UNL     1      37.387 -23.225 -13.710  0.00  0.00    -0.332 OA
ATOM      2  C2* UNL     1      36.043 -24.925 -12.751  0.00  0.00    +0.187 C 
ATOM      3  C3* UNL     1      37.423 -24.993 -12.133  0.00  0.00    +0.171 C 
ATOM      4  C4* UNL     1      38.263 -24.225 -13.145  0.00  0.00    +0.175 C 
ATOM      5  C1* UNL     1      36.031 -23.527 -13.343  0.00  0.00    +0.234 C 
ENDROOT
BRANCH   5   7
ATOM      6  O   UNL     1      33.249 -23.736 -13.329  0.00  0.00    -0.192 OA
ATOM      7  N   UNL     1      35.200 -23.432 -14.509  0.00  0.00    -0.177 N 
ATOM      8  N   UNL     1      33.076 -23.447 -15.580  0.00  0.00    -0.252 NA
ATOM      9  N   UNL     1      35.042 -23.130 -16.842  0.00  0.00    -0.174 NA
ATOM     10  N   UNL     1      32.925 -23.149 -17.877  0.00  0.00    -0.293 N 
ATOM     11  C   UNL     1      33.805 -23.549 -14.413  0.00  0.00    +0.282 C 
ATOM     12  C   UNL     1      35.737 -23.223 -15.761  0.00  0.00    +0.245 C 
ATOM     13  C   UNL     1      33.672 -23.248 -16.727  0.00  0.00    +0.151 C 
ATOM     14  H   UNL     1      31.945 -23.228 -17.835  0.00  0.00    +0.155 HD
ATOM     15  H   UNL     1      33.370 -22.998 -18.741  0.00  0.00    +0.155 HD
ENDBRANCH   5   7
BRANCH   2  16
ATOM     16  O2* UNL     1      35.018 -25.122 -11.798  0.00  0.00    -0.378 OA
ATOM     17  H2* UNL     1      35.123 -25.992 -11.385  0.00  0.00    +0.211 HD
ENDBRANCH   2  16
BRANCH   3  18
ATOM     18  O3* UNL     1      37.450 -24.273 -10.901  0.00  0.00    -0.379 OA
ATOM     19  H3* UNL     1      36.942 -24.759 -10.232  0.00  0.00    +0.211 HD
ENDBRANCH   3  18
BRANCH   4  20
ATOM     20  C5* UNL     1      38.785 -25.095 -14.279  0.00  0.00    +0.169 C 
BRANCH  20  21
ATOM     21  O5* UNL     1      39.116 -24.262 -15.376  0.00  0.00    -0.379 OA
ATOM     22  H5* UNL     1      38.637 -24.560 -16.164  0.00  0.00    +0.211 HD
ENDBRANCH  20  21
ENDBRANCH   4  20
TORSDOF 5
ENDMDL
MODEL 5
REMARK VINA RESULT:      -7.4      6.404      8.630
REMARK  Name = 9444
REMARK  5 active torsions:
REMARK  status: ('A' for Active; 'I' for Inactive)
REMARK    1  A    between atoms: C2*_2  and  O2*_16
REMARK    2  A    between atoms: C3*_3  and  O3*_18
REMARK    3  A    between atoms: C4*_4  and  C5*_20
REMARK    4  A    between atoms: C1*_5  and  N_7
REMARK    5  A    between atoms: C5*_20  and  O5*_21
REMARK                            x       y       z     vdW  Elec       q    Type
REMARK                         _______ _______ _______ _____ _____    ______ ____
ROOT
ATOM      1  O4* UNL     1      35.018 -24.915 -14.728  0.00  0.00    -0.332 OA
ATOM      2  C2* UNL     1      35.877 -22.818 -15.421  0.00  0.00    +0.187 C 
ATOM      3  C3* UNL     1      36.884 -23.473 -14.500  0.00  0.00    +0.171 C 
ATOM      4  C4* UNL     1      36.031 -24.510 -13.781  0.00  0.00    +0.175 C 
ATOM      5  C1* UNL     1      35.012 -23.996 -15.833  0.00  0.00    +0.234 C 
ENDROOT
BRANCH   5   7
ATOM      6  O   UNL     1      34.093 -23.133 -18.321  0.00  0.00    -0.192 OA
ATOM      7  N   UNL     1      33.658 -23.612 -16.114  0.00  0.00    -0.177 N 
ATOM      8  N   UNL     1      31.959 -22.835 -17.586  0.00  0.00    -0.252 NA
ATOM      9  N   UNL     1      31.454 -23.311 -15.333  0.00  0.00    -0.174 NA
ATOM     10  N   UNL     1      29.791 -22.541 -16.813  0.00  0.00    -0.293 N 
ATOM     11  C   UNL     1      33.280 -23.188 -17.397  0.00  0.00    +0.282 C 
ATOM     12  C   UNL     1      32.684 -23.644 -15.140  0.00  0.00    +0.245 C 
ATOM     13  C   UNL     1      31.101 -22.897 -16.601  0.00  0.00    +0.151 C 
ATOM     14  H   UNL     1      29.500 -22.240 -17.704  0.00  0.00    +0.155 HD
ATOM     15  H   UNL     1      29.142 -22.587 -16.074  0.00  0.00    +0.155 HD
ENDBRANCH   5   7
BRANCH   2  16
ATOM     16  O2* UNL     1      36.491 -22.182 -16.523  0.00  0.00    -0.378 OA
ATOM     17  H2* UNL     1      35.860 -22.123 -17.256  0.00  0.00    +0.211 HD
ENDBRANCH   2  16
BRANCH   3  18
ATOM     18  O3* UNL     1      37.872 -24.167 -15.261  0.00  0.00    -0.379 OA
ATOM     19  H3* UNL     1      38.587 -24.457 -14.673  0.00  0.00    +0.211 HD
ENDBRANCH   3  18
BRANCH   4  20
ATOM     20  C5* UNL     1      35.334 -23.963 -12.543  0.00  0.00    +0.169 C 
BRANCH  20  21
ATOM     21  O5* UNL     1      34.961 -25.050 -11.715  0.00  0.00    -0.379 OA
ATOM     22  H5* UNL     1      33.995 -25.131 -11.703  0.00  0.00    +0.211 HD
ENDBRANCH  20  21
ENDBRANCH   4  20
TORSDOF 5
ENDMDL
MODEL 6
REMARK VINA RESULT:      -7.4      6.498      8.621
REMARK  Name = 9444
REMARK  5 active torsions:
REMARK  status: ('A' for Active; 'I' for Inactive)
REMARK    1  A    between atoms: C2*_2  and  O2*_16
REMARK    2  A    between atoms: C3*_3  and  O3*_18
REMARK    3  A    between atoms: C4*_4  and  C5*_20
REMARK    4  A    between atoms: C1*_5  and  N_7
REMARK    5  A    between atoms: C5*_20  and  O5*_21
REMARK                            x       y       z     vdW  Elec       q    Type
REMARK                         _______ _______ _______ _____ _____    ______ ____
ROOT
ATOM      1  O4* UNL     1      30.762 -24.389 -15.843  0.00  0.00    -0.332 OA
ATOM      2  C2* UNL     1      31.798 -23.081 -14.160  0.00  0.00    +0.187 C 
ATOM      3  C3* UNL     1      30.441 -23.526 -13.660  0.00  0.00    +0.171 C 
ATOM      4  C4* UNL     1      29.732 -23.903 -14.954  0.00  0.00    +0.175 C 
ATOM      5  C1* UNL     1      32.049 -24.054 -15.299  0.00  0.00    +0.234 C 
ENDROOT
BRANCH   5   7
ATOM      6  O   UNL     1      34.838 -24.012 -15.287  0.00  0.00    -0.192 OA
ATOM      7  N   UNL     1      32.861 -23.485 -16.337  0.00  0.00    -0.177 N 
ATOM      8  N   UNL     1      34.970 -22.939 -17.290  0.00  0.00    -0.252 NA
ATOM      9  N   UNL     1      32.976 -22.375 -18.414  0.00  0.00    -0.174 NA
ATOM     10  N   UNL     1      35.079 -21.846 -19.335  0.00  0.00    -0.293 N 
ATOM     11  C   UNL     1      34.261 -23.507 -16.251  0.00  0.00    +0.282 C 
ATOM     12  C   UNL     1      32.299 -22.901 -17.452  0.00  0.00    +0.245 C 
ATOM     13  C   UNL     1      34.352 -22.406 -18.311  0.00  0.00    +0.151 C 
ATOM     14  H   UNL     1      36.063 -21.848 -19.298  0.00  0.00    +0.155 HD
ATOM     15  H   UNL     1      34.617 -21.444 -20.105  0.00  0.00    +0.155 HD
ENDBRANCH   5   7
BRANCH   2  16
ATOM     16  O2* UNL     1      32.790 -23.152 -13.156  0.00  0.00    -0.378 OA
ATOM     17  H2* UNL     1      33.538 -23.677 -13.477  0.00  0.00    +0.211 HD
ENDBRANCH   2  16
BRANCH   3  18
ATOM     18  O3* UNL     1      30.567 -24.707 -12.867  0.00  0.00    -0.379 OA
ATOM     19  H3* UNL     1      30.189 -24.547 -11.988  0.00  0.00    +0.211 HD
ENDBRANCH   3  18
BRANCH   4  20
ATOM     20  C5* UNL     1      29.041 -22.725 -15.627  0.00  0.00    +0.169 C 
BRANCH  20  21
ATOM     21  O5* UNL     1      28.907 -23.007 -17.009  0.00  0.00    -0.379 OA
ATOM     22  H5* UNL     1      29.707 -23.452 -17.327  0.00  0.00    +0.211 HD
ENDBRANCH  20  21
ENDBRANCH   4  20
TORSDOF 5
ENDMDL
MODEL 7
REMARK VINA RESULT:      -7.3      6.927      9.525
REMARK  Name = 9444
REMARK  5 active torsions:
REMARK  status: ('A' for Active; 'I' for Inactive)
REMARK    1  A    between atoms: C2*_2  and  O2*_16
REMARK    2  A    between atoms: C3*_3  and  O3*_18
REMARK    3  A    between atoms: C4*_4  and  C5*_20
REMARK    4  A    between atoms: C1*_5  and  N_7
REMARK    5  A    between atoms: C5*_20  and  O5*_21
REMARK                            x       y       z     vdW  Elec       q    Type
REMARK                         _______ _______ _______ _____ _____    ______ ____
ROOT
ATOM      1  O4* UNL     1      35.065 -24.687 -16.139  0.00  0.00    -0.332 OA
ATOM      2  C2* UNL     1      34.967 -23.595 -14.038  0.00  0.00    +0.187 C 
ATOM      3  C3* UNL     1      33.867 -23.046 -14.920  0.00  0.00    +0.171 C 
ATOM      4  C4* UNL     1      34.344 -23.447 -16.310  0.00  0.00    +0.175 C 
ATOM      5  C1* UNL     1      35.314 -24.897 -14.739  0.00  0.00    +0.234 C 
ENDROOT
BRANCH   5   7
ATOM      6  O   UNL     1      36.399 -27.360 -15.470  0.00  0.00    -0.192 OA
ATOM      7  N   UNL     1      36.689 -25.267 -14.560  0.00  0.00    -0.177 N 
ATOM      8  N   UNL     1      38.488 -26.811 -14.750  0.00  0.00    -0.252 NA
ATOM      9  N   UNL     1      38.844 -24.679 -13.809  0.00  0.00    -0.174 NA
ATOM     10  N   UNL     1      40.609 -26.228 -14.010  0.00  0.00    -0.293 N 
ATOM     11  C   UNL     1      37.152 -26.531 -14.957  0.00  0.00    +0.282 C 
ATOM     12  C   UNL     1      37.600 -24.402 -13.995  0.00  0.00    +0.245 C 
ATOM     13  C   UNL     1      39.282 -25.927 -14.206  0.00  0.00    +0.151 C 
ATOM     14  H   UNL     1      40.959 -27.108 -14.280  0.00  0.00    +0.155 HD
ATOM     15  H   UNL     1      41.209 -25.564 -13.601  0.00  0.00    +0.155 HD
ENDBRANCH   5   7
BRANCH   2  16
ATOM     16  O2* UNL     1      34.537 -23.793 -12.706  0.00  0.00    -0.378 OA
ATOM     17  H2* UNL     1      34.227 -22.952 -12.338  0.00  0.00    +0.211 HD
ENDBRANCH   2  16
BRANCH   3  18
ATOM     18  O3* UNL     1      32.638 -23.726 -14.663  0.00  0.00    -0.379 OA
ATOM     19  H3* UNL     1      32.418 -23.649 -13.721  0.00  0.00    +0.211 HD
ENDBRANCH   3  18
BRANCH   4  20
ATOM     20  C5* UNL     1      35.286 -22.431 -16.941  0.00  0.00    +0.169 C 
BRANCH  20  21
ATOM     21  O5* UNL     1      35.158 -22.506 -18.350  0.00  0.00    -0.379 OA
ATOM     22  H5* UNL     1      36.036 -22.452 -18.757  0.00  0.00    +0.211 HD
ENDBRANCH  20  21
ENDBRANCH   4  20
TORSDOF 5
ENDMDL
MODEL 8
REMARK VINA RESULT:      -7.1      2.672      3.880
REMARK  Name = 9444
REMARK  5 active torsions:
REMARK  status: ('A' for Active; 'I' for Inactive)
REMARK    1  A    between atoms: C2*_2  and  O2*_16
REMARK    2  A    between atoms: C3*_3  and  O3*_18
REMARK    3  A    between atoms: C4*_4  and  C5*_20
REMARK    4  A    between atoms: C1*_5  and  N_7
REMARK    5  A    between atoms: C5*_20  and  O5*_21
REMARK                            x       y       z     vdW  Elec       q    Type
REMARK                         _______ _______ _______ _____ _____    ______ ____
ROOT
ATOM      1  O4* UNL     1      34.518 -14.043 -22.812  0.00  0.00    -0.332 OA
ATOM      2  C2* UNL     1      33.337 -15.279 -24.454  0.00  0.00    +0.187 C 
ATOM      3  C3* UNL     1      32.924 -13.826 -24.551  0.00  0.00    +0.171 C 
ATOM      4  C4* UNL     1      33.352 -13.282 -23.195  0.00  0.00    +0.175 C 
ATOM      5  C1* UNL     1      34.639 -15.185 -23.677  0.00  0.00    +0.234 C 
ENDROOT
BRANCH   5   7
ATOM      6  O   UNL     1      35.194 -17.719 -24.700  0.00  0.00    -0.192 OA
ATOM      7  N   UNL     1      34.886 -16.351 -22.877  0.00  0.00    -0.177 N 
ATOM      8  N   UNL     1      35.384 -18.664 -22.638  0.00  0.00    -0.252 NA
ATOM      9  N   UNL     1      35.079 -17.310 -20.732  0.00  0.00    -0.174 NA
ATOM     10  N   UNL     1      35.574 -19.605 -20.525  0.00  0.00    -0.293 N 
ATOM     11  C   UNL     1      35.158 -17.591 -23.475  0.00  0.00    +0.282 C 
ATOM     12  C   UNL     1      34.866 -16.298 -21.500  0.00  0.00    +0.245 C 
ATOM     13  C   UNL     1      35.345 -18.521 -21.339  0.00  0.00    +0.151 C 
ATOM     14  H   UNL     1      35.767 -20.485 -20.920  0.00  0.00    +0.155 HD
ATOM     15  H   UNL     1      35.546 -19.500 -19.546  0.00  0.00    +0.155 HD
ENDBRANCH   5   7
BRANCH   2  16
ATOM     16  O2* UNL     1      33.505 -15.875 -25.724  0.00  0.00    -0.378 OA
ATOM     17  H2* UNL     1      33.271 -16.814 -25.674  0.00  0.00    +0.211 HD
ENDBRANCH   2  16
BRANCH   3  18
ATOM     18  O3* UNL     1      33.689 -13.159 -25.555  0.00  0.00    -0.379 OA
ATOM     19  H3* UNL     1      33.114 -12.554 -26.050  0.00  0.00    +0.211 HD
ENDBRANCH   3  18
BRANCH   4  20
ATOM     20  C5* UNL     1      32.294 -13.457 -22.114  0.00  0.00    +0.169 C 
BRANCH  20  21
ATOM     21  O5* UNL     1      31.386 -12.371 -22.187  0.00  0.00    -0.379 OA
ATOM     22  H5* UNL     1      31.007 -12.328 -23.078  0.00  0.00    +0.211 HD
ENDBRANCH  20  21
ENDBRANCH   4  20
TORSDOF 5
ENDMDL
MODEL 9
REMARK VINA RESULT:      -7.0      3.828      5.600
REMARK  Name = 9444
REMARK  5 active torsions:
REMARK  status: ('A' for Active; 'I' for Inactive)
REMARK    1  A    between atoms: C2*_2  and  O2*_16
REMARK    2  A    between atoms: C3*_3  and  O3*_18
REMARK    3  A    between atoms: C4*_4  and  C5*_20
REMARK    4  A    between atoms: C1*_5  and  N_7
REMARK    5  A    between atoms: C5*_20  and  O5*_21
REMARK                            x       y       z     vdW  Elec       q    Type
REMARK                         _______ _______ _______ _____ _____    ______ ____
ROOT
ATOM      1  O4* UNL     1      35.261 -16.384 -24.090  0.00  0.00    -0.332 OA
ATOM      2  C2* UNL     1      34.754 -17.533 -22.080  0.00  0.00    +0.187 C 
ATOM      3  C3* UNL     1      35.424 -18.499 -23.034  0.00  0.00    +0.171 C 
ATOM      4  C4* UNL     1      35.241 -17.800 -24.375  0.00  0.00    +0.175 C 
ATOM      5  C1* UNL     1      35.138 -16.188 -22.672  0.00  0.00    +0.234 C 
ENDROOT
BRANCH   5   7
ATOM      6  O   UNL     1      34.708 -14.963 -20.203  0.00  0.00    -0.192 OA
ATOM      7  N   UNL     1      34.149 -15.178 -22.424  0.00  0.00    -0.177 N 
ATOM      8  N   UNL     1      33.026 -13.647 -20.992  0.00  0.00    -0.252 NA
ATOM      9  N   UNL     1      32.411 -13.824 -23.261  0.00  0.00    -0.174 NA
ATOM     10  N   UNL     1      31.315 -12.316 -21.820  0.00  0.00    -0.293 N 
ATOM     11  C   UNL     1      33.999 -14.613 -21.149  0.00  0.00    +0.282 C 
ATOM     12  C   UNL     1      33.315 -14.726 -23.424  0.00  0.00    +0.245 C 
ATOM     13  C   UNL     1      32.278 -13.279 -21.999  0.00  0.00    +0.151 C 
ATOM     14  H   UNL     1      31.189 -11.904 -20.934  0.00  0.00    +0.155 HD
ATOM     15  H   UNL     1      30.750 -12.036 -22.576  0.00  0.00    +0.155 HD
ENDBRANCH   5   7
BRANCH   2  16
ATOM     16  O2* UNL     1      35.206 -17.692 -20.751  0.00  0.00    -0.378 OA
ATOM     17  H2* UNL     1      35.634 -18.557 -20.656  0.00  0.00    +0.211 HD
ENDBRANCH   2  16
BRANCH   3  18
ATOM     18  O3* UNL     1      36.823 -18.573 -22.764  0.00  0.00    -0.379 OA
ATOM     19  H3* UNL     1      37.060 -19.486 -22.537  0.00  0.00    +0.211 HD
ENDBRANCH   3  18
BRANCH   4  20
ATOM     20  C5* UNL     1      33.918 -18.130 -25.052  0.00  0.00    +0.169 C 
BRANCH  20  21
ATOM     21  O5* UNL     1      33.601 -17.091 -25.962  0.00  0.00    -0.379 OA
ATOM     22  H5* UNL     1      32.638 -17.026 -26.055  0.00  0.00    +0.211 HD
ENDBRANCH  20  21
ENDBRANCH   4  20
TORSDOF 5
ENDMDL
