MODEL 1
REMARK VINA RESULT:      -3.7      0.000      0.000
REMARK  Name = 1045
REMARK  5 active torsions:
REMARK  status: ('A' for Active; 'I' for Inactive)
REMARK    1  A    between atoms: C_1  and  C_2
REMARK    2  A    between atoms: C_1  and  C_8
REMARK    3  A    between atoms: C_2  and  C_3
REMARK    4  A    between atoms: C_3  and  N_4
REMARK    5  A    between atoms: C_8  and  N_9
REMARK                            x       y       z     vdW  Elec       q    Type
REMARK                         _______ _______ _______ _____ _____    ______ ____
ROOT
ATOM      1  C   UNL     1      33.789 -19.530 -21.301  0.00  0.00    -0.026 C 
ENDROOT
BRANCH   1   2
ATOM      2  C   UNL     1      32.904 -20.299 -20.316  0.00  0.00    -0.026 C 
BRANCH   2   3
ATOM      3  C   UNL     1      33.703 -21.380 -19.587  0.00  0.00    -0.086 C 
BRANCH   3   4
ATOM      4  N   UNL     1      32.818 -22.199 -18.768  0.00  0.00    +0.380 N 
ATOM      5  H   UNL     1      32.608 -21.708 -17.898  0.00  0.00    -0.089 HD
ATOM      6  H   UNL     1      33.274 -23.087 -18.555  0.00  0.00    -0.089 HD
ATOM      7  H   UNL     1      31.951 -22.375 -19.276  0.00  0.00    -0.089 HD
ENDBRANCH   3   4
ENDBRANCH   2   3
ENDBRANCH   1   2
BRANCH   1   8
ATOM      8  C   UNL     1      35.285 -19.799 -21.117  0.00  0.00    -0.086 C 
BRANCH   8   9
ATOM      9  N   UNL     1      36.004 -18.628 -20.630  0.00  0.00    +0.380 N 
ATOM     10  H   UNL     1      35.802 -17.830 -21.233  0.00  0.00    -0.089 HD
ATOM     11  H   UNL     1      37.007 -18.816 -20.640  0.00  0.00    -0.089 HD
ATOM     12  H   UNL     1      35.707 -18.418 -19.678  0.00  0.00    -0.089 HD
ENDBRANCH   8   9
ENDBRANCH   1   8
TORSDOF 5
ENDMDL
MODEL 2
REMARK VINA RESULT:      -3.7      0.128      3.481
REMARK  Name = 1045
REMARK  5 active torsions:
REMARK  status: ('A' for Active; 'I' for Inactive)
REMARK    1  A    between atoms: C_1  and  C_2
REMARK    2  A    between atoms: C_1  and  C_8
REMARK    3  A    between atoms: C_2  and  C_3
REMARK    4  A    between atoms: C_3  and  N_4
REMARK    5  A    between atoms: C_8  and  N_9
REMARK                            x       y       z     vdW  Elec       q    Type
REMARK                         _______ _______ _______ _____ _____    ______ ____
ROOT
ATOM      1  C   UNL     1      32.890 -20.294 -20.297  0.00  0.00    -0.026 C 
ENDROOT
BRANCH   1   2
ATOM      2  C   UNL     1      33.800 -19.385 -21.129  0.00  0.00    -0.026 C 
BRANCH   2   3
ATOM      3  C   UNL     1      35.254 -19.852 -21.061  0.00  0.00    -0.086 C 
BRANCH   3   4
ATOM      4  N   UNL     1      36.122 -18.751 -20.661  0.00  0.00    +0.380 N 
ATOM      5  H   UNL     1      35.709 -18.265 -19.864  0.00  0.00    -0.089 HD
ATOM      6  H   UNL     1      36.228 -18.100 -21.439  0.00  0.00    -0.089 HD
ATOM      7  H   UNL     1      37.036 -19.119 -20.397  0.00  0.00    -0.089 HD
ENDBRANCH   3   4
ENDBRANCH   2   3
ENDBRANCH   1   2
BRANCH   1   8
ATOM      8  C   UNL     1      33.641 -21.417 -19.578  0.00  0.00    -0.086 C 
BRANCH   8   9
ATOM      9  N   UNL     1      32.764 -22.219 -18.733  0.00  0.00    +0.380 N 
ATOM     10  H   UNL     1      31.800 -21.909 -18.855  0.00  0.00    -0.089 HD
ATOM     11  H   UNL     1      33.037 -22.106 -17.756  0.00  0.00    -0.089 HD
ATOM     12  H   UNL     1      32.842 -23.201 -18.997  0.00  0.00    -0.089 HD
ENDBRANCH   8   9
ENDBRANCH   1   8
TORSDOF 5
ENDMDL
MODEL 3
REMARK VINA RESULT:      -3.5      1.380      4.081
REMARK  Name = 1045
REMARK  5 active torsions:
REMARK  status: ('A' for Active; 'I' for Inactive)
REMARK    1  A    between atoms: C_1  and  C_2
REMARK    2  A    between atoms: C_1  and  C_8
REMARK    3  A    between atoms: C_2  and  C_3
REMARK    4  A    between atoms: C_3  and  N_4
REMARK    5  A    between atoms: C_8  and  N_9
REMARK                            x       y       z     vdW  Elec       q    Type
REMARK                         _______ _______ _______ _____ _____    ______ ____
ROOT
ATOM      1  C   UNL     1      34.530 -20.260 -20.501  0.00  0.00    -0.026 C 
ENDROOT
BRANCH   1   2
ATOM      2  C   UNL     1      34.598 -19.336 -21.721  0.00  0.00    -0.026 C 
BRANCH   2   3
ATOM      3  C   UNL     1      35.816 -18.415 -21.647  0.00  0.00    -0.086 C 
BRANCH   3   4
ATOM      4  N   UNL     1      36.192 -17.965 -22.981  0.00  0.00    +0.380 N 
ATOM      5  H   UNL     1      36.037 -18.719 -23.652  0.00  0.00    -0.089 HD
ATOM      6  H   UNL     1      37.178 -17.702 -22.987  0.00  0.00    -0.089 HD
ATOM      7  H   UNL     1      35.624 -17.158 -23.241  0.00  0.00    -0.089 HD
ENDBRANCH   3   4
ENDBRANCH   2   3
ENDBRANCH   1   2
BRANCH   1   8
ATOM      8  C   UNL     1      33.102 -20.584 -20.058  0.00  0.00    -0.086 C 
BRANCH   8   9
ATOM      9  N   UNL     1      32.971 -21.951 -19.567  0.00  0.00    +0.380 N 
ATOM     10  H   UNL     1      33.299 -21.999 -18.603  0.00  0.00    -0.089 HD
ATOM     11  H   UNL     1      33.531 -22.576 -20.149  0.00  0.00    -0.089 HD
ATOM     12  H   UNL     1      31.992 -22.234 -19.609  0.00  0.00    -0.089 HD
ENDBRANCH   8   9
ENDBRANCH   1   8
TORSDOF 5
ENDMDL
MODEL 4
REMARK VINA RESULT:      -3.5      9.710     10.582
REMARK  Name = 1045
REMARK  5 active torsions:
REMARK  status: ('A' for Active; 'I' for Inactive)
REMARK    1  A    between atoms: C_1  and  C_2
REMARK    2  A    between atoms: C_1  and  C_8
REMARK    3  A    between atoms: C_2  and  C_3
REMARK    4  A    between atoms: C_3  and  N_4
REMARK    5  A    between atoms: C_8  and  N_9
REMARK                            x       y       z     vdW  Elec       q    Type
REMARK                         _______ _______ _______ _____ _____    ______ ____
ROOT
ATOM      1  C   UNL     1      31.914  -9.947 -19.370  0.00  0.00    -0.026 C 
ENDROOT
BRANCH   1   2
ATOM      2  C   UNL     1      31.091 -11.104 -19.946  0.00  0.00    -0.026 C 
BRANCH   2   3
ATOM      3  C   UNL     1      31.074 -11.058 -21.474  0.00  0.00    -0.086 C 
BRANCH   3   4
ATOM      4  N   UNL     1      31.517 -12.333 -22.024  0.00  0.00    +0.380 N 
ATOM      5  H   UNL     1      31.898 -12.913 -21.275  0.00  0.00    -0.089 HD
ATOM      6  H   UNL     1      32.238 -12.169 -22.727  0.00  0.00    -0.089 HD
ATOM      7  H   UNL     1      30.725 -12.811 -22.454  0.00  0.00    -0.089 HD
ENDBRANCH   3   4
ENDBRANCH   2   3
ENDBRANCH   1   2
BRANCH   1   8
ATOM      8  C   UNL     1      32.226  -8.850 -20.390  0.00  0.00    -0.086 C 
BRANCH   8   9
ATOM      9  N   UNL     1      32.970  -7.742 -19.805  0.00  0.00    +0.380 N 
ATOM     10  H   UNL     1      32.360  -7.215 -19.181  0.00  0.00    -0.089 HD
ATOM     11  H   UNL     1      33.308  -7.129 -20.548  0.00  0.00    -0.089 HD
ATOM     12  H   UNL     1      33.763  -8.107 -19.277  0.00  0.00    -0.089 HD
ENDBRANCH   8   9
ENDBRANCH   1   8
TORSDOF 5
ENDMDL
MODEL 5
REMARK VINA RESULT:      -3.4      2.996      4.621
REMARK  Name = 1045
REMARK  5 active torsions:
REMARK  status: ('A' for Active; 'I' for Inactive)
REMARK    1  A    between atoms: C_1  and  C_2
REMARK    2  A    between atoms: C_1  and  C_8
REMARK    3  A    between atoms: C_2  and  C_3
REMARK    4  A    between atoms: C_3  and  N_4
REMARK    5  A    between atoms: C_8  and  N_9
REMARK                            x       y       z     vdW  Elec       q    Type
REMARK                         _______ _______ _______ _____ _____    ______ ____
ROOT
ATOM      1  C   UNL     1      34.478 -19.221 -22.487  0.00  0.00    -0.026 C 
ENDROOT
BRANCH   1   2
ATOM      2  C   UNL     1      35.138 -18.970 -23.846  0.00  0.00    -0.026 C 
BRANCH   2   3
ATOM      3  C   UNL     1      34.626 -17.675 -24.476  0.00  0.00    -0.086 C 
BRANCH   3   4
ATOM      4  N   UNL     1      35.447 -16.546 -24.054  0.00  0.00    +0.380 N 
ATOM      5  H   UNL     1      35.468 -15.845 -24.796  0.00  0.00    -0.089 HD
ATOM      6  H   UNL     1      36.396 -16.868 -23.864  0.00  0.00    -0.089 HD
ATOM      7  H   UNL     1      35.051 -16.135 -23.209  0.00  0.00    -0.089 HD
ENDBRANCH   3   4
ENDBRANCH   2   3
ENDBRANCH   1   2
BRANCH   1   8
ATOM      8  C   UNL     1      35.444 -19.094 -21.306  0.00  0.00    -0.086 C 
BRANCH   8   9
ATOM      9  N   UNL     1      35.457 -17.750 -20.742  0.00  0.00    +0.380 N 
ATOM     10  H   UNL     1      35.269 -17.800 -19.741  0.00  0.00    -0.089 HD
ATOM     11  H   UNL     1      34.738 -17.184 -21.195  0.00  0.00    -0.089 HD
ATOM     12  H   UNL     1      36.371 -17.325 -20.896  0.00  0.00    -0.089 HD
ENDBRANCH   8   9
ENDBRANCH   1   8
TORSDOF 5
ENDMDL
MODEL 6
REMARK VINA RESULT:      -3.4      1.695      2.144
REMARK  Name = 1045
REMARK  5 active torsions:
REMARK  status: ('A' for Active; 'I' for Inactive)
REMARK    1  A    between atoms: C_1  and  C_2
REMARK    2  A    between atoms: C_1  and  C_8
REMARK    3  A    between atoms: C_2  and  C_3
REMARK    4  A    between atoms: C_3  and  N_4
REMARK    5  A    between atoms: C_8  and  N_9
REMARK                            x       y       z     vdW  Elec       q    Type
REMARK                         _______ _______ _______ _____ _____    ______ ____
ROOT
ATOM      1  C   UNL     1      35.739 -18.949 -21.262  0.00  0.00    -0.026 C 
ENDROOT
BRANCH   1   2
ATOM      2  C   UNL     1      34.938 -20.100 -20.645  0.00  0.00    -0.026 C 
BRANCH   2   3
ATOM      3  C   UNL     1      33.435 -19.854 -20.774  0.00  0.00    -0.086 C 
BRANCH   3   4
ATOM      4  N   UNL     1      32.704 -20.664 -19.807  0.00  0.00    +0.380 N 
ATOM      5  H   UNL     1      33.364 -21.213 -19.255  0.00  0.00    -0.089 HD
ATOM      6  H   UNL     1      32.068 -21.291 -20.299  0.00  0.00    -0.089 HD
ATOM      7  H   UNL     1      32.169 -20.054 -19.188  0.00  0.00    -0.089 HD
ENDBRANCH   3   4
ENDBRANCH   2   3
ENDBRANCH   1   2
BRANCH   1   8
ATOM      8  C   UNL     1      35.355 -18.644 -22.711  0.00  0.00    -0.086 C 
BRANCH   8   9
ATOM      9  N   UNL     1      35.770 -17.309 -23.126  0.00  0.00    +0.380 N 
ATOM     10  H   UNL     1      35.992 -16.751 -22.302  0.00  0.00    -0.089 HD
ATOM     11  H   UNL     1      35.011 -16.864 -23.645  0.00  0.00    -0.089 HD
ATOM     12  H   UNL     1      36.594 -17.380 -23.722  0.00  0.00    -0.089 HD
ENDBRANCH   8   9
ENDBRANCH   1   8
TORSDOF 5
ENDMDL
MODEL 7
REMARK VINA RESULT:      -3.4      2.955      3.959
REMARK  Name = 1045
REMARK  5 active torsions:
REMARK  status: ('A' for Active; 'I' for Inactive)
REMARK    1  A    between atoms: C_1  and  C_2
REMARK    2  A    between atoms: C_1  and  C_8
REMARK    3  A    between atoms: C_2  and  C_3
REMARK    4  A    between atoms: C_3  and  N_4
REMARK    5  A    between atoms: C_8  and  N_9
REMARK                            x       y       z     vdW  Elec       q    Type
REMARK                         _______ _______ _______ _____ _____    ______ ____
ROOT
ATOM      1  C   UNL     1      35.053 -19.080 -23.840  0.00  0.00    -0.026 C 
ENDROOT
BRANCH   1   2
ATOM      2  C   UNL     1      34.753 -18.822 -22.361  0.00  0.00    -0.026 C 
BRANCH   2   3
ATOM      3  C   UNL     1      36.036 -18.524 -21.583  0.00  0.00    -0.086 C 
BRANCH   3   4
ATOM      4  N   UNL     1      36.146 -19.410 -20.431  0.00  0.00    +0.380 N 
ATOM      5  H   UNL     1      35.940 -18.886 -19.579  0.00  0.00    -0.089 HD
ATOM      6  H   UNL     1      37.094 -19.785 -20.378  0.00  0.00    -0.089 HD
ATOM      7  H   UNL     1      35.481 -20.177 -20.527  0.00  0.00    -0.089 HD
ENDBRANCH   3   4
ENDBRANCH   2   3
ENDBRANCH   1   2
BRANCH   1   8
ATOM      8  C   UNL     1      34.552 -17.971 -24.769  0.00  0.00    -0.086 C 
BRANCH   8   9
ATOM      9  N   UNL     1      35.244 -16.708 -24.548  0.00  0.00    +0.380 N 
ATOM     10  H   UNL     1      35.835 -16.784 -23.721  0.00  0.00    -0.089 HD
ATOM     11  H   UNL     1      34.559 -15.964 -24.410  0.00  0.00    -0.089 HD
ATOM     12  H   UNL     1      35.822 -16.490 -25.360  0.00  0.00    -0.089 HD
ENDBRANCH   8   9
ENDBRANCH   1   8
TORSDOF 5
ENDMDL
MODEL 8
REMARK VINA RESULT:      -3.4      8.792     10.022
REMARK  Name = 1045
REMARK  5 active torsions:
REMARK  status: ('A' for Active; 'I' for Inactive)
REMARK    1  A    between atoms: C_1  and  C_2
REMARK    2  A    between atoms: C_1  and  C_8
REMARK    3  A    between atoms: C_2  and  C_3
REMARK    4  A    between atoms: C_3  and  N_4
REMARK    5  A    between atoms: C_8  and  N_9
REMARK                            x       y       z     vdW  Elec       q    Type
REMARK                         _______ _______ _______ _____ _____    ______ ____
ROOT
ATOM      1  C   UNL     1      37.622 -26.169 -13.476  0.00  0.00    -0.026 C 
ENDROOT
BRANCH   1   2
ATOM      2  C   UNL     1      38.928 -25.423 -13.186  0.00  0.00    -0.026 C 
BRANCH   2   3
ATOM      3  C   UNL     1      39.898 -25.534 -14.363  0.00  0.00    -0.086 C 
BRANCH   3   4
ATOM      4  N   UNL     1      40.805 -26.658 -14.168  0.00  0.00    +0.380 N 
ATOM      5  H   UNL     1      41.294 -26.550 -13.278  0.00  0.00    -0.089 HD
ATOM      6  H   UNL     1      41.484 -26.684 -14.928  0.00  0.00    -0.089 HD
ATOM      7  H   UNL     1      40.271 -27.528 -14.158  0.00  0.00    -0.089 HD
ENDBRANCH   3   4
ENDBRANCH   2   3
ENDBRANCH   1   2
BRANCH   1   8
ATOM      8  C   UNL     1      37.257 -26.207 -14.962  0.00  0.00    -0.086 C 
BRANCH   8   9
ATOM      9  N   UNL     1      36.031 -26.955 -15.213  0.00  0.00    +0.380 N 
ATOM     10  H   UNL     1      35.389 -26.382 -15.759  0.00  0.00    -0.089 HD
ATOM     11  H   UNL     1      35.595 -27.201 -14.323  0.00  0.00    -0.089 HD
ATOM     12  H   UNL     1      36.252 -27.806 -15.729  0.00  0.00    -0.089 HD
ENDBRANCH   8   9
ENDBRANCH   1   8
TORSDOF 5
ENDMDL
MODEL 9
REMARK VINA RESULT:      -3.4      2.163      2.621
REMARK  Name = 1045
REMARK  5 active torsions:
REMARK  status: ('A' for Active; 'I' for Inactive)
REMARK    1  A    between atoms: C_1  and  C_2
REMARK    2  A    between atoms: C_1  and  C_8
REMARK    3  A    between atoms: C_2  and  C_3
REMARK    4  A    between atoms: C_3  and  N_4
REMARK    5  A    between atoms: C_8  and  N_9
REMARK                            x       y       z     vdW  Elec       q    Type
REMARK                         _______ _______ _______ _____ _____    ______ ____
ROOT
ATOM      1  C   UNL     1      35.112 -21.403 -19.782  0.00  0.00    -0.026 C 
ENDROOT
BRANCH   1   2
ATOM      2  C   UNL     1      34.625 -20.193 -20.585  0.00  0.00    -0.026 C 
BRANCH   2   3
ATOM      3  C   UNL     1      33.102 -20.074 -20.531  0.00  0.00    -0.086 C 
BRANCH   3   4
ATOM      4  N   UNL     1      32.568 -20.891 -19.447  0.00  0.00    +0.380 N 
ATOM      5  H   UNL     1      32.971 -21.827 -19.497  0.00  0.00    -0.089 HD
ATOM      6  H   UNL     1      31.554 -20.952 -19.535  0.00  0.00    -0.089 HD
ATOM      7  H   UNL     1      32.807 -20.465 -18.551  0.00  0.00    -0.089 HD
ENDBRANCH   3   4
ENDBRANCH   2   3
ENDBRANCH   1   2
BRANCH   1   8
ATOM      8  C   UNL     1      36.514 -21.223 -19.194  0.00  0.00    -0.086 C 
BRANCH   8   9
ATOM      9  N   UNL     1      36.637 -21.808 -17.865  0.00  0.00    +0.380 N 
ATOM     10  H   UNL     1      36.439 -22.807 -17.914  0.00  0.00    -0.089 HD
ATOM     11  H   UNL     1      35.971 -21.360 -17.233  0.00  0.00    -0.089 HD
ATOM     12  H   UNL     1      37.585 -21.665 -17.517  0.00  0.00    -0.089 HD
ENDBRANCH   8   9
ENDBRANCH   1   8
TORSDOF 5
ENDMDL
