MODEL 1
REMARK VINA RESULT:     -11.4      0.000      0.000
REMARK  Name = 44144378
REMARK  5 active torsions:
REMARK  status: ('A' for Active; 'I' for Inactive)
REMARK    1  A    between atoms: C_1  and  C_3
REMARK    2  A    between atoms: C_1  and  C_18
REMARK    3  A    between atoms: C_4  and  C_9
REMARK    4  A    between atoms: C_8  and  O_16
REMARK    5  A    between atoms: C_19  and  C_24
REMARK                            x       y       z     vdW  Elec       q    Type
REMARK                         _______ _______ _______ _____ _____    ______ ____
ROOT
ATOM      1  C   UNL     1      33.233 -12.343 -24.285  0.00  0.00    +0.086 C 
ATOM      2  C   UNL     1      34.333 -11.648 -25.111  0.00  0.00    +0.019 C 
ENDROOT
BRANCH   1   3
ATOM      3  C   UNL     1      32.638 -11.444 -23.254  0.00  0.00    -0.007 C 
ATOM      4  C   UNL     1      31.930  -9.243 -22.553  0.00  0.00    +0.003 C 
ATOM      5  C   UNL     1      32.488 -10.083 -23.518  0.00  0.00    -0.003 C 
ATOM      6  C   UNL     1      32.229 -11.966 -22.027  0.00  0.00    +0.034 C 
ATOM      7  C   UNL     1      31.522  -9.765 -21.325  0.00  0.00    +0.037 C 
ATOM      8  C   UNL     1      31.672 -11.127 -21.062  0.00  0.00    +0.138 C 
BRANCH   4   9
ATOM      9  C   UNL     1      31.775  -7.830 -22.827  0.00  0.00    +0.000 C 
ATOM     10  C   UNL     1      32.039  -6.893 -21.828  0.00  0.00    -0.000 C 
ATOM     11  C   UNL     1      31.361  -7.406 -24.090  0.00  0.00    -0.000 C 
ATOM     12  C   UNL     1      31.475  -5.107 -23.354  0.00  0.00    -0.022 C 
ATOM     13  C   UNL     1      31.889  -5.532 -22.091  0.00  0.00    -0.004 C 
ATOM     14  C   UNL     1      31.211  -6.045 -24.353  0.00  0.00    -0.004 C 
ATOM     15  C   UNL     1      31.314  -3.652 -23.635  0.00  0.00    +0.031 C 
ENDBRANCH   4   9
BRANCH   8  16
ATOM     16  O   UNL     1      31.275 -11.636 -19.864  0.00  0.00    -0.471 OA
ATOM     17  C   UNL     1      31.329 -10.762 -18.737  0.00  0.00    +0.252 C 
ENDBRANCH   8  16
ENDBRANCH   1   3
BRANCH   1  18
ATOM     18  C   UNL     1      33.766 -13.599 -23.700  0.00  0.00    -0.087 C 
ATOM     19  C   UNL     1      34.192 -14.608 -23.205  0.00  0.00    -0.076 C 
BRANCH  19  24
ATOM     20  N   UNL     1      35.178 -17.104 -20.642  0.00  0.00    -0.336 NA
ATOM     21  N   UNL     1      35.675 -17.996 -22.825  0.00  0.00    -0.317 NA
ATOM     22  N   UNL     1      35.209 -16.737 -24.772  0.00  0.00    -0.334 N 
ATOM     23  N   UNL     1      36.132 -19.234 -20.885  0.00  0.00    -0.283 N 
ATOM     24  C   UNL     1      34.695 -15.807 -22.612  0.00  0.00    +0.179 C 
ATOM     25  C   UNL     1      34.712 -15.990 -21.245  0.00  0.00    +0.120 C 
ATOM     26  C   UNL     1      35.195 -16.854 -23.361  0.00  0.00    +0.186 C 
ATOM     27  C   UNL     1      34.200 -14.932 -20.320  0.00  0.00    +0.064 C 
ATOM     28  C   UNL     1      35.638 -18.053 -21.480  0.00  0.00    +0.196 C 
ATOM     29  H   UNL     1      35.561 -17.474 -25.324  0.00  0.00    +0.144 HD
ATOM     30  H   UNL     1      34.867 -15.921 -25.203  0.00  0.00    +0.144 HD
ATOM     31  H   UNL     1      36.129 -19.329 -19.905  0.00  0.00    +0.156 HD
ATOM     32  H   UNL     1      36.481 -19.961 -21.450  0.00  0.00    +0.156 HD
ENDBRANCH  19  24
ENDBRANCH   1  18
TORSDOF 5
ENDMDL
MODEL 2
REMARK VINA RESULT:     -10.9      3.947      9.706
REMARK  Name = 44144378
REMARK  5 active torsions:
REMARK  status: ('A' for Active; 'I' for Inactive)
REMARK    1  A    between atoms: C_1  and  C_3
REMARK    2  A    between atoms: C_1  and  C_18
REMARK    3  A    between atoms: C_4  and  C_9
REMARK    4  A    between atoms: C_8  and  O_16
REMARK    5  A    between atoms: C_19  and  C_24
REMARK                            x       y       z     vdW  Elec       q    Type
REMARK                         _______ _______ _______ _____ _____    ______ ____
ROOT
ATOM      1  C   UNL     1      32.367 -13.898 -21.854  0.00  0.00    +0.086 C 
ATOM      2  C   UNL     1      32.576 -13.922 -20.327  0.00  0.00    +0.019 C 
ENDROOT
BRANCH   1   3
ATOM      3  C   UNL     1      33.105 -14.990 -22.550  0.00  0.00    -0.007 C 
ATOM      4  C   UNL     1      34.288 -17.096 -22.474  0.00  0.00    +0.003 C 
ATOM      5  C   UNL     1      33.598 -16.073 -21.822  0.00  0.00    -0.003 C 
ATOM      6  C   UNL     1      33.300 -14.930 -23.929  0.00  0.00    +0.034 C 
ATOM      7  C   UNL     1      34.484 -17.035 -23.854  0.00  0.00    +0.037 C 
ATOM      8  C   UNL     1      33.991 -15.953 -24.582  0.00  0.00    +0.138 C 
BRANCH   4   9
ATOM      9  C   UNL     1      34.800 -18.220 -21.718  0.00  0.00    +0.000 C 
ATOM     10  C   UNL     1      33.919 -19.160 -21.184  0.00  0.00    -0.000 C 
ATOM     11  C   UNL     1      36.174 -18.362 -21.526  0.00  0.00    -0.000 C 
ATOM     12  C   UNL     1      35.787 -20.385 -20.263  0.00  0.00    -0.022 C 
ATOM     13  C   UNL     1      34.412 -20.243 -20.457  0.00  0.00    -0.004 C 
ATOM     14  C   UNL     1      36.667 -19.445 -20.798  0.00  0.00    -0.004 C 
ATOM     15  C   UNL     1      36.314 -21.543 -19.485  0.00  0.00    +0.031 C 
ENDBRANCH   4   9
BRANCH   8  16
ATOM     16  O   UNL     1      34.182 -15.893 -25.928  0.00  0.00    -0.471 OA
ATOM     17  C   UNL     1      33.360 -14.985 -26.661  0.00  0.00    +0.252 C 
ENDBRANCH   8  16
ENDBRANCH   1   3
BRANCH   1  18
ATOM     18  C   UNL     1      32.713 -12.554 -22.384  0.00  0.00    -0.087 C 
ATOM     19  C   UNL     1      33.006 -11.463 -22.793  0.00  0.00    -0.076 C 
BRANCH  19  24
ATOM     20  N   UNL     1      33.108  -7.773 -23.171  0.00  0.00    -0.336 NA
ATOM     21  N   UNL     1      34.617  -8.759 -24.771  0.00  0.00    -0.317 NA
ATOM     22  N   UNL     1      34.876 -11.106 -24.890  0.00  0.00    -0.334 N 
ATOM     23  N   UNL     1      34.350  -6.431 -24.642  0.00  0.00    -0.283 N 
ATOM     24  C   UNL     1      33.358 -10.165 -23.276  0.00  0.00    +0.179 C 
ATOM     25  C   UNL     1      32.806  -9.017 -22.747  0.00  0.00    +0.120 C 
ATOM     26  C   UNL     1      34.267  -9.973 -24.297  0.00  0.00    +0.186 C 
ATOM     27  C   UNL     1      31.807  -9.086 -21.635  0.00  0.00    +0.064 C 
ATOM     28  C   UNL     1      34.008  -7.718 -24.172  0.00  0.00    +0.196 C 
ATOM     29  H   UNL     1      35.528 -10.990 -25.620  0.00  0.00    +0.144 HD
ATOM     30  H   UNL     1      34.650 -12.010 -24.573  0.00  0.00    +0.144 HD
ATOM     31  H   UNL     1      33.935  -5.634 -24.240  0.00  0.00    +0.156 HD
ATOM     32  H   UNL     1      35.003  -6.332 -25.372  0.00  0.00    +0.156 HD
ENDBRANCH  19  24
ENDBRANCH   1  18
TORSDOF 5
ENDMDL
MODEL 3
REMARK VINA RESULT:     -10.7      5.190      9.558
REMARK  Name = 44144378
REMARK  5 active torsions:
REMARK  status: ('A' for Active; 'I' for Inactive)
REMARK    1  A    between atoms: C_1  and  C_3
REMARK    2  A    between atoms: C_1  and  C_18
REMARK    3  A    between atoms: C_4  and  C_9
REMARK    4  A    between atoms: C_8  and  O_16
REMARK    5  A    between atoms: C_19  and  C_24
REMARK                            x       y       z     vdW  Elec       q    Type
REMARK                         _______ _______ _______ _____ _____    ______ ____
ROOT
ATOM      1  C   UNL     1      34.574  -9.595 -24.103  0.00  0.00    +0.086 C 
ATOM      2  C   UNL     1      35.222  -9.877 -25.473  0.00  0.00    +0.019 C 
ENDROOT
BRANCH   1   3
ATOM      3  C   UNL     1      33.748 -10.737 -23.616  0.00  0.00    -0.007 C 
ATOM      4  C   UNL     1      33.315 -13.111 -23.508  0.00  0.00    +0.003 C 
ATOM      5  C   UNL     1      34.088 -12.043 -23.965  0.00  0.00    -0.003 C 
ATOM      6  C   UNL     1      32.636 -10.497 -22.808  0.00  0.00    +0.034 C 
ATOM      7  C   UNL     1      32.202 -12.872 -22.700  0.00  0.00    +0.037 C 
ATOM      8  C   UNL     1      31.862 -11.565 -22.351  0.00  0.00    +0.138 C 
BRANCH   4   9
ATOM      9  C   UNL     1      33.668 -14.468 -23.870  0.00  0.00    +0.000 C 
ATOM     10  C   UNL     1      34.328 -15.285 -22.953  0.00  0.00    -0.000 C 
ATOM     11  C   UNL     1      33.346 -14.957 -25.136  0.00  0.00    -0.000 C 
ATOM     12  C   UNL     1      34.347 -17.082 -24.568  0.00  0.00    -0.022 C 
ATOM     13  C   UNL     1      34.668 -16.592 -23.302  0.00  0.00    -0.004 C 
ATOM     14  C   UNL     1      33.685 -16.264 -25.485  0.00  0.00    -0.004 C 
ATOM     15  C   UNL     1      34.710 -18.479 -24.942  0.00  0.00    +0.031 C 
ENDBRANCH   4   9
BRANCH   8  16
ATOM     16  O   UNL     1      30.777 -11.331 -21.564  0.00  0.00    -0.471 OA
ATOM     17  C   UNL     1      31.024 -11.031 -20.191  0.00  0.00    +0.252 C 
ENDBRANCH   8  16
ENDBRANCH   1   3
BRANCH   1  18
ATOM     18  C   UNL     1      33.805  -8.327 -24.167  0.00  0.00    -0.087 C 
ATOM     19  C   UNL     1      33.178  -7.304 -24.240  0.00  0.00    -0.076 C 
BRANCH  19  24
ATOM     20  N   UNL     1      32.020  -3.982 -25.422  0.00  0.00    -0.336 NA
ATOM     21  N   UNL     1      30.673  -4.648 -23.536  0.00  0.00    -0.317 NA
ATOM     22  N   UNL     1      31.061  -6.714 -22.453  0.00  0.00    -0.334 N 
ATOM     23  N   UNL     1      30.300  -2.601 -24.620  0.00  0.00    -0.283 N 
ATOM     24  C   UNL     1      32.429  -6.090 -24.333  0.00  0.00    +0.179 C 
ATOM     25  C   UNL     1      32.699  -5.141 -25.297  0.00  0.00    +0.120 C 
ATOM     26  C   UNL     1      31.395  -5.786 -23.470  0.00  0.00    +0.186 C 
ATOM     27  C   UNL     1      33.795  -5.347 -26.294  0.00  0.00    +0.064 C 
ATOM     28  C   UNL     1      31.034  -3.803 -24.521  0.00  0.00    +0.196 C 
ATOM     29  H   UNL     1      30.326  -6.516 -21.828  0.00  0.00    +0.144 HD
ATOM     30  H   UNL     1      31.562  -7.557 -22.371  0.00  0.00    +0.144 HD
ATOM     31  H   UNL     1      30.521  -1.946 -25.322  0.00  0.00    +0.156 HD
ATOM     32  H   UNL     1      29.568  -2.418 -23.988  0.00  0.00    +0.156 HD
ENDBRANCH  19  24
ENDBRANCH   1  18
TORSDOF 5
ENDMDL
MODEL 4
REMARK VINA RESULT:     -10.7     11.249     14.186
REMARK  Name = 44144378
REMARK  5 active torsions:
REMARK  status: ('A' for Active; 'I' for Inactive)
REMARK    1  A    between atoms: C_1  and  C_3
REMARK    2  A    between atoms: C_1  and  C_18
REMARK    3  A    between atoms: C_4  and  C_9
REMARK    4  A    between atoms: C_8  and  O_16
REMARK    5  A    between atoms: C_19  and  C_24
REMARK                            x       y       z     vdW  Elec       q    Type
REMARK                         _______ _______ _______ _____ _____    ______ ____
ROOT
ATOM      1  C   UNL     1      32.652 -24.096 -13.830  0.00  0.00    +0.086 C 
ATOM      2  C   UNL     1      31.818 -25.309 -13.375  0.00  0.00    +0.019 C 
ENDROOT
BRANCH   1   3
ATOM      3  C   UNL     1      32.189 -23.539 -15.134  0.00  0.00    -0.007 C 
ATOM      4  C   UNL     1      32.684 -22.527 -17.271  0.00  0.00    +0.003 C 
ATOM      5  C   UNL     1      33.118 -23.048 -16.051  0.00  0.00    -0.003 C 
ATOM      6  C   UNL     1      30.828 -23.511 -15.435  0.00  0.00    +0.034 C 
ATOM      7  C   UNL     1      31.322 -22.499 -17.573  0.00  0.00    +0.037 C 
ATOM      8  C   UNL     1      30.394 -22.990 -16.655  0.00  0.00    +0.138 C 
BRANCH   4   9
ATOM      9  C   UNL     1      33.647 -22.017 -18.224  0.00  0.00    +0.000 C 
ATOM     10  C   UNL     1      33.213 -21.297 -19.337  0.00  0.00    -0.000 C 
ATOM     11  C   UNL     1      35.009 -22.247 -18.028  0.00  0.00    -0.000 C 
ATOM     12  C   UNL     1      35.504 -21.035 -20.060  0.00  0.00    -0.022 C 
ATOM     13  C   UNL     1      34.141 -20.805 -20.255  0.00  0.00    -0.004 C 
ATOM     14  C   UNL     1      35.937 -21.755 -18.947  0.00  0.00    -0.004 C 
ATOM     15  C   UNL     1      36.496 -20.510 -21.041  0.00  0.00    +0.031 C 
ENDBRANCH   4   9
BRANCH   8  16
ATOM     16  O   UNL     1      29.066 -22.963 -16.949  0.00  0.00    -0.471 OA
ATOM     17  C   UNL     1      28.156 -23.050 -15.852  0.00  0.00    +0.252 C 
ENDBRANCH   8  16
ENDBRANCH   1   3
BRANCH   1  18
ATOM     18  C   UNL     1      34.092 -24.461 -13.851  0.00  0.00    -0.087 C 
ATOM     19  C   UNL     1      35.252 -24.772 -13.884  0.00  0.00    -0.076 C 
BRANCH  19  24
ATOM     20  N   UNL     1      38.913 -24.736 -13.276  0.00  0.00    -0.336 NA
ATOM     21  N   UNL     1      38.380 -26.611 -14.695  0.00  0.00    -0.317 NA
ATOM     22  N   UNL     1      36.146 -27.026 -15.348  0.00  0.00    -0.334 N 
ATOM     23  N   UNL     1      40.593 -26.186 -14.040  0.00  0.00    -0.283 N 
ATOM     24  C   UNL     1      36.632 -25.143 -13.929  0.00  0.00    +0.179 C 
ATOM     25  C   UNL     1      37.601 -24.423 -13.262  0.00  0.00    +0.120 C 
ATOM     26  C   UNL     1      37.084 -26.239 -14.637  0.00  0.00    +0.186 C 
ATOM     27  C   UNL     1      37.243 -23.214 -12.457  0.00  0.00    +0.064 C 
ATOM     28  C   UNL     1      39.228 -25.826 -14.003  0.00  0.00    +0.196 C 
ATOM     29  H   UNL     1      36.448 -27.812 -15.859  0.00  0.00    +0.144 HD
ATOM     30  H   UNL     1      35.190 -26.790 -15.331  0.00  0.00    +0.144 HD
ATOM     31  H   UNL     1      41.257 -25.648 -13.552  0.00  0.00    +0.156 HD
ATOM     32  H   UNL     1      40.880 -26.974 -14.556  0.00  0.00    +0.156 HD
ENDBRANCH  19  24
ENDBRANCH   1  18
TORSDOF 5
ENDMDL
MODEL 5
REMARK VINA RESULT:     -10.6      1.025      1.074
REMARK  Name = 44144378
REMARK  5 active torsions:
REMARK  status: ('A' for Active; 'I' for Inactive)
REMARK    1  A    between atoms: C_1  and  C_3
REMARK    2  A    between atoms: C_1  and  C_18
REMARK    3  A    between atoms: C_4  and  C_9
REMARK    4  A    between atoms: C_8  and  O_16
REMARK    5  A    between atoms: C_19  and  C_24
REMARK                            x       y       z     vdW  Elec       q    Type
REMARK                         _______ _______ _______ _____ _____    ______ ____
ROOT
ATOM      1  C   UNL     1      32.773 -13.344 -24.400  0.00  0.00    +0.086 C 
ATOM      2  C   UNL     1      33.620 -12.877 -25.600  0.00  0.00    +0.019 C 
ENDROOT
BRANCH   1   3
ATOM      3  C   UNL     1      32.444 -12.230 -23.465  0.00  0.00    -0.007 C 
ATOM      4  C   UNL     1      32.152  -9.869 -23.042  0.00  0.00    +0.003 C 
ATOM      5  C   UNL     1      32.462 -10.911 -23.917  0.00  0.00    -0.003 C 
ATOM      6  C   UNL     1      32.114 -12.508 -22.138  0.00  0.00    +0.034 C 
ATOM      7  C   UNL     1      31.824 -10.147 -21.715  0.00  0.00    +0.037 C 
ATOM      8  C   UNL     1      31.805 -11.466 -21.263  0.00  0.00    +0.138 C 
BRANCH   4   9
ATOM      9  C   UNL     1      32.172  -8.500 -23.511  0.00  0.00    +0.000 C 
ATOM     10  C   UNL     1      33.387  -7.832 -23.664  0.00  0.00    -0.000 C 
ATOM     11  C   UNL     1      30.975  -7.849 -23.811  0.00  0.00    -0.000 C 
ATOM     12  C   UNL     1      32.209  -5.861 -24.416  0.00  0.00    -0.022 C 
ATOM     13  C   UNL     1      33.406  -6.513 -24.116  0.00  0.00    -0.004 C 
ATOM     14  C   UNL     1      30.994  -6.530 -24.264  0.00  0.00    -0.004 C 
ATOM     15  C   UNL     1      32.229  -4.450 -24.899  0.00  0.00    +0.031 C 
ENDBRANCH   4   9
BRANCH   8  16
ATOM     16  O   UNL     1      31.484 -11.738 -19.968  0.00  0.00    -0.471 OA
ATOM     17  C   UNL     1      31.434 -10.632 -19.067  0.00  0.00    +0.252 C 
ENDBRANCH   8  16
ENDBRANCH   1   3
BRANCH   1  18
ATOM     18  C   UNL     1      33.456 -14.472 -23.716  0.00  0.00    -0.087 C 
ATOM     19  C   UNL     1      34.028 -15.373 -23.163  0.00  0.00    -0.076 C 
BRANCH  19  24
ATOM     20  N   UNL     1      35.515 -17.447 -20.469  0.00  0.00    -0.336 NA
ATOM     21  N   UNL     1      35.899 -18.533 -22.587  0.00  0.00    -0.317 NA
ATOM     22  N   UNL     1      35.119 -17.560 -24.596  0.00  0.00    -0.334 N 
ATOM     23  N   UNL     1      36.669 -19.488 -20.586  0.00  0.00    -0.283 N 
ATOM     24  C   UNL     1      34.712 -16.441 -22.504  0.00  0.00    +0.179 C 
ATOM     25  C   UNL     1      34.877 -16.462 -21.134  0.00  0.00    +0.120 C 
ATOM     26  C   UNL     1      35.250 -17.513 -23.186  0.00  0.00    +0.186 C 
ATOM     27  C   UNL     1      34.341 -15.359 -20.277  0.00  0.00    +0.064 C 
ATOM     28  C   UNL     1      35.995 -18.437 -21.247  0.00  0.00    +0.196 C 
ATOM     29  H   UNL     1      35.495 -18.317 -25.100  0.00  0.00    +0.144 HD
ATOM     30  H   UNL     1      34.651 -16.836 -25.072  0.00  0.00    +0.144 HD
ATOM     31  H   UNL     1      36.768 -19.469 -19.607  0.00  0.00    +0.156 HD
ATOM     32  H   UNL     1      37.039 -20.237 -21.105  0.00  0.00    +0.156 HD
ENDBRANCH  19  24
ENDBRANCH   1  18
TORSDOF 5
ENDMDL
MODEL 6
REMARK VINA RESULT:     -10.5      4.760      9.650
REMARK  Name = 44144378
REMARK  5 active torsions:
REMARK  status: ('A' for Active; 'I' for Inactive)
REMARK    1  A    between atoms: C_1  and  C_3
REMARK    2  A    between atoms: C_1  and  C_18
REMARK    3  A    between atoms: C_4  and  C_9
REMARK    4  A    between atoms: C_8  and  O_16
REMARK    5  A    between atoms: C_19  and  C_24
REMARK                            x       y       z     vdW  Elec       q    Type
REMARK                         _______ _______ _______ _____ _____    ______ ____
ROOT
ATOM      1  C   UNL     1      31.547 -11.840 -21.407  0.00  0.00    +0.086 C 
ATOM      2  C   UNL     1      31.874 -12.149 -19.933  0.00  0.00    +0.019 C 
ENDROOT
BRANCH   1   3
ATOM      3  C   UNL     1      32.425 -12.584 -22.356  0.00  0.00    -0.007 C 
ATOM      4  C   UNL     1      33.802 -14.503 -22.867  0.00  0.00    +0.003 C 
ATOM      5  C   UNL     1      32.981 -13.806 -21.979  0.00  0.00    -0.003 C 
ATOM      6  C   UNL     1      32.687 -12.059 -23.621  0.00  0.00    +0.034 C 
ATOM      7  C   UNL     1      34.065 -13.977 -24.132  0.00  0.00    +0.037 C 
ATOM      8  C   UNL     1      33.508 -12.755 -24.509  0.00  0.00    +0.138 C 
BRANCH   4   9
ATOM      9  C   UNL     1      34.380 -15.771 -22.476  0.00  0.00    +0.000 C 
ATOM     10  C   UNL     1      34.572 -16.063 -21.126  0.00  0.00    -0.000 C 
ATOM     11  C   UNL     1      34.743 -16.701 -23.450  0.00  0.00    -0.000 C 
ATOM     12  C   UNL     1      35.493 -18.216 -21.723  0.00  0.00    -0.022 C 
ATOM     13  C   UNL     1      35.129 -17.285 -20.749  0.00  0.00    -0.004 C 
ATOM     14  C   UNL     1      35.299 -17.923 -23.073  0.00  0.00    -0.004 C 
ATOM     15  C   UNL     1      36.088 -19.522 -21.320  0.00  0.00    +0.031 C 
ENDBRANCH   4   9
BRANCH   8  16
ATOM     16  O   UNL     1      33.765 -12.241 -25.743  0.00  0.00    -0.471 OA
ATOM     17  C   UNL     1      33.374 -13.028 -26.868  0.00  0.00    +0.252 C 
ENDBRANCH   8  16
ENDBRANCH   1   3
BRANCH   1  18
ATOM     18  C   UNL     1      31.588 -10.373 -21.631  0.00  0.00    -0.087 C 
ATOM     19  C   UNL     1      31.599  -9.185 -21.810  0.00  0.00    -0.076 C 
BRANCH  19  24
ATOM     20  N   UNL     1      31.151  -5.881 -23.440  0.00  0.00    -0.336 NA
ATOM     21  N   UNL     1      32.071  -5.541 -21.238  0.00  0.00    -0.317 NA
ATOM     22  N   UNL     1      32.526  -7.385 -19.829  0.00  0.00    -0.334 N 
ATOM     23  N   UNL     1      31.616  -3.722 -22.647  0.00  0.00    -0.283 N 
ATOM     24  C   UNL     1      31.606  -7.771 -22.019  0.00  0.00    +0.179 C 
ATOM     25  C   UNL     1      31.162  -7.208 -23.198  0.00  0.00    +0.120 C 
ATOM     26  C   UNL     1      32.054  -6.880 -21.065  0.00  0.00    +0.186 C 
ATOM     27  C   UNL     1      30.650  -8.063 -24.314  0.00  0.00    +0.064 C 
ATOM     28  C   UNL     1      31.613  -5.117 -22.431  0.00  0.00    +0.196 C 
ATOM     29  H   UNL     1      32.850  -6.766 -19.135  0.00  0.00    +0.144 HD
ATOM     30  H   UNL     1      32.530  -8.355 -19.661  0.00  0.00    +0.144 HD
ATOM     31  H   UNL     1      31.291  -3.355 -23.502  0.00  0.00    +0.156 HD
ATOM     32  H   UNL     1      31.942  -3.116 -21.944  0.00  0.00    +0.156 HD
ENDBRANCH  19  24
ENDBRANCH   1  18
TORSDOF 5
ENDMDL
MODEL 7
REMARK VINA RESULT:     -10.4     10.302     14.317
REMARK  Name = 44144378
REMARK  5 active torsions:
REMARK  status: ('A' for Active; 'I' for Inactive)
REMARK    1  A    between atoms: C_1  and  C_3
REMARK    2  A    between atoms: C_1  and  C_18
REMARK    3  A    between atoms: C_4  and  C_9
REMARK    4  A    between atoms: C_8  and  O_16
REMARK    5  A    between atoms: C_19  and  C_24
REMARK                            x       y       z     vdW  Elec       q    Type
REMARK                         _______ _______ _______ _____ _____    ______ ____
ROOT
ATOM      1  C   UNL     1      34.500 -24.603 -14.031  0.00  0.00    +0.086 C 
ATOM      2  C   UNL     1      34.624 -24.171 -12.556  0.00  0.00    +0.019 C 
ENDROOT
BRANCH   1   3
ATOM      3  C   UNL     1      35.574 -24.025 -14.889  0.00  0.00    -0.007 C 
ATOM      4  C   UNL     1      36.243 -22.747 -16.827  0.00  0.00    +0.003 C 
ATOM      5  C   UNL     1      35.239 -23.289 -16.025  0.00  0.00    -0.003 C 
ATOM      6  C   UNL     1      36.914 -24.218 -14.553  0.00  0.00    +0.034 C 
ATOM      7  C   UNL     1      37.584 -22.941 -16.492  0.00  0.00    +0.037 C 
ATOM      8  C   UNL     1      37.919 -23.677 -15.356  0.00  0.00    +0.138 C 
BRANCH   4   9
ATOM      9  C   UNL     1      35.895 -21.983 -18.006  0.00  0.00    +0.000 C 
ATOM     10  C   UNL     1      36.845 -21.156 -18.607  0.00  0.00    -0.000 C 
ATOM     11  C   UNL     1      34.611 -22.074 -18.541  0.00  0.00    -0.000 C 
ATOM     12  C   UNL     1      35.225 -20.511 -20.279  0.00  0.00    -0.022 C 
ATOM     13  C   UNL     1      36.510 -20.420 -19.743  0.00  0.00    -0.004 C 
ATOM     14  C   UNL     1      34.276 -21.338 -19.678  0.00  0.00    -0.004 C 
ATOM     15  C   UNL     1      34.866 -19.724 -21.494  0.00  0.00    +0.031 C 
ENDBRANCH   4   9
BRANCH   8  16
ATOM     16  O   UNL     1      39.227 -23.867 -15.029  0.00  0.00    -0.471 OA
ATOM     17  C   UNL     1      39.682 -25.217 -14.931  0.00  0.00    +0.252 C 
ENDBRANCH   8  16
ENDBRANCH   1   3
BRANCH   1  18
ATOM     18  C   UNL     1      33.140 -24.280 -14.533  0.00  0.00    -0.087 C 
ATOM     19  C   UNL     1      32.048 -23.997 -14.945  0.00  0.00    -0.076 C 
BRANCH  19  24
ATOM     20  N   UNL     1      29.380 -22.525 -17.063  0.00  0.00    -0.336 NA
ATOM     21  N   UNL     1      28.351 -23.782 -15.282  0.00  0.00    -0.317 NA
ATOM     22  N   UNL     1      29.681 -24.901 -13.678  0.00  0.00    -0.334 N 
ATOM     23  N   UNL     1      27.044 -22.668 -16.880  0.00  0.00    -0.283 N 
ATOM     24  C   UNL     1      30.750 -23.657 -15.440  0.00  0.00    +0.179 C 
ATOM     25  C   UNL     1      30.583 -22.871 -16.561  0.00  0.00    +0.120 C 
ATOM     26  C   UNL     1      29.587 -24.089 -14.835  0.00  0.00    +0.186 C 
ATOM     27  C   UNL     1      31.763 -22.338 -17.311  0.00  0.00    +0.064 C 
ATOM     28  C   UNL     1      28.321 -23.008 -16.383  0.00  0.00    +0.196 C 
ATOM     29  H   UNL     1      28.863 -25.219 -13.232  0.00  0.00    +0.144 HD
ATOM     30  H   UNL     1      30.564 -25.148 -13.319  0.00  0.00    +0.144 HD
ATOM     31  H   UNL     1      26.963 -22.103 -17.683  0.00  0.00    +0.156 HD
ATOM     32  H   UNL     1      26.236 -22.993 -16.423  0.00  0.00    +0.156 HD
ENDBRANCH  19  24
ENDBRANCH   1  18
TORSDOF 5
ENDMDL
MODEL 8
REMARK VINA RESULT:     -10.1      9.425     14.486
REMARK  Name = 44144378
REMARK  5 active torsions:
REMARK  status: ('A' for Active; 'I' for Inactive)
REMARK    1  A    between atoms: C_1  and  C_3
REMARK    2  A    between atoms: C_1  and  C_18
REMARK    3  A    between atoms: C_4  and  C_9
REMARK    4  A    between atoms: C_8  and  O_16
REMARK    5  A    between atoms: C_19  and  C_24
REMARK                            x       y       z     vdW  Elec       q    Type
REMARK                         _______ _______ _______ _____ _____    ______ ____
ROOT
ATOM      1  C   UNL     1      32.314 -23.277 -17.411  0.00  0.00    +0.086 C 
ATOM      2  C   UNL     1      30.892 -22.703 -17.259  0.00  0.00    +0.019 C 
ENDROOT
BRANCH   1   3
ATOM      3  C   UNL     1      32.969 -23.540 -16.098  0.00  0.00    -0.007 C 
ATOM      4  C   UNL     1      34.927 -24.152 -14.821  0.00  0.00    +0.003 C 
ATOM      5  C   UNL     1      34.314 -23.907 -16.050  0.00  0.00    -0.003 C 
ATOM      6  C   UNL     1      32.237 -23.418 -14.917  0.00  0.00    +0.034 C 
ATOM      7  C   UNL     1      34.194 -24.030 -13.640  0.00  0.00    +0.037 C 
ATOM      8  C   UNL     1      32.850 -23.663 -13.687  0.00  0.00    +0.138 C 
BRANCH   4   9
ATOM      9  C   UNL     1      36.323 -24.532 -14.771  0.00  0.00    +0.000 C 
ATOM     10  C   UNL     1      37.292 -23.706 -15.341  0.00  0.00    -0.000 C 
ATOM     11  C   UNL     1      36.698 -25.724 -14.152  0.00  0.00    -0.000 C 
ATOM     12  C   UNL     1      39.013 -25.265 -14.674  0.00  0.00    -0.022 C 
ATOM     13  C   UNL     1      38.636 -24.072 -15.293  0.00  0.00    -0.004 C 
ATOM     14  C   UNL     1      38.043 -26.091 -14.103  0.00  0.00    -0.004 C 
ATOM     15  C   UNL     1      40.451 -25.657 -14.622  0.00  0.00    +0.031 C 
ENDBRANCH   4   9
BRANCH   8  16
ATOM     16  O   UNL     1      32.135 -23.544 -12.536  0.00  0.00    -0.471 OA
ATOM     17  C   UNL     1      30.715 -23.645 -12.640  0.00  0.00    +0.252 C 
ENDBRANCH   8  16
ENDBRANCH   1   3
BRANCH   1  18
ATOM     18  C   UNL     1      33.124 -22.382 -18.277  0.00  0.00    -0.087 C 
ATOM     19  C   UNL     1      33.759 -21.653 -18.990  0.00  0.00    -0.076 C 
BRANCH  19  24
ATOM     20  N   UNL     1      36.632 -19.872 -20.522  0.00  0.00    -0.336 NA
ATOM     21  N   UNL     1      34.605 -19.164 -21.619  0.00  0.00    -0.317 NA
ATOM     22  N   UNL     1      32.512 -20.047 -20.963  0.00  0.00    -0.334 N 
ATOM     23  N   UNL     1      36.689 -18.296 -22.260  0.00  0.00    -0.283 N 
ATOM     24  C   UNL     1      34.510 -20.783 -19.840  0.00  0.00    +0.179 C 
ATOM     25  C   UNL     1      35.883 -20.679 -19.743  0.00  0.00    +0.120 C 
ATOM     26  C   UNL     1      33.919 -19.993 -20.805  0.00  0.00    +0.186 C 
ATOM     27  C   UNL     1      36.646 -21.481 -18.737  0.00  0.00    +0.064 C 
ATOM     28  C   UNL     1      35.938 -19.152 -21.426  0.00  0.00    +0.196 C 
ATOM     29  H   UNL     1      32.072 -19.491 -21.646  0.00  0.00    +0.144 HD
ATOM     30  H   UNL     1      31.974 -20.639 -20.389  0.00  0.00    +0.144 HD
ATOM     31  H   UNL     1      37.667 -18.247 -22.163  0.00  0.00    +0.156 HD
ATOM     32  H   UNL     1      36.233 -17.747 -22.939  0.00  0.00    +0.156 HD
ENDBRANCH  19  24
ENDBRANCH   1  18
TORSDOF 5
ENDMDL
MODEL 9
REMARK VINA RESULT:      -9.9      9.723     13.831
REMARK  Name = 44144378
REMARK  5 active torsions:
REMARK  status: ('A' for Active; 'I' for Inactive)
REMARK    1  A    between atoms: C_1  and  C_3
REMARK    2  A    between atoms: C_1  and  C_18
REMARK    3  A    between atoms: C_4  and  C_9
REMARK    4  A    between atoms: C_8  and  O_16
REMARK    5  A    between atoms: C_19  and  C_24
REMARK                            x       y       z     vdW  Elec       q    Type
REMARK                         _______ _______ _______ _____ _____    ______ ____
ROOT
ATOM      1  C   UNL     1      37.278 -22.363 -15.991  0.00  0.00    +0.086 C 
ATOM      2  C   UNL     1      38.484 -23.267 -16.314  0.00  0.00    +0.019 C 
ENDROOT
BRANCH   1   3
ATOM      3  C   UNL     1      36.250 -23.055 -15.161  0.00  0.00    -0.007 C 
ATOM      4  C   UNL     1      33.933 -23.521 -14.659  0.00  0.00    +0.003 C 
ATOM      5  C   UNL     1      34.895 -22.872 -15.434  0.00  0.00    -0.003 C 
ATOM      6  C   UNL     1      36.645 -23.886 -14.113  0.00  0.00    +0.034 C 
ATOM      7  C   UNL     1      34.328 -24.352 -13.610  0.00  0.00    +0.037 C 
ATOM      8  C   UNL     1      35.683 -24.535 -13.337  0.00  0.00    +0.138 C 
BRANCH   4   9
ATOM      9  C   UNL     1      32.526 -23.331 -14.942  0.00  0.00    +0.000 C 
ATOM     10  C   UNL     1      31.606 -23.273 -13.896  0.00  0.00    -0.000 C 
ATOM     11  C   UNL     1      32.092 -23.207 -16.262  0.00  0.00    -0.000 C 
ATOM     12  C   UNL     1      29.815 -22.966 -15.488  0.00  0.00    -0.022 C 
ATOM     13  C   UNL     1      30.250 -23.090 -14.168  0.00  0.00    -0.004 C 
ATOM     14  C   UNL     1      30.736 -23.024 -16.534  0.00  0.00    -0.004 C 
ATOM     15  C   UNL     1      28.366 -22.771 -15.780  0.00  0.00    +0.031 C 
ENDBRANCH   4   9
BRANCH   8  16
ATOM     16  O   UNL     1      36.069 -25.345 -12.314  0.00  0.00    -0.471 OA
ATOM     17  C   UNL     1      37.268 -26.097 -12.497  0.00  0.00    +0.252 C 
ENDBRANCH   8  16
ENDBRANCH   1   3
BRANCH   1  18
ATOM     18  C   UNL     1      36.713 -21.817 -17.251  0.00  0.00    -0.087 C 
ATOM     19  C   UNL     1      36.250 -21.355 -18.259  0.00  0.00    -0.076 C 
BRANCH  19  24
ATOM     20  N   UNL     1      33.854 -20.585 -20.987  0.00  0.00    -0.336 NA
ATOM     21  N   UNL     1      35.917 -19.411 -21.411  0.00  0.00    -0.317 NA
ATOM     22  N   UNL     1      37.741 -19.609 -19.919  0.00  0.00    -0.334 N 
ATOM     23  N   UNL     1      34.099 -19.223 -22.882  0.00  0.00    -0.283 N 
ATOM     24  C   UNL     1      35.700 -20.800 -19.456  0.00  0.00    +0.179 C 
ATOM     25  C   UNL     1      34.414 -21.085 -19.866  0.00  0.00    +0.120 C 
ATOM     26  C   UNL     1      36.412 -19.948 -20.277  0.00  0.00    +0.186 C 
ATOM     27  C   UNL     1      33.536 -21.995 -19.066  0.00  0.00    +0.064 C 
ATOM     28  C   UNL     1      34.651 -19.767 -21.702  0.00  0.00    +0.196 C 
ATOM     29  H   UNL     1      38.265 -19.003 -20.491  0.00  0.00    +0.144 HD
ATOM     30  H   UNL     1      38.140 -19.979 -19.099  0.00  0.00    +0.144 HD
ATOM     31  H   UNL     1      33.177 -19.450 -23.144  0.00  0.00    +0.156 HD
ATOM     32  H   UNL     1      34.636 -18.619 -23.444  0.00  0.00    +0.156 HD
ENDBRANCH  19  24
ENDBRANCH   1  18
TORSDOF 5
ENDMDL
