MODEL 1
REMARK VINA RESULT:      -8.8      0.000      0.000
REMARK  Name = 2763788
REMARK  2 active torsions:
REMARK  status: ('A' for Active; 'I' for Inactive)
REMARK    1  A    between atoms: C_3  and  C_8
REMARK    2  A    between atoms: C_4  and  C_12
REMARK                            x       y       z     vdW  Elec       q    Type
REMARK                         _______ _______ _______ _____ _____    ______ ____
ROOT
ATOM      1  S   UNL     1      34.124 -17.343 -21.400  0.00  0.00    -0.065 S 
ATOM      2  N   UNL     1      35.038 -19.029 -23.135  0.00  0.00    -0.237 NA
ATOM      3  C   UNL     1      34.392 -16.783 -22.999  0.00  0.00    +0.065 C 
ATOM      4  C   UNL     1      34.673 -18.899 -21.877  0.00  0.00    +0.111 C 
ATOM      5  C   UNL     1      34.876 -17.815 -23.775  0.00  0.00    +0.107 C 
ENDROOT
BRANCH   3   8
ATOM      6  N   UNL     1      33.565 -15.103 -24.570  0.00  0.00    -0.235 N 
ATOM      7  N   UNL     1      33.401 -13.779 -24.731  0.00  0.00    -0.180 NA
ATOM      8  C   UNL     1      34.129 -15.444 -23.377  0.00  0.00    +0.074 C 
ATOM      9  C   UNL     1      34.349 -14.266 -22.711  0.00  0.00    +0.039 C 
ATOM     10  C   UNL     1      33.881 -13.273 -23.592  0.00  0.00    +0.119 C 
ATOM     11  H   UNL     1      33.303 -15.765 -25.250  0.00  0.00    +0.174 HD
ENDBRANCH   3   8
BRANCH   4  12
ATOM     12  C   UNL     1      34.702 -19.953 -20.894  0.00  0.00    +0.024 C 
ATOM     13  C   UNL     1      33.508 -20.473 -20.395  0.00  0.00    +0.002 C 
ATOM     14  C   UNL     1      35.923 -20.453 -20.442  0.00  0.00    +0.002 C 
ATOM     15  C   UNL     1      33.535 -21.492 -19.443  0.00  0.00    +0.000 C 
ATOM     16  C   UNL     1      35.950 -21.472 -19.490  0.00  0.00    +0.000 C 
ATOM     17  C   UNL     1      34.755 -21.991 -18.991  0.00  0.00    +0.000 C 
ENDBRANCH   4  12
TORSDOF 2
ENDMDL
MODEL 2
REMARK VINA RESULT:      -8.6      1.129      1.263
REMARK  Name = 2763788
REMARK  2 active torsions:
REMARK  status: ('A' for Active; 'I' for Inactive)
REMARK    1  A    between atoms: C_3  and  C_8
REMARK    2  A    between atoms: C_4  and  C_12
REMARK                            x       y       z     vdW  Elec       q    Type
REMARK                         _______ _______ _______ _____ _____    ______ ____
ROOT
ATOM      1  S   UNL     1      33.614 -16.669 -21.242  0.00  0.00    -0.065 S 
ATOM      2  N   UNL     1      35.217 -17.756 -22.955  0.00  0.00    -0.237 NA
ATOM      3  C   UNL     1      34.081 -15.741 -22.607  0.00  0.00    +0.065 C 
ATOM      4  C   UNL     1      34.578 -17.966 -21.824  0.00  0.00    +0.111 C 
ATOM      5  C   UNL     1      34.930 -16.481 -23.401  0.00  0.00    +0.107 C 
ENDROOT
BRANCH   3   8
ATOM      6  N   UNL     1      34.264 -13.509 -23.587  0.00  0.00    -0.235 N 
ATOM      7  N   UNL     1      33.653 -12.313 -23.644  0.00  0.00    -0.180 NA
ATOM      8  C   UNL     1      33.615 -14.418 -22.807  0.00  0.00    +0.074 C 
ATOM      9  C   UNL     1      32.504 -13.778 -22.321  0.00  0.00    +0.039 C 
ATOM     10  C   UNL     1      32.579 -12.483 -22.869  0.00  0.00    +0.119 C 
ATOM     11  H   UNL     1      35.102 -13.709 -24.063  0.00  0.00    +0.174 HD
ENDBRANCH   3   8
BRANCH   4  12
ATOM     12  C   UNL     1      34.631 -19.186 -21.057  0.00  0.00    +0.024 C 
ATOM     13  C   UNL     1      33.450 -19.803 -20.646  0.00  0.00    +0.002 C 
ATOM     14  C   UNL     1      35.863 -19.748 -20.725  0.00  0.00    +0.002 C 
ATOM     15  C   UNL     1      33.501 -20.982 -19.903  0.00  0.00    +0.000 C 
ATOM     16  C   UNL     1      35.914 -20.928 -19.982  0.00  0.00    +0.000 C 
ATOM     17  C   UNL     1      34.732 -21.544 -19.571  0.00  0.00    +0.000 C 
ENDBRANCH   4  12
TORSDOF 2
ENDMDL
MODEL 3
REMARK VINA RESULT:      -8.6      1.522      2.100
REMARK  Name = 2763788
REMARK  2 active torsions:
REMARK  status: ('A' for Active; 'I' for Inactive)
REMARK    1  A    between atoms: C_3  and  C_8
REMARK    2  A    between atoms: C_4  and  C_12
REMARK                            x       y       z     vdW  Elec       q    Type
REMARK                         _______ _______ _______ _____ _____    ______ ____
ROOT
ATOM      1  S   UNL     1      34.407 -18.021 -23.200  0.00  0.00    -0.065 S 
ATOM      2  N   UNL     1      34.927 -16.771 -20.997  0.00  0.00    -0.237 NA
ATOM      3  C   UNL     1      34.266 -16.311 -23.194  0.00  0.00    +0.065 C 
ATOM      4  C   UNL     1      34.870 -17.965 -21.547  0.00  0.00    +0.111 C 
ATOM      5  C   UNL     1      34.581 -15.826 -21.943  0.00  0.00    +0.107 C 
ENDROOT
BRANCH   3   8
ATOM      6  N   UNL     1      33.901 -16.118 -25.604  0.00  0.00    -0.235 N 
ATOM      7  N   UNL     1      33.494 -15.263 -26.558  0.00  0.00    -0.180 NA
ATOM      8  C   UNL     1      33.879 -15.588 -24.348  0.00  0.00    +0.074 C 
ATOM      9  C   UNL     1      33.426 -14.301 -24.487  0.00  0.00    +0.039 C 
ATOM     10  C   UNL     1      33.205 -14.155 -25.870  0.00  0.00    +0.119 C 
ATOM     11  H   UNL     1      34.190 -17.039 -25.794  0.00  0.00    +0.174 HD
ENDBRANCH   3   8
BRANCH   4  12
ATOM     12  C   UNL     1      35.164 -19.203 -20.870  0.00  0.00    +0.024 C 
ATOM     13  C   UNL     1      36.488 -19.554 -20.603  0.00  0.00    +0.002 C 
ATOM     14  C   UNL     1      34.127 -20.050 -20.481  0.00  0.00    +0.002 C 
ATOM     15  C   UNL     1      36.773 -20.753 -19.949  0.00  0.00    +0.000 C 
ATOM     16  C   UNL     1      34.412 -21.249 -19.826  0.00  0.00    +0.000 C 
ATOM     17  C   UNL     1      35.736 -21.599 -19.561  0.00  0.00    +0.000 C 
ENDBRANCH   4  12
TORSDOF 2
ENDMDL
MODEL 4
REMARK VINA RESULT:      -8.5      2.855      6.879
REMARK  Name = 2763788
REMARK  2 active torsions:
REMARK  status: ('A' for Active; 'I' for Inactive)
REMARK    1  A    between atoms: C_3  and  C_8
REMARK    2  A    between atoms: C_4  and  C_12
REMARK                            x       y       z     vdW  Elec       q    Type
REMARK                         _______ _______ _______ _____ _____    ______ ____
ROOT
ATOM      1  S   UNL     1      33.615 -19.962 -20.993  0.00  0.00    -0.065 S 
ATOM      2  N   UNL     1      36.185 -19.739 -21.174  0.00  0.00    -0.237 NA
ATOM      3  C   UNL     1      34.579 -20.894 -19.923  0.00  0.00    +0.065 C 
ATOM      4  C   UNL     1      35.048 -19.314 -21.682  0.00  0.00    +0.111 C 
ATOM      5  C   UNL     1      35.913 -20.645 -20.167  0.00  0.00    +0.107 C 
ENDROOT
BRANCH   3   8
ATOM      6  N   UNL     1      32.661 -21.938 -18.823  0.00  0.00    -0.235 N 
ATOM      7  N   UNL     1      32.328 -22.808 -17.855  0.00  0.00    -0.180 NA
ATOM      8  C   UNL     1      34.006 -21.764 -18.964  0.00  0.00    +0.074 C 
ATOM      9  C   UNL     1      34.593 -22.575 -18.028  0.00  0.00    +0.039 C 
ATOM     10  C   UNL     1      33.513 -23.194 -17.372  0.00  0.00    +0.119 C 
ATOM     11  H   UNL     1      31.997 -21.469 -19.377  0.00  0.00    +0.174 HD
ENDBRANCH   3   8
BRANCH   4  12
ATOM     12  C   UNL     1      34.927 -18.359 -22.755  0.00  0.00    +0.024 C 
ATOM     13  C   UNL     1      34.667 -18.799 -24.053  0.00  0.00    +0.002 C 
ATOM     14  C   UNL     1      35.071 -16.996 -22.497  0.00  0.00    +0.002 C 
ATOM     15  C   UNL     1      34.551 -17.875 -25.093  0.00  0.00    +0.000 C 
ATOM     16  C   UNL     1      34.956 -16.073 -23.537  0.00  0.00    +0.000 C 
ATOM     17  C   UNL     1      34.696 -16.514 -24.834  0.00  0.00    +0.000 C 
ENDBRANCH   4  12
TORSDOF 2
ENDMDL
MODEL 5
REMARK VINA RESULT:      -8.2      9.869     11.517
REMARK  Name = 2763788
REMARK  2 active torsions:
REMARK  status: ('A' for Active; 'I' for Inactive)
REMARK    1  A    between atoms: C_3  and  C_8
REMARK    2  A    between atoms: C_4  and  C_12
REMARK                            x       y       z     vdW  Elec       q    Type
REMARK                         _______ _______ _______ _____ _____    ______ ____
ROOT
ATOM      1  S   UNL     1      35.184 -24.604 -14.972  0.00  0.00    -0.065 S 
ATOM      2  N   UNL     1      34.345 -24.258 -12.551  0.00  0.00    -0.237 NA
ATOM      3  C   UNL     1      36.341 -24.653 -13.707  0.00  0.00    +0.065 C 
ATOM      4  C   UNL     1      33.956 -24.318 -13.806  0.00  0.00    +0.111 C 
ATOM      5  C   UNL     1      35.712 -24.450 -12.497  0.00  0.00    +0.107 C 
ENDROOT
BRANCH   3   8
ATOM      6  N   UNL     1      38.354 -24.422 -15.076  0.00  0.00    -0.235 N 
ATOM      7  N   UNL     1      39.659 -24.739 -15.119  0.00  0.00    -0.180 NA
ATOM      8  C   UNL     1      37.717 -24.874 -13.959  0.00  0.00    +0.074 C 
ATOM      9  C   UNL     1      38.668 -25.530 -13.220  0.00  0.00    +0.039 C 
ATOM     10  C   UNL     1      39.845 -25.416 -13.983  0.00  0.00    +0.119 C 
ATOM     11  H   UNL     1      37.900 -23.912 -15.785  0.00  0.00    +0.174 HD
ENDBRANCH   3   8
BRANCH   4  12
ATOM     12  C   UNL     1      32.596 -24.163 -14.259  0.00  0.00    +0.024 C 
ATOM     13  C   UNL     1      31.595 -24.995 -13.757  0.00  0.00    +0.002 C 
ATOM     14  C   UNL     1      32.280 -23.183 -15.200  0.00  0.00    +0.002 C 
ATOM     15  C   UNL     1      30.279 -24.847 -14.196  0.00  0.00    +0.000 C 
ATOM     16  C   UNL     1      30.964 -23.035 -15.638  0.00  0.00    +0.000 C 
ATOM     17  C   UNL     1      29.965 -23.868 -15.136  0.00  0.00    +0.000 C 
ENDBRANCH   4  12
TORSDOF 2
ENDMDL
MODEL 6
REMARK VINA RESULT:      -8.2      1.747      6.763
REMARK  Name = 2763788
REMARK  2 active torsions:
REMARK  status: ('A' for Active; 'I' for Inactive)
REMARK    1  A    between atoms: C_3  and  C_8
REMARK    2  A    between atoms: C_4  and  C_12
REMARK                            x       y       z     vdW  Elec       q    Type
REMARK                         _______ _______ _______ _____ _____    ______ ____
ROOT
ATOM      1  S   UNL     1      34.603 -17.109 -21.809  0.00  0.00    -0.065 S 
ATOM      2  N   UNL     1      34.790 -17.908 -24.261  0.00  0.00    -0.237 NA
ATOM      3  C   UNL     1      35.077 -18.733 -22.090  0.00  0.00    +0.065 C 
ATOM      4  C   UNL     1      34.498 -16.871 -23.506  0.00  0.00    +0.111 C 
ATOM      5  C   UNL     1      35.121 -18.974 -23.447  0.00  0.00    +0.107 C 
ENDROOT
BRANCH   3   8
ATOM      6  N   UNL     1      36.533 -19.609 -20.333  0.00  0.00    -0.235 N 
ATOM      7  N   UNL     1      36.599 -20.538 -19.364  0.00  0.00    -0.180 NA
ATOM      8  C   UNL     1      35.361 -19.625 -21.027  0.00  0.00    +0.074 C 
ATOM      9  C   UNL     1      34.607 -20.630 -20.477  0.00  0.00    +0.039 C 
ATOM     10  C   UNL     1      35.420 -21.159 -19.457  0.00  0.00    +0.119 C 
ATOM     11  H   UNL     1      37.263 -18.977 -20.523  0.00  0.00    +0.174 HD
ENDBRANCH   3   8
BRANCH   4  12
ATOM     12  C   UNL     1      34.104 -15.574 -23.999  0.00  0.00    +0.024 C 
ATOM     13  C   UNL     1      34.258 -14.446 -23.193  0.00  0.00    +0.002 C 
ATOM     14  C   UNL     1      33.570 -15.446 -25.281  0.00  0.00    +0.002 C 
ATOM     15  C   UNL     1      33.877 -13.191 -23.668  0.00  0.00    +0.000 C 
ATOM     16  C   UNL     1      33.188 -14.191 -25.756  0.00  0.00    +0.000 C 
ATOM     17  C   UNL     1      33.342 -13.065 -24.949  0.00  0.00    +0.000 C 
ENDBRANCH   4  12
TORSDOF 2
ENDMDL
MODEL 7
REMARK VINA RESULT:      -8.2      8.594     10.808
REMARK  Name = 2763788
REMARK  2 active torsions:
REMARK  status: ('A' for Active; 'I' for Inactive)
REMARK    1  A    between atoms: C_3  and  C_8
REMARK    2  A    between atoms: C_4  and  C_12
REMARK                            x       y       z     vdW  Elec       q    Type
REMARK                         _______ _______ _______ _____ _____    ______ ____
ROOT
ATOM      1  S   UNL     1      35.748 -24.762 -14.603  0.00  0.00    -0.065 S 
ATOM      2  N   UNL     1      35.781 -22.608 -16.033  0.00  0.00    -0.237 NA
ATOM      3  C   UNL     1      37.272 -24.154 -15.103  0.00  0.00    +0.065 C 
ATOM      4  C   UNL     1      34.986 -23.457 -15.419  0.00  0.00    +0.111 C 
ATOM      5  C   UNL     1      37.090 -23.009 -15.850  0.00  0.00    +0.107 C 
ENDROOT
BRANCH   3   8
ATOM      6  N   UNL     1      39.573 -24.832 -15.576  0.00  0.00    -0.235 N 
ATOM      7  N   UNL     1      40.621 -25.491 -15.054  0.00  0.00    -0.180 NA
ATOM      8  C   UNL     1      38.485 -24.796 -14.755  0.00  0.00    +0.074 C 
ATOM      9  C   UNL     1      38.844 -25.476 -13.620  0.00  0.00    +0.039 C 
ATOM     10  C   UNL     1      40.170 -25.883 -13.859  0.00  0.00    +0.119 C 
ATOM     11  H   UNL     1      39.588 -24.414 -16.467  0.00  0.00    +0.174 HD
ENDBRANCH   3   8
BRANCH   4  12
ATOM     12  C   UNL     1      33.547 -23.369 -15.387  0.00  0.00    +0.024 C 
ATOM     13  C   UNL     1      32.871 -23.452 -14.171  0.00  0.00    +0.002 C 
ATOM     14  C   UNL     1      32.831 -23.200 -16.572  0.00  0.00    +0.002 C 
ATOM     15  C   UNL     1      31.478 -23.367 -14.139  0.00  0.00    +0.000 C 
ATOM     16  C   UNL     1      31.439 -23.115 -16.541  0.00  0.00    +0.000 C 
ATOM     17  C   UNL     1      30.764 -23.199 -15.324  0.00  0.00    +0.000 C 
ENDBRANCH   4  12
TORSDOF 2
ENDMDL
MODEL 8
REMARK VINA RESULT:      -8.1      6.300     10.113
REMARK  Name = 2763788
REMARK  2 active torsions:
REMARK  status: ('A' for Active; 'I' for Inactive)
REMARK    1  A    between atoms: C_3  and  C_8
REMARK    2  A    between atoms: C_4  and  C_12
REMARK                            x       y       z     vdW  Elec       q    Type
REMARK                         _______ _______ _______ _____ _____    ______ ____
ROOT
ATOM      1  S   UNL     1      36.626 -22.818 -16.058  0.00  0.00    -0.065 S 
ATOM      2  N   UNL     1      34.255 -23.627 -16.695  0.00  0.00    -0.237 NA
ATOM      3  C   UNL     1      35.858 -23.947 -15.020  0.00  0.00    +0.065 C 
ATOM      4  C   UNL     1      35.241 -22.843 -17.072  0.00  0.00    +0.111 C 
ATOM      5  C   UNL     1      34.610 -24.259 -15.519  0.00  0.00    +0.107 C 
ENDROOT
BRANCH   3   8
ATOM      6  N   UNL     1      35.833 -25.170 -12.903  0.00  0.00    -0.235 N 
ATOM      7  N   UNL     1      36.610 -25.531 -11.868  0.00  0.00    -0.180 NA
ATOM      8  C   UNL     1      36.484 -24.432 -13.846  0.00  0.00    +0.074 C 
ATOM      9  C   UNL     1      37.774 -24.301 -13.401  0.00  0.00    +0.039 C 
ATOM     10  C   UNL     1      37.795 -24.997 -12.177  0.00  0.00    +0.119 C 
ATOM     11  H   UNL     1      34.882 -25.415 -12.973  0.00  0.00    +0.174 HD
ENDBRANCH   3   8
BRANCH   4  12
ATOM     12  C   UNL     1      35.237 -22.020 -18.256  0.00  0.00    +0.024 C 
ATOM     13  C   UNL     1      34.037 -21.751 -18.914  0.00  0.00    +0.002 C 
ATOM     14  C   UNL     1      36.432 -21.492 -18.744  0.00  0.00    +0.002 C 
ATOM     15  C   UNL     1      34.032 -20.956 -20.060  0.00  0.00    +0.000 C 
ATOM     16  C   UNL     1      36.428 -20.697 -19.890  0.00  0.00    +0.000 C 
ATOM     17  C   UNL     1      35.227 -20.430 -20.548  0.00  0.00    +0.000 C 
ENDBRANCH   4  12
TORSDOF 2
ENDMDL
MODEL 9
REMARK VINA RESULT:      -8.1      2.085      6.989
REMARK  Name = 2763788
REMARK  2 active torsions:
REMARK  status: ('A' for Active; 'I' for Inactive)
REMARK    1  A    between atoms: C_3  and  C_8
REMARK    2  A    between atoms: C_4  and  C_12
REMARK                            x       y       z     vdW  Elec       q    Type
REMARK                         _______ _______ _______ _____ _____    ______ ____
ROOT
ATOM      1  S   UNL     1      34.554 -17.287 -23.256  0.00  0.00    -0.065 S 
ATOM      2  N   UNL     1      34.335 -15.189 -21.760  0.00  0.00    -0.237 NA
ATOM      3  C   UNL     1      34.848 -17.465 -21.575  0.00  0.00    +0.065 C 
ATOM      4  C   UNL     1      34.238 -15.619 -23.000  0.00  0.00    +0.111 C 
ATOM      5  C   UNL     1      34.684 -16.250 -20.946  0.00  0.00    +0.107 C 
ENDROOT
BRANCH   3   8
ATOM      6  N   UNL     1      36.449 -18.990 -20.531  0.00  0.00    -0.235 N 
ATOM      7  N   UNL     1      36.572 -20.232 -20.031  0.00  0.00    -0.180 NA
ATOM      8  C   UNL     1      35.201 -18.713 -21.005  0.00  0.00    +0.074 C 
ATOM      9  C   UNL     1      34.457 -19.846 -20.802  0.00  0.00    +0.039 C 
ATOM     10  C   UNL     1      35.352 -20.750 -20.199  0.00  0.00    +0.119 C 
ATOM     11  H   UNL     1      37.189 -18.343 -20.554  0.00  0.00    +0.174 HD
ENDBRANCH   3   8
BRANCH   4  12
ATOM     12  C   UNL     1      33.892 -14.799 -24.134  0.00  0.00    +0.024 C 
ATOM     13  C   UNL     1      33.533 -15.397 -25.342  0.00  0.00    +0.002 C 
ATOM     14  C   UNL     1      33.915 -13.409 -24.025  0.00  0.00    +0.002 C 
ATOM     15  C   UNL     1      33.199 -14.604 -26.441  0.00  0.00    +0.000 C 
ATOM     16  C   UNL     1      33.581 -12.617 -25.123  0.00  0.00    +0.000 C 
ATOM     17  C   UNL     1      33.224 -13.216 -26.331  0.00  0.00    +0.000 C 
ENDBRANCH   4  12
TORSDOF 2
ENDMDL
