MODEL 1
REMARK VINA RESULT:      -8.8      0.000      0.000
REMARK  Name = 204105
REMARK  6 active torsions:
REMARK  status: ('A' for Active; 'I' for Inactive)
REMARK    1  A    between atoms: C_3  and  C_27
REMARK    2  A    between atoms: C_8  and  C_13
REMARK    3  A    between atoms: C_10  and  O_23
REMARK    4  A    between atoms: C_11  and  O_25
REMARK    5  A    between atoms: C_16  and  O_19
REMARK    6  A    between atoms: C_18  and  O_21
REMARK                            x       y       z     vdW  Elec       q    Type
REMARK                         _______ _______ _______ _____ _____    ______ ____
ROOT
ATOM      1  N   UNL     1      36.841 -23.217 -13.616  0.00  0.00    -0.156 NA
ATOM      2  N   UNL     1      36.722 -22.863 -14.951  0.00  0.00    -0.149 NA
ATOM      3  C   UNL     1      35.541 -25.332 -13.993  0.00  0.00    +0.060 C 
ATOM      4  C   UNL     1      34.266 -24.613 -14.362  0.00  0.00    -0.012 C 
ATOM      5  C   UNL     1      34.293 -23.385 -15.040  0.00  0.00    +0.019 C 
ATOM      6  C   UNL     1      36.403 -24.365 -13.200  0.00  0.00    +0.062 C 
ATOM      7  C   UNL     1      33.026 -25.132 -13.958  0.00  0.00    +0.036 C 
ATOM      8  C   UNL     1      35.579 -22.867 -15.569  0.00  0.00    +0.103 C 
ATOM      9  C   UNL     1      33.106 -22.681 -15.285  0.00  0.00    +0.041 C 
ATOM     10  C   UNL     1      31.844 -24.436 -14.213  0.00  0.00    +0.172 C 
ATOM     11  C   UNL     1      31.885 -23.208 -14.869  0.00  0.00    +0.172 C 
ATOM     12  C   UNL     1      36.694 -24.732 -11.763  0.00  0.00    +0.049 C 
ENDROOT
BRANCH   8  13
ATOM     13  C   UNL     1      35.598 -22.357 -16.974  0.00  0.00    +0.023 C 
ATOM     14  C   UNL     1      34.448 -22.443 -17.748  0.00  0.00    +0.042 C 
ATOM     15  C   UNL     1      36.764 -21.807 -17.488  0.00  0.00    +0.005 C 
ATOM     16  C   UNL     1      34.465 -21.969 -19.060  0.00  0.00    +0.172 C 
ATOM     17  C   UNL     1      36.782 -21.333 -18.800  0.00  0.00    +0.040 C 
ATOM     18  C   UNL     1      35.632 -21.415 -19.585  0.00  0.00    +0.172 C 
BRANCH  16  19
ATOM     19  O   UNL     1      33.337 -22.054 -19.818  0.00  0.00    -0.468 OA
ATOM     20  C   UNL     1      32.631 -20.839 -20.068  0.00  0.00    +0.253 C 
ENDBRANCH  16  19
BRANCH  18  21
ATOM     21  O   UNL     1      35.661 -20.948 -20.865  0.00  0.00    -0.468 OA
ATOM     22  C   UNL     1      35.871 -19.549 -21.040  0.00  0.00    +0.253 C 
ENDBRANCH  18  21
ENDBRANCH   8  13
BRANCH  10  23
ATOM     23  O   UNL     1      30.657 -24.965 -13.805  0.00  0.00    -0.468 OA
ATOM     24  C   UNL     1      29.894 -25.673 -14.781  0.00  0.00    +0.253 C 
ENDBRANCH  10  23
BRANCH  11  25
ATOM     25  O   UNL     1      30.738 -22.518 -15.117  0.00  0.00    -0.468 OA
ATOM     26  C   UNL     1      30.199 -22.608 -16.434  0.00  0.00    +0.253 C 
ENDBRANCH  11  25
BRANCH   3  27
ATOM     27  C   UNL     1      36.272 -26.000 -15.153  0.00  0.00    +0.010 C 
ATOM     28  C   UNL     1      37.565 -26.649 -14.695  0.00  0.00    +0.001 C 
ENDBRANCH   3  27
TORSDOF 6
ENDMDL
MODEL 2
REMARK VINA RESULT:      -8.4      2.648      6.406
REMARK  Name = 204105
REMARK  6 active torsions:
REMARK  status: ('A' for Active; 'I' for Inactive)
REMARK    1  A    between atoms: C_3  and  C_27
REMARK    2  A    between atoms: C_8  and  C_13
REMARK    3  A    between atoms: C_10  and  O_23
REMARK    4  A    between atoms: C_11  and  O_25
REMARK    5  A    between atoms: C_16  and  O_19
REMARK    6  A    between atoms: C_18  and  O_21
REMARK                            x       y       z     vdW  Elec       q    Type
REMARK                         _______ _______ _______ _____ _____    ______ ____
ROOT
ATOM      1  N   UNL     1      31.839 -22.747 -13.663  0.00  0.00    -0.156 NA
ATOM      2  N   UNL     1      32.967 -23.549 -13.587  0.00  0.00    -0.149 NA
ATOM      3  C   UNL     1      31.144 -23.817 -15.825  0.00  0.00    +0.060 C 
ATOM      4  C   UNL     1      32.348 -23.318 -16.587  0.00  0.00    -0.012 C 
ATOM      5  C   UNL     1      33.595 -23.171 -15.962  0.00  0.00    +0.019 C 
ATOM      6  C   UNL     1      30.968 -22.927 -14.606  0.00  0.00    +0.062 C 
ATOM      7  C   UNL     1      32.214 -22.917 -17.925  0.00  0.00    +0.036 C 
ATOM      8  C   UNL     1      33.790 -23.684 -14.583  0.00  0.00    +0.103 C 
ATOM      9  C   UNL     1      34.678 -22.611 -16.655  0.00  0.00    +0.041 C 
ATOM     10  C   UNL     1      33.295 -22.371 -18.618  0.00  0.00    +0.172 C 
ATOM     11  C   UNL     1      34.523 -22.211 -17.981  0.00  0.00    +0.172 C 
ATOM     12  C   UNL     1      29.702 -22.105 -14.540  0.00  0.00    +0.049 C 
ENDROOT
BRANCH   8  13
ATOM     13  C   UNL     1      35.014 -24.497 -14.310  0.00  0.00    +0.023 C 
ATOM     14  C   UNL     1      35.732 -24.282 -13.141  0.00  0.00    +0.042 C 
ATOM     15  C   UNL     1      35.419 -25.454 -15.230  0.00  0.00    +0.005 C 
ATOM     16  C   UNL     1      36.876 -25.040 -12.888  0.00  0.00    +0.172 C 
ATOM     17  C   UNL     1      36.563 -26.212 -14.977  0.00  0.00    +0.040 C 
ATOM     18  C   UNL     1      37.291 -26.004 -13.805  0.00  0.00    +0.172 C 
BRANCH  16  19
ATOM     19  O   UNL     1      37.579 -24.828 -11.740  0.00  0.00    -0.468 OA
ATOM     20  C   UNL     1      38.354 -23.633 -11.666  0.00  0.00    +0.253 C 
ENDBRANCH  16  19
BRANCH  18  21
ATOM     21  O   UNL     1      38.406 -26.751 -13.569  0.00  0.00    -0.468 OA
ATOM     22  C   UNL     1      39.642 -26.247 -14.073  0.00  0.00    +0.253 C 
ENDBRANCH  18  21
ENDBRANCH   8  13
BRANCH  10  23
ATOM     23  O   UNL     1      33.132 -21.988 -19.915  0.00  0.00    -0.468 OA
ATOM     24  C   UNL     1      32.977 -20.591 -20.164  0.00  0.00    +0.253 C 
ENDBRANCH  10  23
BRANCH  11  25
ATOM     25  O   UNL     1      35.583 -21.673 -18.646  0.00  0.00    -0.468 OA
ATOM     26  C   UNL     1      36.828 -21.627 -17.953  0.00  0.00    +0.253 C 
ENDBRANCH  11  25
BRANCH   3  27
ATOM     27  C   UNL     1      31.147 -25.308 -15.505  0.00  0.00    +0.010 C 
ATOM     28  C   UNL     1      29.838 -25.743 -14.873  0.00  0.00    +0.001 C 
ENDBRANCH   3  27
TORSDOF 6
ENDMDL
MODEL 3
REMARK VINA RESULT:      -7.8      1.577      5.933
REMARK  Name = 204105
REMARK  6 active torsions:
REMARK  status: ('A' for Active; 'I' for Inactive)
REMARK    1  A    between atoms: C_3  and  C_27
REMARK    2  A    between atoms: C_8  and  C_13
REMARK    3  A    between atoms: C_10  and  O_23
REMARK    4  A    between atoms: C_11  and  O_25
REMARK    5  A    between atoms: C_16  and  O_19
REMARK    6  A    between atoms: C_18  and  O_21
REMARK                            x       y       z     vdW  Elec       q    Type
REMARK                         _______ _______ _______ _____ _____    ______ ____
ROOT
ATOM      1  N   UNL     1      36.189 -25.453 -15.303  0.00  0.00    -0.156 NA
ATOM      2  N   UNL     1      34.902 -24.967 -15.132  0.00  0.00    -0.149 NA
ATOM      3  C   UNL     1      37.164 -23.157 -15.012  0.00  0.00    +0.060 C 
ATOM      4  C   UNL     1      36.510 -22.601 -16.254  0.00  0.00    -0.012 C 
ATOM      5  C   UNL     1      35.247 -23.047 -16.673  0.00  0.00    +0.019 C 
ATOM      6  C   UNL     1      37.211 -24.670 -15.153  0.00  0.00    +0.062 C 
ATOM      7  C   UNL     1      37.199 -21.679 -17.056  0.00  0.00    +0.036 C 
ATOM      8  C   UNL     1      34.455 -23.941 -15.792  0.00  0.00    +0.103 C 
ATOM      9  C   UNL     1      34.698 -22.597 -17.882  0.00  0.00    +0.041 C 
ATOM     10  C   UNL     1      36.646 -21.222 -18.253  0.00  0.00    +0.172 C 
ATOM     11  C   UNL     1      35.401 -21.686 -18.669  0.00  0.00    +0.172 C 
ATOM     12  C   UNL     1      38.580 -25.305 -15.221  0.00  0.00    +0.049 C 
ENDROOT
BRANCH   8  13
ATOM     13  C   UNL     1      33.015 -23.605 -15.576  0.00  0.00    +0.023 C 
ATOM     14  C   UNL     1      32.472 -23.706 -14.302  0.00  0.00    +0.042 C 
ATOM     15  C   UNL     1      32.238 -23.198 -16.652  0.00  0.00    +0.005 C 
ATOM     16  C   UNL     1      31.128 -23.393 -14.101  0.00  0.00    +0.172 C 
ATOM     17  C   UNL     1      30.893 -22.886 -16.452  0.00  0.00    +0.040 C 
ATOM     18  C   UNL     1      30.339 -22.984 -15.175  0.00  0.00    +0.172 C 
BRANCH  16  19
ATOM     19  O   UNL     1      30.596 -23.492 -12.850  0.00  0.00    -0.468 OA
ATOM     20  C   UNL     1      30.176 -24.787 -12.425  0.00  0.00    +0.253 C 
ENDBRANCH  16  19
BRANCH  18  21
ATOM     21  O   UNL     1      29.024 -22.675 -14.991  0.00  0.00    -0.468 OA
ATOM     22  C   UNL     1      28.141 -22.927 -16.082  0.00  0.00    +0.253 C 
ENDBRANCH  18  21
ENDBRANCH   8  13
BRANCH  10  23
ATOM     23  O   UNL     1      37.341 -20.328 -19.011  0.00  0.00    -0.468 OA
ATOM     24  C   UNL     1      36.817 -20.030 -20.304  0.00  0.00    +0.253 C 
ENDBRANCH  10  23
BRANCH  11  25
ATOM     25  O   UNL     1      34.856 -21.251 -19.838  0.00  0.00    -0.468 OA
ATOM     26  C   UNL     1      33.441 -21.073 -19.867  0.00  0.00    +0.253 C 
ENDBRANCH  11  25
BRANCH   3  27
ATOM     27  C   UNL     1      36.569 -22.680 -13.692  0.00  0.00    +0.010 C 
ATOM     28  C   UNL     1      37.301 -23.277 -12.504  0.00  0.00    +0.001 C 
ENDBRANCH   3  27
TORSDOF 6
ENDMDL
MODEL 4
REMARK VINA RESULT:      -7.7      2.509      4.801
REMARK  Name = 204105
REMARK  6 active torsions:
REMARK  status: ('A' for Active; 'I' for Inactive)
REMARK    1  A    between atoms: C_3  and  C_27
REMARK    2  A    between atoms: C_8  and  C_13
REMARK    3  A    between atoms: C_10  and  O_23
REMARK    4  A    between atoms: C_11  and  O_25
REMARK    5  A    between atoms: C_16  and  O_19
REMARK    6  A    between atoms: C_18  and  O_21
REMARK                            x       y       z     vdW  Elec       q    Type
REMARK                         _______ _______ _______ _____ _____    ______ ____
ROOT
ATOM      1  N   UNL     1      30.956 -24.782 -16.229  0.00  0.00    -0.156 NA
ATOM      2  N   UNL     1      31.770 -23.929 -16.957  0.00  0.00    -0.149 NA
ATOM      3  C   UNL     1      31.486 -23.571 -14.094  0.00  0.00    +0.060 C 
ATOM      4  C   UNL     1      32.950 -23.936 -14.121  0.00  0.00    -0.012 C 
ATOM      5  C   UNL     1      33.646 -24.067 -15.332  0.00  0.00    +0.019 C 
ATOM      6  C   UNL     1      30.745 -24.569 -14.967  0.00  0.00    +0.062 C 
ATOM      7  C   UNL     1      33.622 -24.228 -12.923  0.00  0.00    +0.036 C 
ATOM      8  C   UNL     1      32.991 -23.664 -16.602  0.00  0.00    +0.103 C 
ATOM      9  C   UNL     1      34.977 -24.506 -15.345  0.00  0.00    +0.041 C 
ATOM     10  C   UNL     1      34.951 -24.653 -12.936  0.00  0.00    +0.172 C 
ATOM     11  C   UNL     1      35.625 -24.799 -14.146  0.00  0.00    +0.172 C 
ATOM     12  C   UNL     1      29.740 -25.463 -14.278  0.00  0.00    +0.049 C 
ENDROOT
BRANCH   8  13
ATOM     13  C   UNL     1      33.775 -22.812 -17.547  0.00  0.00    +0.023 C 
ATOM     14  C   UNL     1      35.098 -22.507 -17.257  0.00  0.00    +0.042 C 
ATOM     15  C   UNL     1      33.170 -22.335 -18.701  0.00  0.00    +0.005 C 
ATOM     16  C   UNL     1      35.829 -21.711 -18.139  0.00  0.00    +0.172 C 
ATOM     17  C   UNL     1      33.900 -21.538 -19.583  0.00  0.00    +0.040 C 
ATOM     18  C   UNL     1      35.230 -21.226 -19.301  0.00  0.00    +0.172 C 
BRANCH  16  19
ATOM     19  O   UNL     1      37.128 -21.413 -17.854  0.00  0.00    -0.468 OA
ATOM     20  C   UNL     1      37.607 -21.774 -16.560  0.00  0.00    +0.253 C 
ENDBRANCH  16  19
BRANCH  18  21
ATOM     21  O   UNL     1      35.934 -20.447 -20.170  0.00  0.00    -0.468 OA
ATOM     22  C   UNL     1      35.189 -19.528 -20.965  0.00  0.00    +0.253 C 
ENDBRANCH  18  21
ENDBRANCH   8  13
BRANCH  10  23
ATOM     23  O   UNL     1      35.574 -24.932 -11.758  0.00  0.00    -0.468 OA
ATOM     24  C   UNL     1      36.287 -23.866 -11.133  0.00  0.00    +0.253 C 
ENDBRANCH  10  23
BRANCH  11  25
ATOM     25  O   UNL     1      36.920 -25.219 -14.170  0.00  0.00    -0.468 OA
ATOM     26  C   UNL     1      37.183 -26.475 -14.792  0.00  0.00    +0.253 C 
ENDBRANCH  11  25
BRANCH   3  27
ATOM     27  C   UNL     1      31.171 -22.115 -14.421  0.00  0.00    +0.010 C 
ATOM     28  C   UNL     1      29.732 -21.945 -14.871  0.00  0.00    +0.001 C 
ENDBRANCH   3  27
TORSDOF 6
ENDMDL
MODEL 5
REMARK VINA RESULT:      -6.7      9.638     13.230
REMARK  Name = 204105
REMARK  6 active torsions:
REMARK  status: ('A' for Active; 'I' for Inactive)
REMARK    1  A    between atoms: C_3  and  C_27
REMARK    2  A    between atoms: C_8  and  C_13
REMARK    3  A    between atoms: C_10  and  O_23
REMARK    4  A    between atoms: C_11  and  O_25
REMARK    5  A    between atoms: C_16  and  O_19
REMARK    6  A    between atoms: C_18  and  O_21
REMARK                            x       y       z     vdW  Elec       q    Type
REMARK                         _______ _______ _______ _____ _____    ______ ____
ROOT
ATOM      1  N   UNL     1      31.560 -14.357 -21.096  0.00  0.00    -0.156 NA
ATOM      2  N   UNL     1      32.038 -13.139 -21.554  0.00  0.00    -0.149 NA
ATOM      3  C   UNL     1      33.783 -15.454 -21.502  0.00  0.00    +0.060 C 
ATOM      4  C   UNL     1      33.731 -15.257 -22.998  0.00  0.00    -0.012 C 
ATOM      5  C   UNL     1      33.114 -14.131 -23.563  0.00  0.00    +0.019 C 
ATOM      6  C   UNL     1      32.359 -15.371 -20.976  0.00  0.00    +0.062 C 
ATOM      7  C   UNL     1      34.237 -16.249 -23.853  0.00  0.00    +0.036 C 
ATOM      8  C   UNL     1      32.666 -13.021 -22.685  0.00  0.00    +0.103 C 
ATOM      9  C   UNL     1      32.985 -14.013 -24.954  0.00  0.00    +0.041 C 
ATOM     10  C   UNL     1      34.118 -16.124 -25.237  0.00  0.00    +0.172 C 
ATOM     11  C   UNL     1      33.486 -15.012 -25.787  0.00  0.00    +0.172 C 
ATOM     12  C   UNL     1      31.794 -16.621 -20.343  0.00  0.00    +0.049 C 
ENDROOT
BRANCH   8  13
ATOM     13  C   UNL     1      33.023 -11.627 -23.090  0.00  0.00    +0.023 C 
ATOM     14  C   UNL     1      34.145 -11.411 -23.879  0.00  0.00    +0.042 C 
ATOM     15  C   UNL     1      32.230 -10.568 -22.671  0.00  0.00    +0.005 C 
ATOM     16  C   UNL     1      34.479 -10.110 -24.256  0.00  0.00    +0.172 C 
ATOM     17  C   UNL     1      32.564  -9.267 -23.047  0.00  0.00    +0.040 C 
ATOM     18  C   UNL     1      33.689  -9.039 -23.840  0.00  0.00    +0.172 C 
BRANCH  16  19
ATOM     19  O   UNL     1      35.580  -9.898 -25.030  0.00  0.00    -0.468 OA
ATOM     20  C   UNL     1      35.568 -10.459 -26.341  0.00  0.00    +0.253 C 
ENDBRANCH  16  19
BRANCH  18  21
ATOM     21  O   UNL     1      34.005  -7.763 -24.201  0.00  0.00    -0.468 OA
ATOM     22  C   UNL     1      33.118  -6.731 -23.776  0.00  0.00    +0.253 C 
ENDBRANCH  18  21
ENDBRANCH   8  13
BRANCH  10  23
ATOM     23  O   UNL     1      34.616 -17.105 -26.041  0.00  0.00    -0.468 OA
ATOM     24  C   UNL     1      34.654 -18.426 -25.504  0.00  0.00    +0.253 C 
ENDBRANCH  10  23
BRANCH  11  25
ATOM     25  O   UNL     1      33.359 -14.884 -27.137  0.00  0.00    -0.468 OA
ATOM     26  C   UNL     1      33.361 -13.560 -27.666  0.00  0.00    +0.253 C 
ENDBRANCH  11  25
BRANCH   3  27
ATOM     27  C   UNL     1      34.766 -14.556 -20.760  0.00  0.00    +0.010 C 
ATOM     28  C   UNL     1      35.074 -15.094 -19.375  0.00  0.00    +0.001 C 
ENDBRANCH   3  27
TORSDOF 6
ENDMDL
MODEL 6
REMARK VINA RESULT:      -6.2      9.340     12.976
REMARK  Name = 204105
REMARK  6 active torsions:
REMARK  status: ('A' for Active; 'I' for Inactive)
REMARK    1  A    between atoms: C_3  and  C_27
REMARK    2  A    between atoms: C_8  and  C_13
REMARK    3  A    between atoms: C_10  and  O_23
REMARK    4  A    between atoms: C_11  and  O_25
REMARK    5  A    between atoms: C_16  and  O_19
REMARK    6  A    between atoms: C_18  and  O_21
REMARK                            x       y       z     vdW  Elec       q    Type
REMARK                         _______ _______ _______ _____ _____    ______ ____
ROOT
ATOM      1  N   UNL     1      31.396 -14.913 -20.954  0.00  0.00    -0.156 NA
ATOM      2  N   UNL     1      31.802 -13.643 -21.333  0.00  0.00    -0.149 NA
ATOM      3  C   UNL     1      33.706 -15.830 -21.313  0.00  0.00    +0.060 C 
ATOM      4  C   UNL     1      33.701 -15.565 -22.799  0.00  0.00    -0.012 C 
ATOM      5  C   UNL     1      33.028 -14.458 -23.338  0.00  0.00    +0.019 C 
ATOM      6  C   UNL     1      32.261 -15.874 -20.846  0.00  0.00    +0.062 C 
ATOM      7  C   UNL     1      34.310 -16.475 -23.676  0.00  0.00    +0.036 C 
ATOM      8  C   UNL     1      32.466 -13.426 -22.429  0.00  0.00    +0.103 C 
ATOM      9  C   UNL     1      32.946 -14.281 -24.726  0.00  0.00    +0.041 C 
ATOM     10  C   UNL     1      34.239 -16.291 -25.057  0.00  0.00    +0.172 C 
ATOM     11  C   UNL     1      33.551 -15.200 -25.581  0.00  0.00    +0.172 C 
ATOM     12  C   UNL     1      31.761 -17.190 -20.297  0.00  0.00    +0.049 C 
ENDROOT
BRANCH   8  13
ATOM     13  C   UNL     1      32.738 -11.993 -22.753  0.00  0.00    +0.023 C 
ATOM     14  C   UNL     1      32.078 -10.995 -22.048  0.00  0.00    +0.042 C 
ATOM     15  C   UNL     1      33.645 -11.678 -23.756  0.00  0.00    +0.005 C 
ATOM     16  C   UNL     1      32.331  -9.657 -22.351  0.00  0.00    +0.172 C 
ATOM     17  C   UNL     1      33.898 -10.340 -24.060  0.00  0.00    +0.040 C 
ATOM     18  C   UNL     1      33.240  -9.330 -23.357  0.00  0.00    +0.172 C 
BRANCH  16  19
ATOM     19  O   UNL     1      31.683  -8.679 -21.659  0.00  0.00    -0.468 OA
ATOM     20  C   UNL     1      32.244  -8.292 -20.406  0.00  0.00    +0.253 C 
ENDBRANCH  16  19
BRANCH  18  21
ATOM     21  O   UNL     1      33.496  -8.027 -23.663  0.00  0.00    -0.468 OA
ATOM     22  C   UNL     1      34.853  -7.596 -23.578  0.00  0.00    +0.253 C 
ENDBRANCH  18  21
ENDBRANCH   8  13
BRANCH  10  23
ATOM     23  O   UNL     1      34.838 -17.194 -25.882  0.00  0.00    -0.468 OA
ATOM     24  C   UNL     1      34.775 -18.566 -25.497  0.00  0.00    +0.253 C 
ENDBRANCH  10  23
BRANCH  11  25
ATOM     25  O   UNL     1      33.470 -15.015 -26.928  0.00  0.00    -0.468 OA
ATOM     26  C   UNL     1      33.443 -13.669 -27.397  0.00  0.00    +0.253 C 
ENDBRANCH  11  25
BRANCH   3  27
ATOM     27  C   UNL     1      34.592 -14.903 -20.488  0.00  0.00    +0.010 C 
ATOM     28  C   UNL     1      35.293 -13.881 -21.362  0.00  0.00    +0.001 C 
ENDBRANCH   3  27
TORSDOF 6
ENDMDL
MODEL 7
REMARK VINA RESULT:      -6.1      4.775     10.259
REMARK  Name = 204105
REMARK  6 active torsions:
REMARK  status: ('A' for Active; 'I' for Inactive)
REMARK    1  A    between atoms: C_3  and  C_27
REMARK    2  A    between atoms: C_8  and  C_13
REMARK    3  A    between atoms: C_10  and  O_23
REMARK    4  A    between atoms: C_11  and  O_25
REMARK    5  A    between atoms: C_16  and  O_19
REMARK    6  A    between atoms: C_18  and  O_21
REMARK                            x       y       z     vdW  Elec       q    Type
REMARK                         _______ _______ _______ _____ _____    ______ ____
ROOT
ATOM      1  N   UNL     1      35.334 -15.387 -20.403  0.00  0.00    -0.156 NA
ATOM      2  N   UNL     1      34.961 -16.700 -20.165  0.00  0.00    -0.149 NA
ATOM      3  C   UNL     1      33.270 -14.979 -21.773  0.00  0.00    +0.060 C 
ATOM      4  C   UNL     1      33.653 -15.967 -22.848  0.00  0.00    -0.012 C 
ATOM      5  C   UNL     1      34.371 -17.133 -22.542  0.00  0.00    +0.019 C 
ATOM      6  C   UNL     1      34.538 -14.582 -21.036  0.00  0.00    +0.062 C 
ATOM      7  C   UNL     1      33.362 -15.689 -24.192  0.00  0.00    +0.036 C 
ATOM      8  C   UNL     1      34.601 -17.502 -21.122  0.00  0.00    +0.103 C 
ATOM      9  C   UNL     1      34.808 -17.989 -23.562  0.00  0.00    +0.041 C 
ATOM     10  C   UNL     1      33.787 -16.548 -25.206  0.00  0.00    +0.172 C 
ATOM     11  C   UNL     1      34.516 -17.693 -24.892  0.00  0.00    +0.172 C 
ATOM     12  C   UNL     1      34.959 -13.134 -21.135  0.00  0.00    +0.049 C 
ENDROOT
BRANCH   8  13
ATOM     13  C   UNL     1      34.331 -18.916 -20.719  0.00  0.00    +0.023 C 
ATOM     14  C   UNL     1      35.389 -19.735 -20.345  0.00  0.00    +0.042 C 
ATOM     15  C   UNL     1      33.028 -19.393 -20.726  0.00  0.00    +0.005 C 
ATOM     16  C   UNL     1      35.137 -21.054 -19.971  0.00  0.00    +0.172 C 
ATOM     17  C   UNL     1      32.775 -20.713 -20.353  0.00  0.00    +0.040 C 
ATOM     18  C   UNL     1      33.831 -21.543 -19.975  0.00  0.00    +0.172 C 
BRANCH  16  19
ATOM     19  O   UNL     1      36.175 -21.857 -19.603  0.00  0.00    -0.468 OA
ATOM     20  C   UNL     1      36.739 -21.636 -18.312  0.00  0.00    +0.253 C 
ENDBRANCH  16  19
BRANCH  18  21
ATOM     21  O   UNL     1      33.572 -22.831 -19.611  0.00  0.00    -0.468 OA
ATOM     22  C   UNL     1      33.388 -23.087 -18.220  0.00  0.00    +0.253 C 
ENDBRANCH  18  21
ENDBRANCH   8  13
BRANCH  10  23
ATOM     23  O   UNL     1      33.490 -16.250 -26.502  0.00  0.00    -0.468 OA
ATOM     24  C   UNL     1      32.937 -14.960 -26.760  0.00  0.00    +0.253 C 
ENDBRANCH  10  23
BRANCH  11  25
ATOM     25  O   UNL     1      34.941 -18.534 -25.875  0.00  0.00    -0.468 OA
ATOM     26  C   UNL     1      34.869 -19.933 -25.607  0.00  0.00    +0.253 C 
ENDBRANCH  11  25
BRANCH   3  27
ATOM     27  C   UNL     1      32.137 -15.422 -20.854  0.00  0.00    +0.010 C 
ATOM     28  C   UNL     1      32.158 -14.664 -19.540  0.00  0.00    +0.001 C 
ENDBRANCH   3  27
TORSDOF 6
ENDMDL
