MODEL 1
REMARK VINA RESULT:      -6.4      0.000      0.000
REMARK  Name = 5289415
REMARK  7 active torsions:
REMARK  status: ('A' for Active; 'I' for Inactive)
REMARK    1  A    between atoms: C_1  and  C_3
REMARK    2  A    between atoms: C_1  and  C_6
REMARK    3  A    between atoms: C_1  and  C_10
REMARK    4  A    between atoms: C_3  and  O_4
REMARK    5  A    between atoms: C_6  and  C_7
REMARK    6  A    between atoms: C_10  and  N_12
REMARK    7  A    between atoms: N_12  and  O_14
REMARK                            x       y       z     vdW  Elec       q    Type
REMARK                         _______ _______ _______ _____ _____    ______ ____
ROOT
ATOM      1  C   UNL     1      36.853 -25.263 -14.323  0.00  0.00    +0.121 C 
ENDROOT
BRANCH   1   3
ATOM      2  O   UNL     1      38.244 -27.238 -14.685  0.00  0.00    -0.250 OA
ATOM      3  C   UNL     1      37.283 -26.550 -15.003  0.00  0.00    +0.315 C 
BRANCH   3   4
ATOM      4  O   UNL     1      36.466 -26.837 -16.049  0.00  0.00    -0.480 OA
ATOM      5  H   UNL     1      35.542 -26.907 -15.915  0.00  0.00    +0.295 HD
ENDBRANCH   3   4
ENDBRANCH   1   3
BRANCH   1   6
ATOM      6  C   UNL     1      37.585 -24.038 -14.905  0.00  0.00    +0.013 C 
BRANCH   6   7
ATOM      7  C   UNL     1      36.674 -22.846 -15.270  0.00  0.00    +0.001 C 
ATOM      8  C   UNL     1      35.224 -23.267 -15.512  0.00  0.00    +0.000 C 
ATOM      9  C   UNL     1      37.218 -22.145 -16.519  0.00  0.00    +0.000 C 
ENDBRANCH   6   7
ENDBRANCH   1   6
BRANCH   1  10
ATOM     10  C   UNL     1      37.054 -25.387 -12.807  0.00  0.00    +0.135 C 
BRANCH  10  12
ATOM     11  O   UNL     1      37.766 -22.985 -11.365  0.00  0.00    -0.263 OA
ATOM     12  N   UNL     1      36.184 -24.539 -12.036  0.00  0.00    -0.164 N 
ATOM     13  C   UNL     1      36.620 -23.419 -11.389  0.00  0.00    +0.327 C 
BRANCH  12  14
ATOM     14  O   UNL     1      34.848 -24.963 -12.010  0.00  0.00    -0.291 OA
ATOM     15  H   UNL     1      34.633 -25.297 -11.126  0.00  0.00    +0.242 HD
ENDBRANCH  12  14
ENDBRANCH  10  12
ENDBRANCH   1  10
TORSDOF 7
ENDMDL
MODEL 2
REMARK VINA RESULT:      -6.3      0.724      1.540
REMARK  Name = 5289415
REMARK  7 active torsions:
REMARK  status: ('A' for Active; 'I' for Inactive)
REMARK    1  A    between atoms: C_1  and  C_3
REMARK    2  A    between atoms: C_1  and  C_6
REMARK    3  A    between atoms: C_1  and  C_10
REMARK    4  A    between atoms: C_3  and  O_4
REMARK    5  A    between atoms: C_6  and  C_7
REMARK    6  A    between atoms: C_10  and  N_12
REMARK    7  A    between atoms: N_12  and  O_14
REMARK                            x       y       z     vdW  Elec       q    Type
REMARK                         _______ _______ _______ _____ _____    ______ ____
ROOT
ATOM      1  C   UNL     1      37.160 -25.126 -13.957  0.00  0.00    +0.121 C 
ENDROOT
BRANCH   1   3
ATOM      2  O   UNL     1      38.235 -27.221 -14.606  0.00  0.00    -0.250 OA
ATOM      3  C   UNL     1      37.234 -26.521 -14.551  0.00  0.00    +0.315 C 
BRANCH   3   4
ATOM      4  O   UNL     1      36.027 -26.895 -15.048  0.00  0.00    -0.480 OA
ATOM      5  H   UNL     1      35.251 -26.440 -14.788  0.00  0.00    +0.295 HD
ENDBRANCH   3   4
ENDBRANCH   1   3
BRANCH   1   6
ATOM      6  C   UNL     1      37.755 -24.070 -14.909  0.00  0.00    +0.013 C 
BRANCH   6   7
ATOM      7  C   UNL     1      36.864 -22.831 -15.146  0.00  0.00    +0.001 C 
ATOM      8  C   UNL     1      35.378 -23.182 -15.230  0.00  0.00    +0.000 C 
ATOM      9  C   UNL     1      37.296 -22.125 -16.436  0.00  0.00    +0.000 C 
ENDBRANCH   6   7
ENDBRANCH   1   6
BRANCH   1  10
ATOM     10  C   UNL     1      37.843 -25.112 -12.583  0.00  0.00    +0.135 C 
BRANCH  10  12
ATOM     11  O   UNL     1      35.415 -25.056 -11.016  0.00  0.00    -0.263 OA
ATOM     12  N   UNL     1      37.384 -24.056 -11.719  0.00  0.00    -0.164 N 
ATOM     13  C   UNL     1      36.215 -24.127 -11.017  0.00  0.00    +0.327 C 
BRANCH  12  14
ATOM     14  O   UNL     1      38.243 -22.950 -11.661  0.00  0.00    -0.291 OA
ATOM     15  H   UNL     1      38.862 -23.061 -10.922  0.00  0.00    +0.242 HD
ENDBRANCH  12  14
ENDBRANCH  10  12
ENDBRANCH   1  10
TORSDOF 7
ENDMDL
MODEL 3
REMARK VINA RESULT:      -6.2      1.967      3.776
REMARK  Name = 5289415
REMARK  7 active torsions:
REMARK  status: ('A' for Active; 'I' for Inactive)
REMARK    1  A    between atoms: C_1  and  C_3
REMARK    2  A    between atoms: C_1  and  C_6
REMARK    3  A    between atoms: C_1  and  C_10
REMARK    4  A    between atoms: C_3  and  O_4
REMARK    5  A    between atoms: C_6  and  C_7
REMARK    6  A    between atoms: C_10  and  N_12
REMARK    7  A    between atoms: N_12  and  O_14
REMARK                            x       y       z     vdW  Elec       q    Type
REMARK                         _______ _______ _______ _____ _____    ______ ____
ROOT
ATOM      1  C   UNL     1      37.655 -24.192 -13.269  0.00  0.00    +0.121 C 
ENDROOT
BRANCH   1   3
ATOM      2  O   UNL     1      37.022 -24.269 -10.911  0.00  0.00    -0.250 OA
ATOM      3  C   UNL     1      37.660 -23.751 -11.817  0.00  0.00    +0.315 C 
BRANCH   3   4
ATOM      4  O   UNL     1      38.461 -22.668 -11.647  0.00  0.00    -0.480 OA
ATOM      5  H   UNL     1      38.982 -22.586 -10.873  0.00  0.00    +0.295 HD
ENDBRANCH   3   4
ENDBRANCH   1   3
BRANCH   1   6
ATOM      6  C   UNL     1      36.241 -24.127 -13.880  0.00  0.00    +0.013 C 
BRANCH   6   7
ATOM      7  C   UNL     1      36.024 -22.987 -14.899  0.00  0.00    +0.001 C 
ATOM      8  C   UNL     1      34.811 -23.226 -15.799  0.00  0.00    +0.000 C 
ATOM      9  C   UNL     1      37.278 -22.824 -15.764  0.00  0.00    +0.000 C 
ENDBRANCH   6   7
ENDBRANCH   1   6
BRANCH   1  10
ATOM     10  C   UNL     1      38.267 -25.594 -13.386  0.00  0.00    +0.135 C 
BRANCH  10  12
ATOM     11  O   UNL     1      40.913 -24.837 -14.270  0.00  0.00    -0.263 OA
ATOM     12  N   UNL     1      38.871 -25.857 -14.666  0.00  0.00    -0.164 N 
ATOM     13  C   UNL     1      40.135 -25.455 -14.988  0.00  0.00    +0.327 C 
BRANCH  12  14
ATOM     14  O   UNL     1      38.046 -26.565 -15.552  0.00  0.00    -0.291 OA
ATOM     15  H   UNL     1      37.131 -26.539 -15.232  0.00  0.00    +0.242 HD
ENDBRANCH  12  14
ENDBRANCH  10  12
ENDBRANCH   1  10
TORSDOF 7
ENDMDL
MODEL 4
REMARK VINA RESULT:      -6.1     10.862     12.868
REMARK  Name = 5289415
REMARK  7 active torsions:
REMARK  status: ('A' for Active; 'I' for Inactive)
REMARK    1  A    between atoms: C_1  and  C_3
REMARK    2  A    between atoms: C_1  and  C_6
REMARK    3  A    between atoms: C_1  and  C_10
REMARK    4  A    between atoms: C_3  and  O_4
REMARK    5  A    between atoms: C_6  and  C_7
REMARK    6  A    between atoms: C_10  and  N_12
REMARK    7  A    between atoms: N_12  and  O_14
REMARK                            x       y       z     vdW  Elec       q    Type
REMARK                         _______ _______ _______ _____ _____    ______ ____
ROOT
ATOM      1  C   UNL     1      34.441 -16.533 -22.089  0.00  0.00    +0.121 C 
ENDROOT
BRANCH   1   3
ATOM      2  O   UNL     1      33.125 -14.931 -20.798  0.00  0.00    -0.250 OA
ATOM      3  C   UNL     1      34.080 -15.691 -20.879  0.00  0.00    +0.315 C 
BRANCH   3   4
ATOM      4  O   UNL     1      34.985 -15.870 -19.882  0.00  0.00    -0.480 OA
ATOM      5  H   UNL     1      35.209 -16.736 -19.603  0.00  0.00    +0.295 HD
ENDBRANCH   3   4
ENDBRANCH   1   3
BRANCH   1   6
ATOM      6  C   UNL     1      35.496 -17.603 -21.744  0.00  0.00    +0.013 C 
BRANCH   6   7
ATOM      7  C   UNL     1      35.065 -19.058 -22.031  0.00  0.00    +0.001 C 
ATOM      8  C   UNL     1      34.760 -19.302 -23.509  0.00  0.00    +0.000 C 
ATOM      9  C   UNL     1      33.831 -19.404 -21.190  0.00  0.00    +0.000 C 
ENDBRANCH   6   7
ENDBRANCH   1   6
BRANCH   1  10
ATOM     10  C   UNL     1      34.900 -15.621 -23.235  0.00  0.00    +0.135 C 
BRANCH  10  12
ATOM     11  O   UNL     1      34.667 -16.768 -25.878  0.00  0.00    -0.263 OA
ATOM     12  N   UNL     1      33.877 -15.363 -24.214  0.00  0.00    -0.164 N 
ATOM     13  C   UNL     1      33.856 -15.960 -25.441  0.00  0.00    +0.327 C 
BRANCH  12  14
ATOM     14  O   UNL     1      32.903 -14.446 -23.795  0.00  0.00    -0.291 OA
ATOM     15  H   UNL     1      32.213 -14.376 -24.473  0.00  0.00    +0.242 HD
ENDBRANCH  12  14
ENDBRANCH  10  12
ENDBRANCH   1  10
TORSDOF 7
ENDMDL
MODEL 5
REMARK VINA RESULT:      -6.1      9.915     11.617
REMARK  Name = 5289415
REMARK  7 active torsions:
REMARK  status: ('A' for Active; 'I' for Inactive)
REMARK    1  A    between atoms: C_1  and  C_3
REMARK    2  A    between atoms: C_1  and  C_6
REMARK    3  A    between atoms: C_1  and  C_10
REMARK    4  A    between atoms: C_3  and  O_4
REMARK    5  A    between atoms: C_6  and  C_7
REMARK    6  A    between atoms: C_10  and  N_12
REMARK    7  A    between atoms: N_12  and  O_14
REMARK                            x       y       z     vdW  Elec       q    Type
REMARK                         _______ _______ _______ _____ _____    ______ ____
ROOT
ATOM      1  C   UNL     1      34.893 -17.953 -22.690  0.00  0.00    +0.121 C 
ENDROOT
BRANCH   1   3
ATOM      2  O   UNL     1      34.390 -18.541 -25.007  0.00  0.00    -0.250 OA
ATOM      3  C   UNL     1      34.859 -17.755 -24.195  0.00  0.00    +0.315 C 
BRANCH   3   4
ATOM      4  O   UNL     1      35.451 -16.582 -24.538  0.00  0.00    -0.480 OA
ATOM      5  H   UNL     1      35.928 -16.093 -23.898  0.00  0.00    +0.295 HD
ENDBRANCH   3   4
ENDBRANCH   1   3
BRANCH   1   6
ATOM      6  C   UNL     1      34.598 -19.415 -22.300  0.00  0.00    +0.013 C 
BRANCH   6   7
ATOM      7  C   UNL     1      34.384 -19.656 -20.790  0.00  0.00    +0.001 C 
ATOM      8  C   UNL     1      35.406 -20.627 -20.198  0.00  0.00    +0.000 C 
ATOM      9  C   UNL     1      32.969 -20.192 -20.550  0.00  0.00    +0.000 C 
ENDBRANCH   6   7
ENDBRANCH   1   6
BRANCH   1  10
ATOM     10  C   UNL     1      33.924 -16.972 -22.017  0.00  0.00    +0.135 C 
BRANCH  10  12
ATOM     11  O   UNL     1      34.224 -14.257 -22.963  0.00  0.00    -0.263 OA
ATOM     12  N   UNL     1      34.578 -15.879 -21.347  0.00  0.00    -0.164 N 
ATOM     13  C   UNL     1      34.667 -14.626 -21.881  0.00  0.00    +0.327 C 
BRANCH  12  14
ATOM     14  O   UNL     1      35.116 -16.215 -20.096  0.00  0.00    -0.291 OA
ATOM     15  H   UNL     1      34.998 -17.165 -19.939  0.00  0.00    +0.242 HD
ENDBRANCH  12  14
ENDBRANCH  10  12
ENDBRANCH   1  10
TORSDOF 7
ENDMDL
MODEL 6
REMARK VINA RESULT:      -6.1     10.927     12.941
REMARK  Name = 5289415
REMARK  7 active torsions:
REMARK  status: ('A' for Active; 'I' for Inactive)
REMARK    1  A    between atoms: C_1  and  C_3
REMARK    2  A    between atoms: C_1  and  C_6
REMARK    3  A    between atoms: C_1  and  C_10
REMARK    4  A    between atoms: C_3  and  O_4
REMARK    5  A    between atoms: C_6  and  C_7
REMARK    6  A    between atoms: C_10  and  N_12
REMARK    7  A    between atoms: N_12  and  O_14
REMARK                            x       y       z     vdW  Elec       q    Type
REMARK                         _______ _______ _______ _____ _____    ______ ____
ROOT
ATOM      1  C   UNL     1      34.308 -16.281 -22.031  0.00  0.00    +0.121 C 
ENDROOT
BRANCH   1   3
ATOM      2  O   UNL     1      33.502 -14.307 -20.840  0.00  0.00    -0.250 OA
ATOM      3  C   UNL     1      34.185 -15.321 -20.861  0.00  0.00    +0.315 C 
BRANCH   3   4
ATOM      4  O   UNL     1      34.966 -15.724 -19.826  0.00  0.00    -0.480 OA
ATOM      5  H   UNL     1      35.662 -16.333 -19.974  0.00  0.00    +0.295 HD
ENDBRANCH   3   4
ENDBRANCH   1   3
BRANCH   1   6
ATOM      6  C   UNL     1      35.173 -17.506 -21.675  0.00  0.00    +0.013 C 
BRANCH   6   7
ATOM      7  C   UNL     1      34.514 -18.874 -21.958  0.00  0.00    +0.001 C 
ATOM      8  C   UNL     1      34.967 -19.959 -20.981  0.00  0.00    +0.000 C 
ATOM      9  C   UNL     1      34.834 -19.311 -23.392  0.00  0.00    +0.000 C 
ENDBRANCH   6   7
ENDBRANCH   1   6
BRANCH   1  10
ATOM     10  C   UNL     1      34.846 -15.534 -23.259  0.00  0.00    +0.135 C 
BRANCH  10  12
ATOM     11  O   UNL     1      34.609 -16.765 -25.863  0.00  0.00    -0.263 OA
ATOM     12  N   UNL     1      33.848 -15.274 -24.262  0.00  0.00    -0.164 N 
ATOM     13  C   UNL     1      33.822 -15.913 -25.468  0.00  0.00    +0.327 C 
BRANCH  12  14
ATOM     14  O   UNL     1      32.902 -14.308 -23.890  0.00  0.00    -0.291 OA
ATOM     15  H   UNL     1      32.010 -14.681 -23.974  0.00  0.00    +0.242 HD
ENDBRANCH  12  14
ENDBRANCH  10  12
ENDBRANCH   1  10
TORSDOF 7
ENDMDL
MODEL 7
REMARK VINA RESULT:      -6.0     10.684     12.428
REMARK  Name = 5289415
REMARK  7 active torsions:
REMARK  status: ('A' for Active; 'I' for Inactive)
REMARK    1  A    between atoms: C_1  and  C_3
REMARK    2  A    between atoms: C_1  and  C_6
REMARK    3  A    between atoms: C_1  and  C_10
REMARK    4  A    between atoms: C_3  and  O_4
REMARK    5  A    between atoms: C_6  and  C_7
REMARK    6  A    between atoms: C_10  and  N_12
REMARK    7  A    between atoms: N_12  and  O_14
REMARK                            x       y       z     vdW  Elec       q    Type
REMARK                         _______ _______ _______ _____ _____    ______ ____
ROOT
ATOM      1  C   UNL     1      34.953 -17.006 -23.659  0.00  0.00    +0.121 C 
ENDROOT
BRANCH   1   3
ATOM      2  O   UNL     1      34.405 -16.035 -25.832  0.00  0.00    -0.250 OA
ATOM      3  C   UNL     1      34.510 -17.017 -25.111  0.00  0.00    +0.315 C 
BRANCH   3   4
ATOM      4  O   UNL     1      34.214 -18.280 -25.512  0.00  0.00    -0.480 OA
ATOM      5  H   UNL     1      34.001 -18.449 -26.408  0.00  0.00    +0.295 HD
ENDBRANCH   3   4
ENDBRANCH   1   3
BRANCH   1   6
ATOM      6  C   UNL     1      35.173 -18.433 -23.119  0.00  0.00    +0.013 C 
BRANCH   6   7
ATOM      7  C   UNL     1      35.096 -18.567 -21.583  0.00  0.00    +0.001 C 
ATOM      8  C   UNL     1      36.419 -19.020 -20.964  0.00  0.00    +0.000 C 
ATOM      9  C   UNL     1      33.990 -19.559 -21.208  0.00  0.00    +0.000 C 
ENDBRANCH   6   7
ENDBRANCH   1   6
BRANCH   1  10
ATOM     10  C   UNL     1      33.939 -16.222 -22.815  0.00  0.00    +0.135 C 
BRANCH  10  12
ATOM     11  O   UNL     1      34.783 -15.482 -20.152  0.00  0.00    -0.263 OA
ATOM     12  N   UNL     1      34.422 -14.939 -22.375  0.00  0.00    -0.164 N 
ATOM     13  C   UNL     1      34.798 -14.690 -21.087  0.00  0.00    +0.327 C 
BRANCH  12  14
ATOM     14  O   UNL     1      34.472 -13.969 -23.386  0.00  0.00    -0.291 OA
ATOM     15  H   UNL     1      34.026 -14.306 -24.179  0.00  0.00    +0.242 HD
ENDBRANCH  12  14
ENDBRANCH  10  12
ENDBRANCH   1  10
TORSDOF 7
ENDMDL
MODEL 8
REMARK VINA RESULT:      -5.9     10.700     12.569
REMARK  Name = 5289415
REMARK  7 active torsions:
REMARK  status: ('A' for Active; 'I' for Inactive)
REMARK    1  A    between atoms: C_1  and  C_3
REMARK    2  A    between atoms: C_1  and  C_6
REMARK    3  A    between atoms: C_1  and  C_10
REMARK    4  A    between atoms: C_3  and  O_4
REMARK    5  A    between atoms: C_6  and  C_7
REMARK    6  A    between atoms: C_10  and  N_12
REMARK    7  A    between atoms: N_12  and  O_14
REMARK                            x       y       z     vdW  Elec       q    Type
REMARK                         _______ _______ _______ _____ _____    ______ ____
ROOT
ATOM      1  C   UNL     1      34.469 -16.599 -23.518  0.00  0.00    +0.121 C 
ENDROOT
BRANCH   1   3
ATOM      2  O   UNL     1      34.707 -16.623 -25.949  0.00  0.00    -0.250 OA
ATOM      3  C   UNL     1      34.573 -17.229 -24.895  0.00  0.00    +0.315 C 
BRANCH   3   4
ATOM      4  O   UNL     1      34.471 -18.581 -24.812  0.00  0.00    -0.480 OA
ATOM      5  H   UNL     1      35.123 -19.072 -24.354  0.00  0.00    +0.295 HD
ENDBRANCH   3   4
ENDBRANCH   1   3
BRANCH   1   6
ATOM      6  C   UNL     1      34.571 -15.062 -23.585  0.00  0.00    +0.013 C 
BRANCH   6   7
ATOM      7  C   UNL     1      33.234 -14.312 -23.396  0.00  0.00    +0.001 C 
ATOM      8  C   UNL     1      33.366 -12.807 -23.632  0.00  0.00    +0.000 C 
ATOM      9  C   UNL     1      32.699 -14.563 -21.983  0.00  0.00    +0.000 C 
ENDBRANCH   6   7
ENDBRANCH   1   6
BRANCH   1  10
ATOM     10  C   UNL     1      35.530 -17.205 -22.590  0.00  0.00    +0.135 C 
BRANCH  10  12
ATOM     11  O   UNL     1      34.237 -19.697 -21.903  0.00  0.00    -0.263 OA
ATOM     12  N   UNL     1      35.018 -17.600 -21.304  0.00  0.00    -0.164 N 
ATOM     13  C   UNL     1      34.420 -18.807 -21.081  0.00  0.00    +0.327 C 
BRANCH  12  14
ATOM     14  O   UNL     1      35.187 -16.635 -20.301  0.00  0.00    -0.291 OA
ATOM     15  H   UNL     1      36.108 -16.329 -20.300  0.00  0.00    +0.242 HD
ENDBRANCH  12  14
ENDBRANCH  10  12
ENDBRANCH   1  10
TORSDOF 7
ENDMDL
MODEL 9
REMARK VINA RESULT:      -5.9      4.122      5.710
REMARK  Name = 5289415
REMARK  7 active torsions:
REMARK  status: ('A' for Active; 'I' for Inactive)
REMARK    1  A    between atoms: C_1  and  C_3
REMARK    2  A    between atoms: C_1  and  C_6
REMARK    3  A    between atoms: C_1  and  C_10
REMARK    4  A    between atoms: C_3  and  O_4
REMARK    5  A    between atoms: C_6  and  C_7
REMARK    6  A    between atoms: C_10  and  N_12
REMARK    7  A    between atoms: N_12  and  O_14
REMARK                            x       y       z     vdW  Elec       q    Type
REMARK                         _______ _______ _______ _____ _____    ______ ____
ROOT
ATOM      1  C   UNL     1      32.525 -23.591 -16.086  0.00  0.00    +0.121 C 
ENDROOT
BRANCH   1   3
ATOM      2  O   UNL     1      32.278 -22.382 -18.193  0.00  0.00    -0.250 OA
ATOM      3  C   UNL     1      32.969 -23.039 -17.428  0.00  0.00    +0.315 C 
BRANCH   3   4
ATOM      4  O   UNL     1      34.252 -23.397 -17.693  0.00  0.00    -0.480 OA
ATOM      5  H   UNL     1      34.954 -23.028 -17.195  0.00  0.00    +0.295 HD
ENDBRANCH   3   4
ENDBRANCH   1   3
BRANCH   1   6
ATOM      6  C   UNL     1      31.103 -23.122 -15.719  0.00  0.00    +0.013 C 
BRANCH   6   7
ATOM      7  C   UNL     1      30.010 -24.208 -15.831  0.00  0.00    +0.001 C 
ATOM      8  C   UNL     1      28.597 -23.635 -15.718  0.00  0.00    +0.000 C 
ATOM      9  C   UNL     1      30.222 -25.265 -14.742  0.00  0.00    +0.000 C 
ENDBRANCH   6   7
ENDBRANCH   1   6
BRANCH   1  10
ATOM     10  C   UNL     1      33.550 -23.214 -15.008  0.00  0.00    +0.135 C 
BRANCH  10  12
ATOM     11  O   UNL     1      35.948 -24.668 -15.707  0.00  0.00    -0.263 OA
ATOM     12  N   UNL     1      34.116 -24.349 -14.326  0.00  0.00    -0.164 N 
ATOM     13  C   UNL     1      35.260 -24.968 -14.738  0.00  0.00    +0.327 C 
BRANCH  12  14
ATOM     14  O   UNL     1      33.389 -24.760 -13.200  0.00  0.00    -0.291 OA
ATOM     15  H   UNL     1      34.001 -24.943 -12.470  0.00  0.00    +0.242 HD
ENDBRANCH  12  14
ENDBRANCH  10  12
ENDBRANCH   1  10
TORSDOF 7
ENDMDL
