MODEL 1
REMARK VINA RESULT:      -4.8      0.000      0.000
REMARK  Name = 517030
REMARK  6 active torsions:
REMARK  status: ('A' for Active; 'I' for Inactive)
REMARK    1  A    between atoms: C_1  and  C_2
REMARK    2  A    between atoms: C_1  and  C_8
REMARK    3  A    between atoms: C_2  and  C_3
REMARK    4  A    between atoms: C_3  and  N_4
REMARK    5  A    between atoms: C_8  and  C_9
REMARK    6  A    between atoms: C_9  and  C_12
REMARK                            x       y       z     vdW  Elec       q    Type
REMARK                         _______ _______ _______ _____ _____    ______ ____
ROOT
ATOM      1  C   UNL     1      32.861 -20.183 -20.472  0.00  0.00    -0.002 C 
ENDROOT
BRANCH   1   2
ATOM      2  C   UNL     1      33.976 -19.733 -21.422  0.00  0.00    -0.024 C 
BRANCH   2   3
ATOM      3  C   UNL     1      34.435 -18.300 -21.181  0.00  0.00    -0.086 C 
BRANCH   3   4
ATOM      4  N   UNL     1      35.845 -18.272 -20.724  0.00  0.00    +0.380 N 
ATOM      5  H   UNL     1      36.041 -17.372 -20.284  0.00  0.00    -0.089 HD
ATOM      6  H   UNL     1      36.465 -18.400 -21.524  0.00  0.00    -0.089 HD
ATOM      7  H   UNL     1      35.998 -19.021 -20.050  0.00  0.00    -0.089 HD
ENDBRANCH   3   4
ENDBRANCH   2   3
ENDBRANCH   1   2
BRANCH   1   8
ATOM      8  C   UNL     1      33.374 -21.229 -19.475  0.00  0.00    +0.012 C 
BRANCH   8   9
ATOM      9  C   UNL     1      34.767 -21.737 -19.837  0.00  0.00    +0.114 C 
BRANCH   9  12
ATOM     10  O   UNL     1      35.808 -22.406 -17.834  0.00  0.00    -0.246 OA
ATOM     11  O   UNL     1      36.671 -20.614 -18.958  0.00  0.00    -0.246 OA
ATOM     12  C   UNL     1      35.855 -21.559 -18.773  0.00  0.00    +0.365 C 
ENDBRANCH   9  12
ENDBRANCH   8   9
ENDBRANCH   1   8
TORSDOF 6
ENDMDL
MODEL 2
REMARK VINA RESULT:      -4.7      7.795      8.605
REMARK  Name = 517030
REMARK  6 active torsions:
REMARK  status: ('A' for Active; 'I' for Inactive)
REMARK    1  A    between atoms: C_1  and  C_2
REMARK    2  A    between atoms: C_1  and  C_8
REMARK    3  A    between atoms: C_2  and  C_3
REMARK    4  A    between atoms: C_3  and  N_4
REMARK    5  A    between atoms: C_8  and  C_9
REMARK    6  A    between atoms: C_9  and  C_12
REMARK                            x       y       z     vdW  Elec       q    Type
REMARK                         _______ _______ _______ _____ _____    ______ ____
ROOT
ATOM      1  C   UNL     1      30.861 -22.855 -14.701  0.00  0.00    -0.002 C 
ENDROOT
BRANCH   1   2
ATOM      2  C   UNL     1      32.017 -23.860 -14.759  0.00  0.00    -0.024 C 
BRANCH   2   3
ATOM      3  C   UNL     1      31.823 -25.060 -13.840  0.00  0.00    -0.086 C 
BRANCH   3   4
ATOM      4  N   UNL     1      30.499 -25.003 -13.178  0.00  0.00    +0.380 N 
ATOM      5  H   UNL     1      30.095 -25.940 -13.143  0.00  0.00    -0.089 HD
ATOM      6  H   UNL     1      29.881 -24.386 -13.705  0.00  0.00    -0.089 HD
ATOM      7  H   UNL     1      30.608 -24.646 -12.229  0.00  0.00    -0.089 HD
ENDBRANCH   3   4
ENDBRANCH   2   3
ENDBRANCH   1   2
BRANCH   1   8
ATOM      8  C   UNL     1      30.078 -22.839 -16.018  0.00  0.00    +0.012 C 
BRANCH   8   9
ATOM      9  C   UNL     1      28.578 -22.671 -15.796  0.00  0.00    +0.114 C 
BRANCH   9  12
ATOM     10  O   UNL     1      27.206 -21.449 -17.269  0.00  0.00    -0.246 OA
ATOM     11  O   UNL     1      27.604 -23.650 -17.733  0.00  0.00    -0.246 OA
ATOM     12  C   UNL     1      27.707 -22.591 -17.056  0.00  0.00    +0.365 C 
ENDBRANCH   9  12
ENDBRANCH   8   9
ENDBRANCH   1   8
TORSDOF 6
ENDMDL
MODEL 3
REMARK VINA RESULT:      -4.7      1.613      1.966
REMARK  Name = 517030
REMARK  6 active torsions:
REMARK  status: ('A' for Active; 'I' for Inactive)
REMARK    1  A    between atoms: C_1  and  C_2
REMARK    2  A    between atoms: C_1  and  C_8
REMARK    3  A    between atoms: C_2  and  C_3
REMARK    4  A    between atoms: C_3  and  N_4
REMARK    5  A    between atoms: C_8  and  C_9
REMARK    6  A    between atoms: C_9  and  C_12
REMARK                            x       y       z     vdW  Elec       q    Type
REMARK                         _______ _______ _______ _____ _____    ______ ____
ROOT
ATOM      1  C   UNL     1      33.391 -19.391 -20.918  0.00  0.00    -0.002 C 
ENDROOT
BRANCH   1   2
ATOM      2  C   UNL     1      34.816 -19.268 -21.470  0.00  0.00    -0.024 C 
BRANCH   2   3
ATOM      3  C   UNL     1      34.870 -19.155 -22.989  0.00  0.00    -0.086 C 
BRANCH   3   4
ATOM      4  N   UNL     1      35.793 -18.071 -23.400  0.00  0.00    +0.380 N 
ATOM      5  H   UNL     1      36.219 -17.655 -22.571  0.00  0.00    -0.089 HD
ATOM      6  H   UNL     1      35.275 -17.357 -23.911  0.00  0.00    -0.089 HD
ATOM      7  H   UNL     1      36.523 -18.456 -24.000  0.00  0.00    -0.089 HD
ENDBRANCH   3   4
ENDBRANCH   2   3
ENDBRANCH   1   2
BRANCH   1   8
ATOM      8  C   UNL     1      33.214 -20.697 -20.136  0.00  0.00    +0.012 C 
BRANCH   8   9
ATOM      9  C   UNL     1      34.544 -21.261 -19.643  0.00  0.00    +0.114 C 
BRANCH   9  12
ATOM     10  O   UNL     1      35.054 -22.626 -17.794  0.00  0.00    -0.246 OA
ATOM     11  O   UNL     1      33.877 -23.541 -19.524  0.00  0.00    -0.246 OA
ATOM     12  C   UNL     1      34.486 -22.613 -18.925  0.00  0.00    +0.365 C 
ENDBRANCH   9  12
ENDBRANCH   8   9
ENDBRANCH   1   8
TORSDOF 6
ENDMDL
MODEL 4
REMARK VINA RESULT:      -4.6      4.192      5.579
REMARK  Name = 517030
REMARK  6 active torsions:
REMARK  status: ('A' for Active; 'I' for Inactive)
REMARK    1  A    between atoms: C_1  and  C_2
REMARK    2  A    between atoms: C_1  and  C_8
REMARK    3  A    between atoms: C_2  and  C_3
REMARK    4  A    between atoms: C_3  and  N_4
REMARK    5  A    between atoms: C_8  and  C_9
REMARK    6  A    between atoms: C_9  and  C_12
REMARK                            x       y       z     vdW  Elec       q    Type
REMARK                         _______ _______ _______ _____ _____    ______ ____
ROOT
ATOM      1  C   UNL     1      34.334 -18.700 -21.557  0.00  0.00    -0.002 C 
ENDROOT
BRANCH   1   2
ATOM      2  C   UNL     1      34.349 -19.998 -20.741  0.00  0.00    -0.024 C 
BRANCH   2   3
ATOM      3  C   UNL     1      32.971 -20.412 -20.236  0.00  0.00    -0.086 C 
BRANCH   3   4
ATOM      4  N   UNL     1      32.992 -21.811 -19.749  0.00  0.00    +0.380 N 
ATOM      5  H   UNL     1      33.865 -22.257 -20.031  0.00  0.00    -0.089 HD
ATOM      6  H   UNL     1      32.205 -22.323 -20.149  0.00  0.00    -0.089 HD
ATOM      7  H   UNL     1      32.920 -21.818 -18.732  0.00  0.00    -0.089 HD
ENDBRANCH   3   4
ENDBRANCH   2   3
ENDBRANCH   1   2
BRANCH   1   8
ATOM      8  C   UNL     1      35.352 -18.758 -22.701  0.00  0.00    +0.012 C 
BRANCH   8   9
ATOM      9  C   UNL     1      34.712 -18.478 -24.058  0.00  0.00    +0.114 C 
BRANCH   9  12
ATOM     10  O   UNL     1      34.753 -16.973 -25.867  0.00  0.00    -0.246 OA
ATOM     11  O   UNL     1      35.107 -16.151 -23.766  0.00  0.00    -0.246 OA
ATOM     12  C   UNL     1      34.881 -17.059 -24.611  0.00  0.00    +0.365 C 
ENDBRANCH   9  12
ENDBRANCH   8   9
ENDBRANCH   1   8
TORSDOF 6
ENDMDL
MODEL 5
REMARK VINA RESULT:      -4.6      8.497      9.316
REMARK  Name = 517030
REMARK  6 active torsions:
REMARK  status: ('A' for Active; 'I' for Inactive)
REMARK    1  A    between atoms: C_1  and  C_2
REMARK    2  A    between atoms: C_1  and  C_8
REMARK    3  A    between atoms: C_2  and  C_3
REMARK    4  A    between atoms: C_3  and  N_4
REMARK    5  A    between atoms: C_8  and  C_9
REMARK    6  A    between atoms: C_9  and  C_12
REMARK                            x       y       z     vdW  Elec       q    Type
REMARK                         _______ _______ _______ _____ _____    ______ ____
ROOT
ATOM      1  C   UNL     1      38.290 -25.407 -12.768  0.00  0.00    -0.002 C 
ENDROOT
BRANCH   1   2
ATOM      2  C   UNL     1      38.020 -25.242 -14.268  0.00  0.00    -0.024 C 
BRANCH   2   3
ATOM      3  C   UNL     1      36.996 -26.232 -14.812  0.00  0.00    -0.086 C 
BRANCH   3   4
ATOM      4  N   UNL     1      35.619 -25.723 -14.612  0.00  0.00    +0.380 N 
ATOM      5  H   UNL     1      35.130 -26.320 -13.944  0.00  0.00    -0.089 HD
ATOM      6  H   UNL     1      35.121 -25.730 -15.502  0.00  0.00    -0.089 HD
ATOM      7  H   UNL     1      35.658 -24.770 -14.251  0.00  0.00    -0.089 HD
ENDBRANCH   3   4
ENDBRANCH   2   3
ENDBRANCH   1   2
BRANCH   1   8
ATOM      8  C   UNL     1      38.232 -24.057 -12.046  0.00  0.00    +0.012 C 
BRANCH   8   9
ATOM      9  C   UNL     1      36.812 -23.504 -11.967  0.00  0.00    +0.114 C 
BRANCH   9  12
ATOM     10  O   UNL     1      34.904 -24.855 -11.695  0.00  0.00    -0.246 OA
ATOM     11  O   UNL     1      36.068 -24.237  -9.829  0.00  0.00    -0.246 OA
ATOM     12  C   UNL     1      35.832 -24.267 -11.068  0.00  0.00    +0.365 C 
ENDBRANCH   9  12
ENDBRANCH   8   9
ENDBRANCH   1   8
TORSDOF 6
ENDMDL
MODEL 6
REMARK VINA RESULT:      -4.6      2.135      2.587
REMARK  Name = 517030
REMARK  6 active torsions:
REMARK  status: ('A' for Active; 'I' for Inactive)
REMARK    1  A    between atoms: C_1  and  C_2
REMARK    2  A    between atoms: C_1  and  C_8
REMARK    3  A    between atoms: C_2  and  C_3
REMARK    4  A    between atoms: C_3  and  N_4
REMARK    5  A    between atoms: C_8  and  C_9
REMARK    6  A    between atoms: C_9  and  C_12
REMARK                            x       y       z     vdW  Elec       q    Type
REMARK                         _______ _______ _______ _____ _____    ______ ____
ROOT
ATOM      1  C   UNL     1      34.192 -19.118 -21.557  0.00  0.00    -0.002 C 
ENDROOT
BRANCH   1   2
ATOM      2  C   UNL     1      35.383 -18.734 -22.442  0.00  0.00    -0.024 C 
BRANCH   2   3
ATOM      3  C   UNL     1      34.989 -18.391 -23.874  0.00  0.00    -0.086 C 
BRANCH   3   4
ATOM      4  N   UNL     1      35.367 -16.996 -24.201  0.00  0.00    +0.380 N 
ATOM      5  H   UNL     1      35.814 -16.971 -25.118  0.00  0.00    -0.089 HD
ATOM      6  H   UNL     1      36.018 -16.646 -23.497  0.00  0.00    -0.089 HD
ATOM      7  H   UNL     1      34.532 -16.411 -24.213  0.00  0.00    -0.089 HD
ENDBRANCH   3   4
ENDBRANCH   2   3
ENDBRANCH   1   2
BRANCH   1   8
ATOM      8  C   UNL     1      34.574 -20.226 -20.570  0.00  0.00    +0.012 C 
BRANCH   8   9
ATOM      9  C   UNL     1      33.351 -20.861 -19.914  0.00  0.00    +0.114 C 
BRANCH   9  12
ATOM     10  O   UNL     1      32.628 -22.483 -18.368  0.00  0.00    -0.246 OA
ATOM     11  O   UNL     1      34.717 -22.699 -19.267  0.00  0.00    -0.246 OA
ATOM     12  C   UNL     1      33.599 -22.138 -19.102  0.00  0.00    +0.365 C 
ENDBRANCH   9  12
ENDBRANCH   8   9
ENDBRANCH   1   8
TORSDOF 6
ENDMDL
MODEL 7
REMARK VINA RESULT:      -4.6      5.227      6.514
REMARK  Name = 517030
REMARK  6 active torsions:
REMARK  status: ('A' for Active; 'I' for Inactive)
REMARK    1  A    between atoms: C_1  and  C_2
REMARK    2  A    between atoms: C_1  and  C_8
REMARK    3  A    between atoms: C_2  and  C_3
REMARK    4  A    between atoms: C_3  and  N_4
REMARK    5  A    between atoms: C_8  and  C_9
REMARK    6  A    between atoms: C_9  and  C_12
REMARK                            x       y       z     vdW  Elec       q    Type
REMARK                         _______ _______ _______ _____ _____    ______ ____
ROOT
ATOM      1  C   UNL     1      34.849 -19.128 -23.657  0.00  0.00    -0.002 C 
ENDROOT
BRANCH   1   2
ATOM      2  C   UNL     1      35.672 -18.143 -22.818  0.00  0.00    -0.024 C 
BRANCH   2   3
ATOM      3  C   UNL     1      34.964 -17.694 -21.545  0.00  0.00    -0.086 C 
BRANCH   3   4
ATOM      4  N   UNL     1      34.831 -16.218 -21.513  0.00  0.00    +0.380 N 
ATOM      5  H   UNL     1      34.557 -15.922 -20.576  0.00  0.00    -0.089 HD
ATOM      6  H   UNL     1      34.120 -15.926 -22.184  0.00  0.00    -0.089 HD
ATOM      7  H   UNL     1      35.725 -15.791 -21.757  0.00  0.00    -0.089 HD
ENDBRANCH   3   4
ENDBRANCH   2   3
ENDBRANCH   1   2
BRANCH   1   8
ATOM      8  C   UNL     1      34.308 -18.455 -24.923  0.00  0.00    +0.012 C 
BRANCH   8   9
ATOM      9  C   UNL     1      34.879 -17.054 -25.122  0.00  0.00    +0.114 C 
BRANCH   9  12
ATOM     10  O   UNL     1      33.513 -15.371 -24.202  0.00  0.00    -0.246 OA
ATOM     11  O   UNL     1      33.502 -15.657 -26.468  0.00  0.00    -0.246 OA
ATOM     12  C   UNL     1      33.861 -15.920 -25.288  0.00  0.00    +0.365 C 
ENDBRANCH   9  12
ENDBRANCH   8   9
ENDBRANCH   1   8
TORSDOF 6
ENDMDL
MODEL 8
REMARK VINA RESULT:      -4.6      5.983      7.092
REMARK  Name = 517030
REMARK  6 active torsions:
REMARK  status: ('A' for Active; 'I' for Inactive)
REMARK    1  A    between atoms: C_1  and  C_2
REMARK    2  A    between atoms: C_1  and  C_8
REMARK    3  A    between atoms: C_2  and  C_3
REMARK    4  A    between atoms: C_3  and  N_4
REMARK    5  A    between atoms: C_8  and  C_9
REMARK    6  A    between atoms: C_9  and  C_12
REMARK                            x       y       z     vdW  Elec       q    Type
REMARK                         _______ _______ _______ _____ _____    ______ ____
ROOT
ATOM      1  C   UNL     1      31.168 -23.677 -15.805  0.00  0.00    -0.002 C 
ENDROOT
BRANCH   1   2
ATOM      2  C   UNL     1      31.780 -22.822 -16.921  0.00  0.00    -0.024 C 
BRANCH   2   3
ATOM      3  C   UNL     1      33.181 -23.266 -17.326  0.00  0.00    -0.086 C 
BRANCH   3   4
ATOM      4  N   UNL     1      33.457 -22.904 -18.735  0.00  0.00    +0.380 N 
ATOM      5  H   UNL     1      33.872 -23.703 -19.216  0.00  0.00    -0.089 HD
ATOM      6  H   UNL     1      34.105 -22.117 -18.764  0.00  0.00    -0.089 HD
ATOM      7  H   UNL     1      32.585 -22.645 -19.197  0.00  0.00    -0.089 HD
ENDBRANCH   3   4
ENDBRANCH   2   3
ENDBRANCH   1   2
BRANCH   1   8
ATOM      8  C   UNL     1      29.978 -22.963 -15.155  0.00  0.00    +0.012 C 
BRANCH   8   9
ATOM      9  C   UNL     1      28.641 -23.562 -15.582  0.00  0.00    +0.114 C 
BRANCH   9  12
ATOM     10  O   UNL     1      27.641 -23.900 -17.687  0.00  0.00    -0.246 OA
ATOM     11  O   UNL     1      27.970 -21.754 -16.976  0.00  0.00    -0.246 OA
ATOM     12  C   UNL     1      28.030 -23.010 -16.875  0.00  0.00    +0.365 C 
ENDBRANCH   9  12
ENDBRANCH   8   9
ENDBRANCH   1   8
TORSDOF 6
ENDMDL
MODEL 9
REMARK VINA RESULT:      -4.5      4.257      4.959
REMARK  Name = 517030
REMARK  6 active torsions:
REMARK  status: ('A' for Active; 'I' for Inactive)
REMARK    1  A    between atoms: C_1  and  C_2
REMARK    2  A    between atoms: C_1  and  C_8
REMARK    3  A    between atoms: C_2  and  C_3
REMARK    4  A    between atoms: C_3  and  N_4
REMARK    5  A    between atoms: C_8  and  C_9
REMARK    6  A    between atoms: C_9  and  C_12
REMARK                            x       y       z     vdW  Elec       q    Type
REMARK                         _______ _______ _______ _____ _____    ______ ____
ROOT
ATOM      1  C   UNL     1      34.605 -19.405 -22.518  0.00  0.00    -0.002 C 
ENDROOT
BRANCH   1   2
ATOM      2  C   UNL     1      35.475 -18.630 -23.515  0.00  0.00    -0.024 C 
BRANCH   2   3
ATOM      3  C   UNL     1      34.691 -18.066 -24.693  0.00  0.00    -0.086 C 
BRANCH   3   4
ATOM      4  N   UNL     1      35.048 -16.647 -24.928  0.00  0.00    +0.380 N 
ATOM      5  H   UNL     1      35.161 -16.172 -24.031  0.00  0.00    -0.089 HD
ATOM      6  H   UNL     1      34.307 -16.193 -25.462  0.00  0.00    -0.089 HD
ATOM      7  H   UNL     1      35.922 -16.599 -25.451  0.00  0.00    -0.089 HD
ENDBRANCH   3   4
ENDBRANCH   2   3
ENDBRANCH   1   2
BRANCH   1   8
ATOM      8  C   UNL     1      34.185 -18.514 -21.345  0.00  0.00    +0.012 C 
BRANCH   8   9
ATOM      9  C   UNL     1      35.164 -17.366 -21.111  0.00  0.00    +0.114 C 
BRANCH   9  12
ATOM     10  O   UNL     1      34.894 -15.206 -20.215  0.00  0.00    -0.246 OA
ATOM     11  O   UNL     1      33.890 -15.684 -22.211  0.00  0.00    -0.246 OA
ATOM     12  C   UNL     1      34.584 -15.949 -21.191  0.00  0.00    +0.365 C 
ENDBRANCH   9  12
ENDBRANCH   8   9
ENDBRANCH   1   8
TORSDOF 6
ENDMDL
