MODEL 1
REMARK VINA RESULT:      -8.3      0.000      0.000
REMARK  Name = 444008
REMARK  2 active torsions:
REMARK  status: ('A' for Active; 'I' for Inactive)
REMARK    1  A    between atoms: C_6  and  O_21
REMARK    2  A    between atoms: C_6  and  C_23
REMARK                            x       y       z     vdW  Elec       q    Type
REMARK                         _______ _______ _______ _____ _____    ______ ____
ROOT
ATOM      1  O   UNL     1      33.608 -23.360 -15.025  0.00  0.00    -0.296 OA
ATOM      2  C   UNL     1      35.643 -19.509 -21.450  0.00  0.00    +0.004 C 
ATOM      3  C   UNL     1      34.418 -18.595 -21.701  0.00  0.00    +0.033 C 
ATOM      4  C   UNL     1      35.608 -20.167 -20.067  0.00  0.00    +0.004 C 
ATOM      5  C   UNL     1      34.339 -21.069 -19.985  0.00  0.00    +0.018 C 
ATOM      6  C   UNL     1      34.788 -18.018 -23.104  0.00  0.00    +0.142 C 
ATOM      7  C   UNL     1      33.143 -19.457 -21.606  0.00  0.00    +0.004 C 
ATOM      8  C   UNL     1      36.830 -18.623 -21.819  0.00  0.00    +0.004 C 
ATOM      9  C   UNL     1      33.064 -20.232 -20.274  0.00  0.00    +0.004 C 
ATOM     10  C   UNL     1      36.877 -20.951 -19.683  0.00  0.00    +0.004 C 
ATOM     11  C   UNL     1      36.312 -17.742 -22.977  0.00  0.00    +0.039 C 
ATOM     12  C   UNL     1      34.288 -21.866 -18.683  0.00  0.00    -0.052 C 
ATOM     13  C   UNL     1      34.284 -17.429 -20.677  0.00  0.00    +0.003 C 
ATOM     14  C   UNL     1      36.724 -21.427 -18.226  0.00  0.00    +0.022 C 
ATOM     15  C   UNL     1      35.367 -22.002 -17.880  0.00  0.00    -0.045 C 
ATOM     16  C   UNL     1      37.204 -22.125 -20.614  0.00  0.00    +0.000 C 
ATOM     17  C   UNL     1      32.972 -22.541 -18.354  0.00  0.00    +0.029 C 
ATOM     18  C   UNL     1      35.338 -22.731 -16.559  0.00  0.00    +0.086 C 
ATOM     19  C   UNL     1      33.084 -23.668 -17.339  0.00  0.00    +0.069 C 
ATOM     20  C   UNL     1      33.958 -23.228 -16.196  0.00  0.00    +0.155 C 
ENDROOT
BRANCH   6  21
ATOM     21  O   UNL     1      34.077 -16.828 -23.413  0.00  0.00    -0.375 OA
ATOM     22  H   UNL     1      34.640 -16.243 -23.945  0.00  0.00    +0.211 HD
ENDBRANCH   6  21
BRANCH   6  23
ATOM     23  C   UNL     1      34.546 -18.967 -24.208  0.00  0.00    -0.053 C 
ATOM     24  C   UNL     1      34.349 -19.739 -25.106  0.00  0.00    -0.012 C 
ENDBRANCH   6  23
TORSDOF 2
ENDMDL
MODEL 2
REMARK VINA RESULT:      -7.3      1.990      7.572
REMARK  Name = 444008
REMARK  2 active torsions:
REMARK  status: ('A' for Active; 'I' for Inactive)
REMARK    1  A    between atoms: C_6  and  O_21
REMARK    2  A    between atoms: C_6  and  C_23
REMARK                            x       y       z     vdW  Elec       q    Type
REMARK                         _______ _______ _______ _____ _____    ______ ____
ROOT
ATOM      1  O   UNL     1      35.730 -17.838 -21.566  0.00  0.00    -0.296 OA
ATOM      2  C   UNL     1      34.847 -23.647 -16.494  0.00  0.00    +0.004 C 
ATOM      3  C   UNL     1      35.798 -23.240 -15.341  0.00  0.00    +0.033 C 
ATOM      4  C   UNL     1      34.624 -22.511 -17.498  0.00  0.00    +0.004 C 
ATOM      5  C   UNL     1      35.997 -22.149 -18.142  0.00  0.00    +0.018 C 
ATOM      6  C   UNL     1      35.744 -24.533 -14.469  0.00  0.00    +0.142 C 
ATOM      7  C   UNL     1      37.161 -22.855 -15.951  0.00  0.00    +0.004 C 
ATOM      8  C   UNL     1      33.643 -24.242 -15.770  0.00  0.00    +0.004 C 
ATOM      9  C   UNL     1      37.026 -21.773 -17.042  0.00  0.00    +0.004 C 
ATOM     10  C   UNL     1      33.557 -22.788 -18.574  0.00  0.00    +0.004 C 
ATOM     11  C   UNL     1      34.240 -24.926 -14.520  0.00  0.00    +0.039 C 
ATOM     12  C   UNL     1      35.851 -21.108 -19.251  0.00  0.00    -0.052 C 
ATOM     13  C   UNL     1      35.288 -22.027 -14.507  0.00  0.00    +0.003 C 
ATOM     14  C   UNL     1      33.370 -21.505 -19.405  0.00  0.00    +0.022 C 
ATOM     15  C   UNL     1      34.653 -20.805 -19.800  0.00  0.00    -0.045 C 
ATOM     16  C   UNL     1      33.863 -23.990 -19.476  0.00  0.00    +0.000 C 
ATOM     17  C   UNL     1      37.128 -20.460 -19.742  0.00  0.00    +0.029 C 
ATOM     18  C   UNL     1      34.463 -19.743 -20.853  0.00  0.00    +0.086 C 
ATOM     19  C   UNL     1      37.011 -19.806 -21.110  0.00  0.00    +0.069 C 
ATOM     20  C   UNL     1      35.741 -19.003 -21.175  0.00  0.00    +0.155 C 
ENDROOT
BRANCH   6  21
ATOM     21  O   UNL     1      36.170 -24.313 -13.132  0.00  0.00    -0.375 OA
ATOM     22  H   UNL     1      35.496 -24.648 -12.519  0.00  0.00    +0.211 HD
ENDBRANCH   6  21
BRANCH   6  23
ATOM     23  C   UNL     1      36.563 -25.636 -15.009  0.00  0.00    -0.053 C 
ATOM     24  C   UNL     1      37.229 -26.534 -15.448  0.00  0.00    -0.012 C 
ENDBRANCH   6  23
TORSDOF 2
ENDMDL
MODEL 3
REMARK VINA RESULT:      -7.1      5.896      8.160
REMARK  Name = 444008
REMARK  2 active torsions:
REMARK  status: ('A' for Active; 'I' for Inactive)
REMARK    1  A    between atoms: C_6  and  O_21
REMARK    2  A    between atoms: C_6  and  C_23
REMARK                            x       y       z     vdW  Elec       q    Type
REMARK                         _______ _______ _______ _____ _____    ______ ____
ROOT
ATOM      1  O   UNL     1      27.342 -21.505 -16.761  0.00  0.00    -0.296 OA
ATOM      2  C   UNL     1      34.257 -24.026 -14.296  0.00  0.00    +0.004 C 
ATOM      3  C   UNL     1      35.209 -23.573 -15.431  0.00  0.00    +0.033 C 
ATOM      4  C   UNL     1      32.867 -23.392 -14.410  0.00  0.00    +0.004 C 
ATOM      5  C   UNL     1      32.227 -23.852 -15.755  0.00  0.00    +0.018 C 
ATOM      6  C   UNL     1      36.524 -24.289 -14.991  0.00  0.00    +0.142 C 
ATOM      7  C   UNL     1      34.591 -23.996 -16.779  0.00  0.00    +0.004 C 
ATOM      8  C   UNL     1      35.076 -23.792 -13.030  0.00  0.00    +0.004 C 
ATOM      9  C   UNL     1      33.148 -23.474 -16.947  0.00  0.00    +0.004 C 
ATOM     10  C   UNL     1      31.925 -23.662 -13.222  0.00  0.00    +0.004 C 
ATOM     11  C   UNL     1      36.534 -24.085 -13.450  0.00  0.00    +0.039 C 
ATOM     12  C   UNL     1      30.785 -23.368 -15.897  0.00  0.00    -0.052 C 
ATOM     13  C   UNL     1      35.444 -22.033 -15.475  0.00  0.00    +0.003 C 
ATOM     14  C   UNL     1      30.635 -22.849 -13.438  0.00  0.00    +0.022 C 
ATOM     15  C   UNL     1      30.080 -22.892 -14.846  0.00  0.00    -0.045 C 
ATOM     16  C   UNL     1      31.609 -25.144 -12.987  0.00  0.00    +0.000 C 
ATOM     17  C   UNL     1      30.163 -23.491 -17.272  0.00  0.00    +0.029 C 
ATOM     18  C   UNL     1      28.676 -22.352 -14.959  0.00  0.00    +0.086 C 
ATOM     19  C   UNL     1      28.642 -23.446 -17.276  0.00  0.00    +0.069 C 
ATOM     20  C   UNL     1      28.171 -22.330 -16.384  0.00  0.00    +0.155 C 
ENDROOT
BRANCH   6  21
ATOM     21  O   UNL     1      37.683 -23.726 -15.588  0.00  0.00    -0.375 OA
ATOM     22  H   UNL     1      38.398 -23.685 -14.932  0.00  0.00    +0.211 HD
ENDBRANCH   6  21
BRANCH   6  23
ATOM     23  C   UNL     1      36.534 -25.732 -15.300  0.00  0.00    -0.053 C 
ATOM     24  C   UNL     1      36.542 -26.907 -15.551  0.00  0.00    -0.012 C 
ENDBRANCH   6  23
TORSDOF 2
ENDMDL
MODEL 4
REMARK VINA RESULT:      -7.1      5.421      8.712
REMARK  Name = 444008
REMARK  2 active torsions:
REMARK  status: ('A' for Active; 'I' for Inactive)
REMARK    1  A    between atoms: C_6  and  O_21
REMARK    2  A    between atoms: C_6  and  C_23
REMARK                            x       y       z     vdW  Elec       q    Type
REMARK                         _______ _______ _______ _____ _____    ______ ____
ROOT
ATOM      1  O   UNL     1      29.339 -23.425 -16.396  0.00  0.00    -0.296 OA
ATOM      2  C   UNL     1      36.877 -24.174 -14.701  0.00  0.00    +0.004 C 
ATOM      3  C   UNL     1      36.871 -25.259 -13.595  0.00  0.00    +0.033 C 
ATOM      4  C   UNL     1      35.524 -24.052 -15.408  0.00  0.00    +0.004 C 
ATOM      5  C   UNL     1      34.456 -23.627 -14.355  0.00  0.00    +0.018 C 
ATOM      6  C   UNL     1      38.366 -25.207 -13.150  0.00  0.00    +0.142 C 
ATOM      7  C   UNL     1      35.807 -24.876 -12.547  0.00  0.00    +0.004 C 
ATOM      8  C   UNL     1      38.116 -24.513 -15.525  0.00  0.00    +0.004 C 
ATOM      9  C   UNL     1      34.420 -24.645 -13.183  0.00  0.00    +0.004 C 
ATOM     10  C   UNL     1      35.506 -23.116 -16.631  0.00  0.00    +0.004 C 
ATOM     11  C   UNL     1      39.128 -25.066 -14.497  0.00  0.00    +0.039 C 
ATOM     12  C   UNL     1      33.096 -23.359 -14.997  0.00  0.00    -0.052 C 
ATOM     13  C   UNL     1      36.534 -26.687 -14.119  0.00  0.00    +0.003 C 
ATOM     14  C   UNL     1      34.119 -23.216 -17.293  0.00  0.00    +0.022 C 
ATOM     15  C   UNL     1      32.949 -23.198 -16.331  0.00  0.00    -0.045 C 
ATOM     16  C   UNL     1      35.864 -21.658 -16.319  0.00  0.00    +0.000 C 
ATOM     17  C   UNL     1      31.917 -23.233 -14.055  0.00  0.00    +0.029 C 
ATOM     18  C   UNL     1      31.616 -22.990 -17.005  0.00  0.00    +0.086 C 
ATOM     19  C   UNL     1      30.710 -22.526 -14.654  0.00  0.00    +0.069 C 
ATOM     20  C   UNL     1      30.456 -23.055 -16.038  0.00  0.00    +0.155 C 
ENDROOT
BRANCH   6  21
ATOM     21  O   UNL     1      38.773 -26.375 -12.452  0.00  0.00    -0.375 OA
ATOM     22  H   UNL     1      38.903 -26.164 -11.514  0.00  0.00    +0.211 HD
ENDBRANCH   6  21
BRANCH   6  23
ATOM     23  C   UNL     1      38.676 -24.054 -12.282  0.00  0.00    -0.053 C 
ATOM     24  C   UNL     1      38.929 -23.115 -11.576  0.00  0.00    -0.012 C 
ENDBRANCH   6  23
TORSDOF 2
ENDMDL
MODEL 5
REMARK VINA RESULT:      -6.8      3.535      8.340
REMARK  Name = 444008
REMARK  2 active torsions:
REMARK  status: ('A' for Active; 'I' for Inactive)
REMARK    1  A    between atoms: C_6  and  O_21
REMARK    2  A    between atoms: C_6  and  C_23
REMARK                            x       y       z     vdW  Elec       q    Type
REMARK                         _______ _______ _______ _____ _____    ______ ____
ROOT
ATOM      1  O   UNL     1      33.706 -12.325 -27.802  0.00  0.00    -0.296 OA
ATOM      2  C   UNL     1      34.599 -17.179 -21.811  0.00  0.00    +0.004 C 
ATOM      3  C   UNL     1      35.242 -18.423 -22.474  0.00  0.00    +0.033 C 
ATOM      4  C   UNL     1      34.586 -15.962 -22.741  0.00  0.00    +0.004 C 
ATOM      5  C   UNL     1      33.726 -16.309 -23.993  0.00  0.00    +0.018 C 
ATOM      6  C   UNL     1      35.194 -19.428 -21.280  0.00  0.00    +0.142 C 
ATOM      7  C   UNL     1      34.422 -18.779 -23.731  0.00  0.00    +0.004 C 
ATOM      8  C   UNL     1      35.319 -17.079 -20.469  0.00  0.00    +0.004 C 
ATOM      9  C   UNL     1      34.280 -17.581 -24.692  0.00  0.00    +0.004 C 
ATOM     10  C   UNL     1      34.120 -14.646 -22.090  0.00  0.00    +0.004 C 
ATOM     11  C   UNL     1      35.593 -18.544 -20.065  0.00  0.00    +0.039 C 
ATOM     12  C   UNL     1      33.553 -15.107 -24.920  0.00  0.00    -0.052 C 
ATOM     13  C   UNL     1      36.721 -18.207 -22.913  0.00  0.00    +0.003 C 
ATOM     14  C   UNL     1      34.297 -13.513 -23.119  0.00  0.00    +0.022 C 
ATOM     15  C   UNL     1      33.837 -13.847 -24.523  0.00  0.00    -0.045 C 
ATOM     16  C   UNL     1      32.686 -14.679 -21.548  0.00  0.00    +0.000 C 
ATOM     17  C   UNL     1      32.999 -15.391 -26.300  0.00  0.00    +0.029 C 
ATOM     18  C   UNL     1      33.735 -12.643 -25.427  0.00  0.00    +0.086 C 
ATOM     19  C   UNL     1      32.416 -14.174 -27.003  0.00  0.00    +0.069 C 
ATOM     20  C   UNL     1      33.352 -13.008 -26.843  0.00  0.00    +0.155 C 
ENDROOT
BRANCH   6  21
ATOM     21  O   UNL     1      36.094 -20.515 -21.440  0.00  0.00    -0.375 OA
ATOM     22  H   UNL     1      35.732 -21.142 -22.086  0.00  0.00    +0.211 HD
ENDBRANCH   6  21
BRANCH   6  23
ATOM     23  C   UNL     1      33.853 -20.004 -21.056  0.00  0.00    -0.053 C 
ATOM     24  C   UNL     1      32.763 -20.472 -20.872  0.00  0.00    -0.012 C 
ENDBRANCH   6  23
TORSDOF 2
ENDMDL
MODEL 6
REMARK VINA RESULT:      -6.5     13.487     16.686
REMARK  Name = 444008
REMARK  2 active torsions:
REMARK  status: ('A' for Active; 'I' for Inactive)
REMARK    1  A    between atoms: C_6  and  O_21
REMARK    2  A    between atoms: C_6  and  C_23
REMARK                            x       y       z     vdW  Elec       q    Type
REMARK                         _______ _______ _______ _____ _____    ______ ____
ROOT
ATOM      1  O   UNL     1      31.199  -9.687 -22.286  0.00  0.00    -0.296 OA
ATOM      2  C   UNL     1      33.187  -3.669 -26.768  0.00  0.00    +0.004 C 
ATOM      3  C   UNL     1      34.098  -4.326 -27.836  0.00  0.00    +0.033 C 
ATOM      4  C   UNL     1      32.431  -4.703 -25.928  0.00  0.00    +0.004 C 
ATOM      5  C   UNL     1      33.475  -5.574 -25.166  0.00  0.00    +0.018 C 
ATOM      6  C   UNL     1      34.633  -3.052 -28.563  0.00  0.00    +0.142 C 
ATOM      7  C   UNL     1      35.130  -5.212 -27.111  0.00  0.00    +0.004 C 
ATOM      8  C   UNL     1      32.393  -2.637 -27.564  0.00  0.00    +0.004 C 
ATOM      9  C   UNL     1      34.461  -6.234 -26.168  0.00  0.00    +0.004 C 
ATOM     10  C   UNL     1      31.379  -4.121 -24.965  0.00  0.00    +0.004 C 
ATOM     11  C   UNL     1      33.373  -2.145 -28.651  0.00  0.00    +0.039 C 
ATOM     12  C   UNL     1      32.808  -6.554 -24.203  0.00  0.00    -0.052 C 
ATOM     13  C   UNL     1      33.328  -5.221 -28.852  0.00  0.00    +0.003 C 
ATOM     14  C   UNL     1      30.630  -5.295 -24.307  0.00  0.00    +0.022 C 
ATOM     15  C   UNL     1      31.512  -6.434 -23.838  0.00  0.00    -0.045 C 
ATOM     16  C   UNL     1      31.947  -3.167 -23.907  0.00  0.00    +0.000 C 
ATOM     17  C   UNL     1      33.687  -7.648 -23.634  0.00  0.00    +0.029 C 
ATOM     18  C   UNL     1      30.804  -7.414 -22.936  0.00  0.00    +0.086 C 
ATOM     19  C   UNL     1      33.142  -8.294 -22.369  0.00  0.00    +0.069 C 
ATOM     20  C   UNL     1      31.677  -8.585 -22.545  0.00  0.00    +0.155 C 
ENDROOT
BRANCH   6  21
ATOM     21  O   UNL     1      35.152  -3.334 -29.854  0.00  0.00    -0.375 OA
ATOM     22  H   UNL     1      34.464  -3.177 -30.521  0.00  0.00    +0.211 HD
ENDBRANCH   6  21
BRANCH   6  23
ATOM     23  C   UNL     1      35.695  -2.354 -27.811  0.00  0.00    -0.053 C 
ATOM     24  C   UNL     1      36.559  -1.786 -27.201  0.00  0.00    -0.012 C 
ENDBRANCH   6  23
TORSDOF 2
ENDMDL
MODEL 7
REMARK VINA RESULT:      -6.5      2.409      7.711
REMARK  Name = 444008
REMARK  2 active torsions:
REMARK  status: ('A' for Active; 'I' for Inactive)
REMARK    1  A    between atoms: C_6  and  O_21
REMARK    2  A    between atoms: C_6  and  C_23
REMARK                            x       y       z     vdW  Elec       q    Type
REMARK                         _______ _______ _______ _____ _____    ______ ____
ROOT
ATOM      1  O   UNL     1      33.733 -18.741 -21.270  0.00  0.00    -0.296 OA
ATOM      2  C   UNL     1      35.547 -23.897 -15.758  0.00  0.00    +0.004 C 
ATOM      3  C   UNL     1      36.734 -23.216 -15.032  0.00  0.00    +0.033 C 
ATOM      4  C   UNL     1      34.821 -22.944 -16.713  0.00  0.00    +0.004 C 
ATOM      5  C   UNL     1      35.828 -22.487 -17.811  0.00  0.00    +0.018 C 
ATOM      6  C   UNL     1      37.188 -24.378 -14.094  0.00  0.00    +0.142 C 
ATOM      7  C   UNL     1      37.740 -22.734 -16.097  0.00  0.00    +0.004 C 
ATOM      8  C   UNL     1      34.763 -24.549 -14.623  0.00  0.00    +0.004 C 
ATOM      9  C   UNL     1      37.076 -21.833 -17.159  0.00  0.00    +0.004 C 
ATOM     10  C   UNL     1      33.528 -23.503 -17.337  0.00  0.00    +0.004 C 
ATOM     11  C   UNL     1      35.840 -24.974 -13.600  0.00  0.00    +0.039 C 
ATOM     12  C   UNL     1      35.156 -21.631 -18.883  0.00  0.00    -0.052 C 
ATOM     13  C   UNL     1      36.321 -21.984 -14.173  0.00  0.00    +0.003 C 
ATOM     14  C   UNL     1      32.865 -22.378 -18.153  0.00  0.00    +0.022 C 
ATOM     15  C   UNL     1      33.812 -21.568 -19.015  0.00  0.00    -0.045 C 
ATOM     16  C   UNL     1      33.729 -24.760 -18.192  0.00  0.00    +0.000 C 
ATOM     17  C   UNL     1      36.075 -20.886 -19.828  0.00  0.00    +0.029 C 
ATOM     18  C   UNL     1      33.112 -20.690 -20.021  0.00  0.00    +0.086 C 
ATOM     19  C   UNL     1      35.412 -20.439 -21.122  0.00  0.00    +0.069 C 
ATOM     20  C   UNL     1      34.071 -19.832 -20.815  0.00  0.00    +0.155 C 
ENDROOT
BRANCH   6  21
ATOM     21  O   UNL     1      37.978 -23.928 -13.003  0.00  0.00    -0.375 OA
ATOM     22  H   UNL     1      38.616 -23.268 -13.317  0.00  0.00    +0.211 HD
ENDBRANCH   6  21
BRANCH   6  23
ATOM     23  C   UNL     1      37.965 -25.421 -14.792  0.00  0.00    -0.053 C 
ATOM     24  C   UNL     1      38.597 -26.270 -15.360  0.00  0.00    -0.012 C 
ENDBRANCH   6  23
TORSDOF 2
ENDMDL
MODEL 8
REMARK VINA RESULT:      -6.3      3.560      8.494
REMARK  Name = 444008
REMARK  2 active torsions:
REMARK  status: ('A' for Active; 'I' for Inactive)
REMARK    1  A    between atoms: C_6  and  O_21
REMARK    2  A    between atoms: C_6  and  C_23
REMARK                            x       y       z     vdW  Elec       q    Type
REMARK                         _______ _______ _______ _____ _____    ______ ____
ROOT
ATOM      1  O   UNL     1      32.681 -22.030 -20.676  0.00  0.00    -0.296 OA
ATOM      2  C   UNL     1      37.067 -23.980 -14.575  0.00  0.00    +0.004 C 
ATOM      3  C   UNL     1      36.359 -25.250 -14.039  0.00  0.00    +0.033 C 
ATOM      4  C   UNL     1      36.554 -23.564 -15.958  0.00  0.00    +0.004 C 
ATOM      5  C   UNL     1      35.037 -23.227 -15.839  0.00  0.00    +0.018 C 
ATOM      6  C   UNL     1      37.145 -25.462 -12.708  0.00  0.00    +0.142 C 
ATOM      7  C   UNL     1      34.850 -24.953 -13.930  0.00  0.00    +0.004 C 
ATOM      8  C   UNL     1      38.549 -24.297 -14.398  0.00  0.00    +0.004 C 
ATOM      9  C   UNL     1      34.259 -24.441 -15.260  0.00  0.00    +0.004 C 
ATOM     10  C   UNL     1      37.331 -22.414 -16.625  0.00  0.00    +0.004 C 
ATOM     11  C   UNL     1      38.613 -25.154 -13.115  0.00  0.00    +0.039 C 
ATOM     12  C   UNL     1      34.468 -22.681 -17.147  0.00  0.00    -0.052 C 
ATOM     13  C   UNL     1      36.536 -26.499 -14.953  0.00  0.00    +0.003 C 
ATOM     14  C   UNL     1      36.774 -22.219 -18.047  0.00  0.00    +0.022 C 
ATOM     15  C   UNL     1      35.263 -22.249 -18.151  0.00  0.00    -0.045 C 
ATOM     16  C   UNL     1      37.312 -21.096 -15.841  0.00  0.00    +0.000 C 
ATOM     17  C   UNL     1      32.959 -22.601 -17.247  0.00  0.00    +0.029 C 
ATOM     18  C   UNL     1      34.739 -21.758 -19.478  0.00  0.00    +0.086 C 
ATOM     19  C   UNL     1      32.453 -21.654 -18.324  0.00  0.00    +0.069 C 
ATOM     20  C   UNL     1      33.235 -21.871 -19.590  0.00  0.00    +0.155 C 
ENDROOT
BRANCH   6  21
ATOM     21  O   UNL     1      37.022 -26.783 -12.201  0.00  0.00    -0.375 OA
ATOM     22  H   UNL     1      37.605 -27.377 -12.700  0.00  0.00    +0.211 HD
ENDBRANCH   6  21
BRANCH   6  23
ATOM     23  C   UNL     1      36.727 -24.543 -11.630  0.00  0.00    -0.053 C 
ATOM     24  C   UNL     1      36.386 -23.795 -10.755  0.00  0.00    -0.012 C 
ENDBRANCH   6  23
TORSDOF 2
ENDMDL
