MODEL 1
REMARK VINA RESULT:      -6.9      0.000      0.000
REMARK  Name = 447805
REMARK  9 active torsions:
REMARK  status: ('A' for Active; 'I' for Inactive)
REMARK    1  A    between atoms: C_1  and  C_3
REMARK    2  A    between atoms: C_1  and  C_6
REMARK    3  A    between atoms: C_1  and  C_13
REMARK    4  A    between atoms: C_3  and  O_4
REMARK    5  A    between atoms: C_6  and  O_7
REMARK    6  A    between atoms: C_6  and  C_10
REMARK    7  A    between atoms: C_10  and  O_11
REMARK    8  A    between atoms: C_13  and  C_15
REMARK    9  A    between atoms: C_15  and  O_16
REMARK                            x       y       z     vdW  Elec       q    Type
REMARK                         _______ _______ _______ _____ _____    ______ ____
ROOT
ATOM      1  C   UNL     1      38.094 -24.690 -13.375  0.00  0.00    +0.148 C 
ENDROOT
BRANCH   1   3
ATOM      2  O   UNL     1      38.717 -23.066 -11.661  0.00  0.00    -0.250 OA
ATOM      3  C   UNL     1      38.078 -24.053 -11.996  0.00  0.00    +0.317 C 
BRANCH   3   4
ATOM      4  O   UNL     1      37.226 -24.713 -11.170  0.00  0.00    -0.480 OA
ATOM      5  H   UNL     1      36.941 -24.311 -10.374  0.00  0.00    +0.295 HD
ENDBRANCH   3   4
ENDBRANCH   1   3
BRANCH   1   6
ATOM      6  C   UNL     1      36.773 -25.460 -13.575  0.00  0.00    +0.221 C 
BRANCH   6   7
ATOM      7  O   UNL     1      36.860 -26.751 -12.993  0.00  0.00    -0.374 OA
ATOM      8  H   UNL     1      37.265 -27.365 -13.626  0.00  0.00    +0.211 HD
ENDBRANCH   6   7
BRANCH   6  10
ATOM      9  O   UNL     1      36.041 -26.655 -15.562  0.00  0.00    -0.248 OA
ATOM     10  C   UNL     1      36.413 -25.612 -15.041  0.00  0.00    +0.342 C 
BRANCH  10  11
ATOM     11  O   UNL     1      36.579 -24.458 -15.737  0.00  0.00    -0.479 OA
ATOM     12  H   UNL     1      36.928 -24.481 -16.606  0.00  0.00    +0.295 HD
ENDBRANCH  10  11
ENDBRANCH   6  10
ENDBRANCH   1   6
BRANCH   1  13
ATOM     13  C   UNL     1      39.372 -25.527 -13.531  0.00  0.00    +0.123 C 
BRANCH  13  15
ATOM     14  O   UNL     1      40.894 -26.092 -15.319  0.00  0.00    -0.250 OA
ATOM     15  C   UNL     1      40.027 -25.348 -14.877  0.00  0.00    +0.314 C 
BRANCH  15  16
ATOM     16  O   UNL     1      39.550 -24.274 -15.554  0.00  0.00    -0.480 OA
ATOM     17  H   UNL     1      39.999 -23.964 -16.315  0.00  0.00    +0.295 HD
ENDBRANCH  15  16
ENDBRANCH  13  15
ENDBRANCH   1  13
TORSDOF 9
ENDMDL
MODEL 2
REMARK VINA RESULT:      -6.6      1.150      3.100
REMARK  Name = 447805
REMARK  9 active torsions:
REMARK  status: ('A' for Active; 'I' for Inactive)
REMARK    1  A    between atoms: C_1  and  C_3
REMARK    2  A    between atoms: C_1  and  C_6
REMARK    3  A    between atoms: C_1  and  C_13
REMARK    4  A    between atoms: C_3  and  O_4
REMARK    5  A    between atoms: C_6  and  O_7
REMARK    6  A    between atoms: C_6  and  C_10
REMARK    7  A    between atoms: C_10  and  O_11
REMARK    8  A    between atoms: C_13  and  C_15
REMARK    9  A    between atoms: C_15  and  O_16
REMARK                            x       y       z     vdW  Elec       q    Type
REMARK                         _______ _______ _______ _____ _____    ______ ____
ROOT
ATOM      1  C   UNL     1      37.982 -25.863 -13.769  0.00  0.00    +0.148 C 
ENDROOT
BRANCH   1   3
ATOM      2  O   UNL     1      36.409 -24.926 -15.385  0.00  0.00    -0.250 OA
ATOM      3  C   UNL     1      36.826 -25.887 -14.754  0.00  0.00    +0.317 C 
BRANCH   3   4
ATOM      4  O   UNL     1      36.319 -27.141 -14.872  0.00  0.00    -0.480 OA
ATOM      5  H   UNL     1      35.639 -27.428 -14.296  0.00  0.00    +0.295 HD
ENDBRANCH   3   4
ENDBRANCH   1   3
BRANCH   1   6
ATOM      6  C   UNL     1      37.460 -25.346 -12.414  0.00  0.00    +0.221 C 
BRANCH   6   7
ATOM      7  O   UNL     1      36.071 -25.609 -12.285  0.00  0.00    -0.374 OA
ATOM      8  H   UNL     1      35.565 -24.860 -12.640  0.00  0.00    +0.211 HD
ENDBRANCH   6   7
BRANCH   6  10
ATOM      9  O   UNL     1      38.611 -23.361 -11.607  0.00  0.00    -0.248 OA
ATOM     10  C   UNL     1      37.688 -23.856 -12.241  0.00  0.00    +0.342 C 
BRANCH  10  11
ATOM     11  O   UNL     1      36.729 -23.112 -12.850  0.00  0.00    -0.479 OA
ATOM     12  H   UNL     1      36.256 -22.468 -12.362  0.00  0.00    +0.295 HD
ENDBRANCH  10  11
ENDBRANCH   6  10
ENDBRANCH   1   6
BRANCH   1  13
ATOM     13  C   UNL     1      39.145 -25.063 -14.374  0.00  0.00    +0.123 C 
BRANCH  13  15
ATOM     14  O   UNL     1      41.013 -26.532 -13.943  0.00  0.00    -0.250 OA
ATOM     15  C   UNL     1      40.317 -25.932 -14.753  0.00  0.00    +0.314 C 
BRANCH  15  16
ATOM     16  O   UNL     1      40.519 -25.984 -16.093  0.00  0.00    -0.480 OA
ATOM     17  H   UNL     1      40.235 -26.732 -16.581  0.00  0.00    +0.295 HD
ENDBRANCH  15  16
ENDBRANCH  13  15
ENDBRANCH   1  13
TORSDOF 9
ENDMDL
MODEL 3
REMARK VINA RESULT:      -6.4      1.351      3.692
REMARK  Name = 447805
REMARK  9 active torsions:
REMARK  status: ('A' for Active; 'I' for Inactive)
REMARK    1  A    between atoms: C_1  and  C_3
REMARK    2  A    between atoms: C_1  and  C_6
REMARK    3  A    between atoms: C_1  and  C_13
REMARK    4  A    between atoms: C_3  and  O_4
REMARK    5  A    between atoms: C_6  and  O_7
REMARK    6  A    between atoms: C_6  and  C_10
REMARK    7  A    between atoms: C_10  and  O_11
REMARK    8  A    between atoms: C_13  and  C_15
REMARK    9  A    between atoms: C_15  and  O_16
REMARK                            x       y       z     vdW  Elec       q    Type
REMARK                         _______ _______ _______ _____ _____    ______ ____
ROOT
ATOM      1  C   UNL     1      38.584 -25.388 -14.228  0.00  0.00    +0.148 C 
ENDROOT
BRANCH   1   3
ATOM      2  O   UNL     1      40.925 -24.701 -14.128  0.00  0.00    -0.250 OA
ATOM      3  C   UNL     1      40.015 -25.261 -14.722  0.00  0.00    +0.317 C 
BRANCH   3   4
ATOM      4  O   UNL     1      40.170 -25.883 -15.919  0.00  0.00    -0.480 OA
ATOM      5  H   UNL     1      40.352 -25.381 -16.688  0.00  0.00    +0.295 HD
ENDBRANCH   3   4
ENDBRANCH   1   3
BRANCH   1   6
ATOM      6  C   UNL     1      38.548 -25.022 -12.731  0.00  0.00    +0.221 C 
BRANCH   6   7
ATOM      7  O   UNL     1      37.846 -26.013 -11.996  0.00  0.00    -0.374 OA
ATOM      8  H   UNL     1      38.450 -26.437 -11.366  0.00  0.00    +0.211 HD
ENDBRANCH   6   7
BRANCH   6  10
ATOM      9  O   UNL     1      38.282 -22.847 -11.676  0.00  0.00    -0.248 OA
ATOM     10  C   UNL     1      37.889 -23.678 -12.485  0.00  0.00    +0.342 C 
BRANCH  10  11
ATOM     11  O   UNL     1      36.780 -23.499 -13.247  0.00  0.00    -0.479 OA
ATOM     12  H   UNL     1      36.356 -24.237 -13.638  0.00  0.00    +0.295 HD
ENDBRANCH  10  11
ENDBRANCH   6  10
ENDBRANCH   1   6
BRANCH   1  13
ATOM     13  C   UNL     1      38.052 -26.787 -14.576  0.00  0.00    +0.123 C 
BRANCH  13  15
ATOM     14  O   UNL     1      36.559 -27.367 -16.383  0.00  0.00    -0.250 OA
ATOM     15  C   UNL     1      36.758 -26.744 -15.348  0.00  0.00    +0.314 C 
BRANCH  15  16
ATOM     16  O   UNL     1      35.829 -25.941 -14.771  0.00  0.00    -0.480 OA
ATOM     17  H   UNL     1      36.056 -25.066 -14.523  0.00  0.00    +0.295 HD
ENDBRANCH  15  16
ENDBRANCH  13  15
ENDBRANCH   1  13
TORSDOF 9
ENDMDL
MODEL 4
REMARK VINA RESULT:      -6.4      1.498      3.646
REMARK  Name = 447805
REMARK  9 active torsions:
REMARK  status: ('A' for Active; 'I' for Inactive)
REMARK    1  A    between atoms: C_1  and  C_3
REMARK    2  A    between atoms: C_1  and  C_6
REMARK    3  A    between atoms: C_1  and  C_13
REMARK    4  A    between atoms: C_3  and  O_4
REMARK    5  A    between atoms: C_6  and  O_7
REMARK    6  A    between atoms: C_6  and  C_10
REMARK    7  A    between atoms: C_10  and  O_11
REMARK    8  A    between atoms: C_13  and  C_15
REMARK    9  A    between atoms: C_15  and  O_16
REMARK                            x       y       z     vdW  Elec       q    Type
REMARK                         _______ _______ _______ _____ _____    ______ ____
ROOT
ATOM      1  C   UNL     1      37.317 -24.405 -13.947  0.00  0.00    +0.148 C 
ENDROOT
BRANCH   1   3
ATOM      2  O   UNL     1      36.432 -23.467 -16.021  0.00  0.00    -0.250 OA
ATOM      3  C   UNL     1      37.390 -23.810 -15.343  0.00  0.00    +0.317 C 
BRANCH   3   4
ATOM      4  O   UNL     1      38.681 -23.676 -15.743  0.00  0.00    -0.480 OA
ATOM      5  H   UNL     1      39.112 -24.384 -16.179  0.00  0.00    +0.295 HD
ENDBRANCH   3   4
ENDBRANCH   1   3
BRANCH   1   6
ATOM      6  C   UNL     1      36.645 -25.790 -14.040  0.00  0.00    +0.221 C 
BRANCH   6   7
ATOM      7  O   UNL     1      36.676 -26.441 -12.779  0.00  0.00    -0.374 OA
ATOM      8  H   UNL     1      35.791 -26.780 -12.568  0.00  0.00    +0.211 HD
ENDBRANCH   6   7
BRANCH   6  10
ATOM      9  O   UNL     1      36.744 -27.210 -16.012  0.00  0.00    -0.248 OA
ATOM     10  C   UNL     1      37.315 -26.686 -15.065  0.00  0.00    +0.342 C 
BRANCH  10  11
ATOM     11  O   UNL     1      38.634 -26.875 -14.802  0.00  0.00    -0.479 OA
ATOM     12  H   UNL     1      39.086 -26.289 -14.226  0.00  0.00    +0.295 HD
ENDBRANCH  10  11
ENDBRANCH   6  10
ENDBRANCH   1   6
BRANCH   1  13
ATOM     13  C   UNL     1      36.632 -23.404 -13.006  0.00  0.00    +0.123 C 
BRANCH  13  15
ATOM     14  O   UNL     1      36.809 -23.967 -10.664  0.00  0.00    -0.250 OA
ATOM     15  C   UNL     1      37.258 -23.370 -11.634  0.00  0.00    +0.314 C 
BRANCH  15  16
ATOM     16  O   UNL     1      38.378 -22.607 -11.588  0.00  0.00    -0.480 OA
ATOM     17  H   UNL     1      39.219 -23.002 -11.711  0.00  0.00    +0.295 HD
ENDBRANCH  15  16
ENDBRANCH  13  15
ENDBRANCH   1  13
TORSDOF 9
ENDMDL
MODEL 5
REMARK VINA RESULT:      -6.4      1.322      2.092
REMARK  Name = 447805
REMARK  9 active torsions:
REMARK  status: ('A' for Active; 'I' for Inactive)
REMARK    1  A    between atoms: C_1  and  C_3
REMARK    2  A    between atoms: C_1  and  C_6
REMARK    3  A    between atoms: C_1  and  C_13
REMARK    4  A    between atoms: C_3  and  O_4
REMARK    5  A    between atoms: C_6  and  O_7
REMARK    6  A    between atoms: C_6  and  C_10
REMARK    7  A    between atoms: C_10  and  O_11
REMARK    8  A    between atoms: C_13  and  C_15
REMARK    9  A    between atoms: C_15  and  O_16
REMARK                            x       y       z     vdW  Elec       q    Type
REMARK                         _______ _______ _______ _____ _____    ______ ____
ROOT
ATOM      1  C   UNL     1      37.967 -24.971 -13.819  0.00  0.00    +0.148 C 
ENDROOT
BRANCH   1   3
ATOM      2  O   UNL     1      37.802 -24.872 -11.385  0.00  0.00    -0.250 OA
ATOM      3  C   UNL     1      37.535 -25.432 -12.438  0.00  0.00    +0.317 C 
BRANCH   3   4
ATOM      4  O   UNL     1      36.774 -26.554 -12.520  0.00  0.00    -0.480 OA
ATOM      5  H   UNL     1      37.000 -27.311 -12.017  0.00  0.00    +0.295 HD
ENDBRANCH   3   4
ENDBRANCH   1   3
BRANCH   1   6
ATOM      6  C   UNL     1      36.707 -24.611 -14.632  0.00  0.00    +0.221 C 
BRANCH   6   7
ATOM      7  O   UNL     1      36.278 -25.725 -15.400  0.00  0.00    -0.374 OA
ATOM      8  H   UNL     1      36.440 -25.551 -16.341  0.00  0.00    +0.211 HD
ENDBRANCH   6   7
BRANCH   6  10
ATOM      9  O   UNL     1      37.909 -22.691 -15.517  0.00  0.00    -0.248 OA
ATOM     10  C   UNL     1      36.942 -23.440 -15.567  0.00  0.00    +0.342 C 
BRANCH  10  11
ATOM     11  O   UNL     1      35.934 -23.284 -16.464  0.00  0.00    -0.479 OA
ATOM     12  H   UNL     1      35.122 -23.735 -16.339  0.00  0.00    +0.295 HD
ENDBRANCH  10  11
ENDBRANCH   6  10
ENDBRANCH   1   6
BRANCH   1  13
ATOM     13  C   UNL     1      38.872 -26.040 -14.449  0.00  0.00    +0.123 C 
BRANCH  13  15
ATOM     14  O   UNL     1      40.851 -24.663 -14.307  0.00  0.00    -0.250 OA
ATOM     15  C   UNL     1      40.187 -25.481 -14.931  0.00  0.00    +0.314 C 
BRANCH  15  16
ATOM     16  O   UNL     1      40.561 -25.984 -16.133  0.00  0.00    -0.480 OA
ATOM     17  H   UNL     1      39.960 -26.501 -16.633  0.00  0.00    +0.295 HD
ENDBRANCH  15  16
ENDBRANCH  13  15
ENDBRANCH   1  13
TORSDOF 9
ENDMDL
MODEL 6
REMARK VINA RESULT:      -6.2      1.375      4.048
REMARK  Name = 447805
REMARK  9 active torsions:
REMARK  status: ('A' for Active; 'I' for Inactive)
REMARK    1  A    between atoms: C_1  and  C_3
REMARK    2  A    between atoms: C_1  and  C_6
REMARK    3  A    between atoms: C_1  and  C_13
REMARK    4  A    between atoms: C_3  and  O_4
REMARK    5  A    between atoms: C_6  and  O_7
REMARK    6  A    between atoms: C_6  and  C_10
REMARK    7  A    between atoms: C_10  and  O_11
REMARK    8  A    between atoms: C_13  and  C_15
REMARK    9  A    between atoms: C_15  and  O_16
REMARK                            x       y       z     vdW  Elec       q    Type
REMARK                         _______ _______ _______ _____ _____    ______ ____
ROOT
ATOM      1  C   UNL     1      38.161 -24.452 -14.199  0.00  0.00    +0.148 C 
ENDROOT
BRANCH   1   3
ATOM      2  O   UNL     1      36.317 -23.863 -15.688  0.00  0.00    -0.250 OA
ATOM      3  C   UNL     1      37.501 -23.782 -15.391  0.00  0.00    +0.317 C 
BRANCH   3   4
ATOM      4  O   UNL     1      38.401 -23.042 -16.089  0.00  0.00    -0.480 OA
ATOM      5  H   UNL     1      39.311 -23.083 -15.870  0.00  0.00    +0.295 HD
ENDBRANCH   3   4
ENDBRANCH   1   3
BRANCH   1   6
ATOM      6  C   UNL     1      38.776 -25.786 -14.665  0.00  0.00    +0.221 C 
BRANCH   6   7
ATOM      7  O   UNL     1      38.262 -26.863 -13.896  0.00  0.00    -0.374 OA
ATOM      8  H   UNL     1      38.171 -26.586 -12.971  0.00  0.00    +0.211 HD
ENDBRANCH   6   7
BRANCH   6  10
ATOM      9  O   UNL     1      40.985 -26.798 -14.554  0.00  0.00    -0.248 OA
ATOM     10  C   UNL     1      40.289 -25.791 -14.554  0.00  0.00    +0.342 C 
BRANCH  10  11
ATOM     11  O   UNL     1      40.802 -24.540 -14.423  0.00  0.00    -0.479 OA
ATOM     12  H   UNL     1      41.636 -24.334 -14.796  0.00  0.00    +0.295 HD
ENDBRANCH  10  11
ENDBRANCH   6  10
ENDBRANCH   1   6
BRANCH   1  13
ATOM     13  C   UNL     1      37.144 -24.561 -13.053  0.00  0.00    +0.123 C 
BRANCH  13  15
ATOM     14  O   UNL     1      38.609 -23.184 -11.715  0.00  0.00    -0.250 OA
ATOM     15  C   UNL     1      37.625 -23.911 -11.781  0.00  0.00    +0.314 C 
BRANCH  15  16
ATOM     16  O   UNL     1      36.848 -24.212 -10.712  0.00  0.00    -0.480 OA
ATOM     17  H   UNL     1      36.157 -23.633 -10.456  0.00  0.00    +0.295 HD
ENDBRANCH  15  16
ENDBRANCH  13  15
ENDBRANCH   1  13
TORSDOF 9
ENDMDL
MODEL 7
REMARK VINA RESULT:      -6.1      1.368      3.941
REMARK  Name = 447805
REMARK  9 active torsions:
REMARK  status: ('A' for Active; 'I' for Inactive)
REMARK    1  A    between atoms: C_1  and  C_3
REMARK    2  A    between atoms: C_1  and  C_6
REMARK    3  A    between atoms: C_1  and  C_13
REMARK    4  A    between atoms: C_3  and  O_4
REMARK    5  A    between atoms: C_6  and  O_7
REMARK    6  A    between atoms: C_6  and  C_10
REMARK    7  A    between atoms: C_10  and  O_11
REMARK    8  A    between atoms: C_13  and  C_15
REMARK    9  A    between atoms: C_15  and  O_16
REMARK                            x       y       z     vdW  Elec       q    Type
REMARK                         _______ _______ _______ _____ _____    ______ ____
ROOT
ATOM      1  C   UNL     1      37.814 -24.869 -13.928  0.00  0.00    +0.148 C 
ENDROOT
BRANCH   1   3
ATOM      2  O   UNL     1      35.993 -25.448 -15.450  0.00  0.00    -0.250 OA
ATOM      3  C   UNL     1      36.374 -25.144 -14.328  0.00  0.00    +0.317 C 
BRANCH   3   4
ATOM      4  O   UNL     1      35.547 -25.035 -13.257  0.00  0.00    -0.480 OA
ATOM      5  H   UNL     1      34.794 -25.589 -13.188  0.00  0.00    +0.295 HD
ENDBRANCH   3   4
ENDBRANCH   1   3
BRANCH   1   6
ATOM      6  C   UNL     1      38.735 -25.793 -14.749  0.00  0.00    +0.221 C 
BRANCH   6   7
ATOM      7  O   UNL     1      38.319 -27.145 -14.625  0.00  0.00    -0.374 OA
ATOM      8  H   UNL     1      37.352 -27.180 -14.545  0.00  0.00    +0.211 HD
ENDBRANCH   6   7
BRANCH   6  10
ATOM      9  O   UNL     1      40.731 -24.659 -13.946  0.00  0.00    -0.248 OA
ATOM     10  C   UNL     1      40.185 -25.690 -14.315  0.00  0.00    +0.342 C 
BRANCH  10  11
ATOM     11  O   UNL     1      40.838 -26.878 -14.408  0.00  0.00    -0.479 OA
ATOM     12  H   UNL     1      41.772 -26.905 -14.341  0.00  0.00    +0.295 HD
ENDBRANCH  10  11
ENDBRANCH   6  10
ENDBRANCH   1   6
BRANCH   1  13
ATOM     13  C   UNL     1      37.947 -24.995 -12.403  0.00  0.00    +0.123 C 
BRANCH  13  15
ATOM     14  O   UNL     1      37.020 -23.077 -11.265  0.00  0.00    -0.250 OA
ATOM     15  C   UNL     1      38.003 -23.658 -11.710  0.00  0.00    +0.314 C 
BRANCH  15  16
ATOM     16  O   UNL     1      39.263 -23.163 -11.626  0.00  0.00    -0.480 OA
ATOM     17  H   UNL     1      39.686 -22.827 -12.391  0.00  0.00    +0.295 HD
ENDBRANCH  15  16
ENDBRANCH  13  15
ENDBRANCH   1  13
TORSDOF 9
ENDMDL
MODEL 8
REMARK VINA RESULT:      -6.1      1.702      3.360
REMARK  Name = 447805
REMARK  9 active torsions:
REMARK  status: ('A' for Active; 'I' for Inactive)
REMARK    1  A    between atoms: C_1  and  C_3
REMARK    2  A    between atoms: C_1  and  C_6
REMARK    3  A    between atoms: C_1  and  C_13
REMARK    4  A    between atoms: C_3  and  O_4
REMARK    5  A    between atoms: C_6  and  O_7
REMARK    6  A    between atoms: C_6  and  C_10
REMARK    7  A    between atoms: C_10  and  O_11
REMARK    8  A    between atoms: C_13  and  C_15
REMARK    9  A    between atoms: C_15  and  O_16
REMARK                            x       y       z     vdW  Elec       q    Type
REMARK                         _______ _______ _______ _____ _____    ______ ____
ROOT
ATOM      1  C   UNL     1      37.048 -24.812 -13.419  0.00  0.00    +0.148 C 
ENDROOT
BRANCH   1   3
ATOM      2  O   UNL     1      37.642 -22.758 -14.597  0.00  0.00    -0.250 OA
ATOM      3  C   UNL     1      37.143 -23.874 -14.610  0.00  0.00    +0.317 C 
BRANCH   3   4
ATOM      4  O   UNL     1      36.619 -24.451 -15.722  0.00  0.00    -0.480 OA
ATOM      5  H   UNL     1      36.960 -25.267 -16.031  0.00  0.00    +0.295 HD
ENDBRANCH   3   4
ENDBRANCH   1   3
BRANCH   1   6
ATOM      6  C   UNL     1      36.001 -24.252 -12.437  0.00  0.00    +0.221 C 
BRANCH   6   7
ATOM      7  O   UNL     1      35.160 -23.314 -13.090  0.00  0.00    -0.374 OA
ATOM      8  H   UNL     1      34.647 -23.764 -13.780  0.00  0.00    +0.211 HD
ENDBRANCH   6   7
BRANCH   6  10
ATOM      9  O   UNL     1      36.590 -23.998 -10.090  0.00  0.00    -0.248 OA
ATOM     10  C   UNL     1      36.641 -23.577 -11.238  0.00  0.00    +0.342 C 
BRANCH  10  11
ATOM     11  O   UNL     1      37.265 -22.417 -11.571  0.00  0.00    -0.479 OA
ATOM     12  H   UNL     1      38.036 -22.436 -12.102  0.00  0.00    +0.295 HD
ENDBRANCH  10  11
ENDBRANCH   6  10
ENDBRANCH   1   6
BRANCH   1  13
ATOM     13  C   UNL     1      38.451 -25.028 -12.832  0.00  0.00    +0.123 C 
BRANCH  13  15
ATOM     14  O   UNL     1      39.214 -26.641 -14.459  0.00  0.00    -0.250 OA
ATOM     15  C   UNL     1      39.419 -25.610 -13.830  0.00  0.00    +0.314 C 
BRANCH  15  16
ATOM     16  O   UNL     1      40.545 -24.867 -13.963  0.00  0.00    -0.480 OA
ATOM     17  H   UNL     1      40.880 -24.672 -14.816  0.00  0.00    +0.295 HD
ENDBRANCH  15  16
ENDBRANCH  13  15
ENDBRANCH   1  13
TORSDOF 9
ENDMDL
MODEL 9
REMARK VINA RESULT:      -6.0      1.562      4.105
REMARK  Name = 447805
REMARK  9 active torsions:
REMARK  status: ('A' for Active; 'I' for Inactive)
REMARK    1  A    between atoms: C_1  and  C_3
REMARK    2  A    between atoms: C_1  and  C_6
REMARK    3  A    between atoms: C_1  and  C_13
REMARK    4  A    between atoms: C_3  and  O_4
REMARK    5  A    between atoms: C_6  and  O_7
REMARK    6  A    between atoms: C_6  and  C_10
REMARK    7  A    between atoms: C_10  and  O_11
REMARK    8  A    between atoms: C_13  and  C_15
REMARK    9  A    between atoms: C_15  and  O_16
REMARK                            x       y       z     vdW  Elec       q    Type
REMARK                         _______ _______ _______ _____ _____    ______ ____
ROOT
ATOM      1  C   UNL     1      37.831 -25.350 -14.893  0.00  0.00    +0.148 C 
ENDROOT
BRANCH   1   3
ATOM      2  O   UNL     1      36.748 -27.227 -16.019  0.00  0.00    -0.250 OA
ATOM      3  C   UNL     1      37.078 -26.666 -14.983  0.00  0.00    +0.317 C 
BRANCH   3   4
ATOM      4  O   UNL     1      36.834 -27.168 -13.746  0.00  0.00    -0.480 OA
ATOM      5  H   UNL     1      36.125 -26.832 -13.234  0.00  0.00    +0.295 HD
ENDBRANCH   3   4
ENDBRANCH   1   3
BRANCH   1   6
ATOM      6  C   UNL     1      38.883 -25.464 -13.772  0.00  0.00    +0.221 C 
BRANCH   6   7
ATOM      7  O   UNL     1      38.856 -24.309 -12.947  0.00  0.00    -0.374 OA
ATOM      8  H   UNL     1      37.943 -23.989 -12.868  0.00  0.00    +0.211 HD
ENDBRANCH   6   7
BRANCH   6  10
ATOM      9  O   UNL     1      41.058 -24.715 -14.563  0.00  0.00    -0.248 OA
ATOM     10  C   UNL     1      40.288 -25.635 -14.320  0.00  0.00    +0.342 C 
BRANCH  10  11
ATOM     11  O   UNL     1      40.600 -26.938 -14.545  0.00  0.00    -0.479 OA
ATOM     12  H   UNL     1      40.853 -27.489 -13.830  0.00  0.00    +0.295 HD
ENDBRANCH  10  11
ENDBRANCH   6  10
ENDBRANCH   1   6
BRANCH   1  13
ATOM     13  C   UNL     1      36.824 -24.201 -14.734  0.00  0.00    +0.123 C 
BRANCH  13  15
ATOM     14  O   UNL     1      37.986 -22.453 -15.929  0.00  0.00    -0.250 OA
ATOM     15  C   UNL     1      36.980 -23.138 -15.791  0.00  0.00    +0.314 C 
BRANCH  15  16
ATOM     16  O   UNL     1      35.884 -23.020 -16.582  0.00  0.00    -0.480 OA
ATOM     17  H   UNL     1      35.027 -23.082 -16.207  0.00  0.00    +0.295 HD
ENDBRANCH  15  16
ENDBRANCH  13  15
ENDBRANCH   1  13
TORSDOF 9
ENDMDL
