MODEL 1
REMARK VINA RESULT:      -9.2      0.000      0.000
REMARK  Name = 58185197
REMARK  17 active torsions:
REMARK  status: ('A' for Active; 'I' for Inactive)
REMARK    1  A    between atoms: C_1  and  C_8
REMARK    2  A    between atoms: C_2  and  C_23
REMARK    3  A    between atoms: C_7  and  C_9
REMARK    4  A    between atoms: C_9  and  O_10
REMARK    5  A    between atoms: C_9  and  C_12
REMARK    6  A    between atoms: C_12  and  O_13
REMARK    7  A    between atoms: C_12  and  C_15
REMARK    8  A    between atoms: C_15  and  C_16
REMARK    9  A    between atoms: C_16  and  C_17
REMARK   10  A    between atoms: C_17  and  C_19
REMARK   11  A    between atoms: C_19  and  O_20
REMARK   12  A    between atoms: C_22  and  C_24
REMARK   13  A    between atoms: C_24  and  O_25
REMARK   14  A    between atoms: C_24  and  C_27
REMARK   15  A    between atoms: C_27  and  C_28
REMARK   16  A    between atoms: C_28  and  C_29
REMARK   17  A    between atoms: C_29  and  C_30
REMARK                            x       y       z     vdW  Elec       q    Type
REMARK                         _______ _______ _______ _____ _____    ______ ____
ROOT
ATOM      1  C   UNL     1      33.736 -23.706 -14.726  0.00  0.00    -0.000 C 
ATOM      2  C   UNL     1      33.840 -23.269 -16.047  0.00  0.00    -0.000 C 
ATOM      3  C   UNL     1      32.499 -24.104 -14.217  0.00  0.00    -0.000 C 
ATOM      4  C   UNL     1      32.707 -23.230 -16.859  0.00  0.00    -0.000 C 
ATOM      5  C   UNL     1      31.367 -24.065 -15.030  0.00  0.00    -0.000 C 
ATOM      6  C   UNL     1      31.470 -23.628 -16.350  0.00  0.00    -0.000 C 
ENDROOT
BRANCH   1   8
ATOM      7  C   UNL     1      34.842 -23.936 -12.500  0.00  0.00    +0.005 C 
ATOM      8  C   UNL     1      34.905 -23.765 -13.831  0.00  0.00    -0.002 C 
BRANCH   7   9
ATOM      9  C   UNL     1      36.016 -23.990 -11.553  0.00  0.00    +0.159 C 
BRANCH   9  10
ATOM     10  O   UNL     1      35.917 -25.115 -10.678  0.00  0.00    -0.378 OA
ATOM     11  H   UNL     1      36.790 -25.526 -10.578  0.00  0.00    +0.211 HD
ENDBRANCH   9  10
BRANCH   9  12
ATOM     12  C   UNL     1      37.381 -24.052 -12.266  0.00  0.00    +0.141 C 
BRANCH  12  13
ATOM     13  O   UNL     1      38.297 -23.178 -11.598  0.00  0.00    -0.382 OA
ATOM     14  H   UNL     1      37.909 -22.292 -11.531  0.00  0.00    +0.210 HD
ENDBRANCH  12  13
BRANCH  12  15
ATOM     15  C   UNL     1      38.039 -25.436 -12.338  0.00  0.00    +0.033 C 
BRANCH  15  16
ATOM     16  C   UNL     1      37.964 -26.081 -13.723  0.00  0.00    +0.014 C 
BRANCH  16  17
ATOM     17  C   UNL     1      38.547 -25.183 -14.816  0.00  0.00    +0.109 C 
BRANCH  17  19
ATOM     18  O   UNL     1      40.867 -24.832 -14.161  0.00  0.00    -0.250 OA
ATOM     19  C   UNL     1      40.050 -25.297 -14.943  0.00  0.00    +0.314 C 
BRANCH  19  20
ATOM     20  O   UNL     1      40.403 -25.973 -16.067  0.00  0.00    -0.480 OA
ATOM     21  H   UNL     1      40.213 -25.613 -16.910  0.00  0.00    +0.295 HD
ENDBRANCH  19  20
ENDBRANCH  17  19
ENDBRANCH  16  17
ENDBRANCH  15  16
ENDBRANCH  12  15
ENDBRANCH   9  12
ENDBRANCH   7   9
ENDBRANCH   1   8
BRANCH   2  23
ATOM     22  C   UNL     1      35.261 -22.077 -17.721  0.00  0.00    +0.003 C 
ATOM     23  C   UNL     1      35.112 -22.844 -16.620  0.00  0.00    -0.002 C 
BRANCH  22  24
ATOM     24  C   UNL     1      36.596 -21.673 -18.283  0.00  0.00    +0.132 C 
BRANCH  24  25
ATOM     25  O   UNL     1      37.221 -20.819 -17.329  0.00  0.00    -0.380 OA
ATOM     26  H   UNL     1      38.064 -21.210 -17.048  0.00  0.00    +0.211 HD
ENDBRANCH  24  25
BRANCH  24  27
ATOM     27  C   UNL     1      36.419 -20.934 -19.617  0.00  0.00    +0.034 C 
BRANCH  27  28
ATOM     28  C   UNL     1      34.968 -20.818 -20.102  0.00  0.00    +0.003 C 
BRANCH  28  29
ATOM     29  C   UNL     1      34.684 -19.684 -21.091  0.00  0.00    +0.000 C 
BRANCH  29  30
ATOM     30  C   UNL     1      35.856 -18.717 -21.263  0.00  0.00    +0.000 C 
ATOM     31  C   UNL     1      35.864 -18.097 -22.651  0.00  0.00    +0.000 C 
ENDBRANCH  29  30
ENDBRANCH  28  29
ENDBRANCH  27  28
ENDBRANCH  24  27
ENDBRANCH  22  24
ENDBRANCH   2  23
TORSDOF 17
ENDMDL
MODEL 2
REMARK VINA RESULT:      -9.1      1.606      2.054
REMARK  Name = 58185197
REMARK  17 active torsions:
REMARK  status: ('A' for Active; 'I' for Inactive)
REMARK    1  A    between atoms: C_1  and  C_8
REMARK    2  A    between atoms: C_2  and  C_23
REMARK    3  A    between atoms: C_7  and  C_9
REMARK    4  A    between atoms: C_9  and  O_10
REMARK    5  A    between atoms: C_9  and  C_12
REMARK    6  A    between atoms: C_12  and  O_13
REMARK    7  A    between atoms: C_12  and  C_15
REMARK    8  A    between atoms: C_15  and  C_16
REMARK    9  A    between atoms: C_16  and  C_17
REMARK   10  A    between atoms: C_17  and  C_19
REMARK   11  A    between atoms: C_19  and  O_20
REMARK   12  A    between atoms: C_22  and  C_24
REMARK   13  A    between atoms: C_24  and  O_25
REMARK   14  A    between atoms: C_24  and  C_27
REMARK   15  A    between atoms: C_27  and  C_28
REMARK   16  A    between atoms: C_28  and  C_29
REMARK   17  A    between atoms: C_29  and  C_30
REMARK                            x       y       z     vdW  Elec       q    Type
REMARK                         _______ _______ _______ _____ _____    ______ ____
ROOT
ATOM      1  C   UNL     1      33.281 -23.962 -14.327  0.00  0.00    -0.000 C 
ATOM      2  C   UNL     1      33.396 -23.496 -15.637  0.00  0.00    -0.000 C 
ATOM      3  C   UNL     1      32.028 -24.022 -13.716  0.00  0.00    -0.000 C 
ATOM      4  C   UNL     1      32.260 -23.089 -16.335  0.00  0.00    -0.000 C 
ATOM      5  C   UNL     1      30.892 -23.615 -14.415  0.00  0.00    -0.000 C 
ATOM      6  C   UNL     1      31.007 -23.149 -15.724  0.00  0.00    -0.000 C 
ENDROOT
BRANCH   1   8
ATOM      7  C   UNL     1      34.973 -23.738 -12.507  0.00  0.00    +0.005 C 
ATOM      8  C   UNL     1      34.452 -24.403 -13.552  0.00  0.00    -0.002 C 
BRANCH   7   9
ATOM      9  C   UNL     1      36.177 -24.154 -11.697  0.00  0.00    +0.159 C 
BRANCH   9  10
ATOM     10  O   UNL     1      36.158 -25.558 -11.434  0.00  0.00    -0.378 OA
ATOM     11  H   UNL     1      35.537 -25.993 -12.039  0.00  0.00    +0.211 HD
ENDBRANCH   9  10
BRANCH   9  12
ATOM     12  C   UNL     1      37.521 -23.806 -12.366  0.00  0.00    +0.141 C 
BRANCH  12  13
ATOM     13  O   UNL     1      38.145 -22.744 -11.638  0.00  0.00    -0.382 OA
ATOM     14  H   UNL     1      37.823 -21.892 -11.968  0.00  0.00    +0.210 HD
ENDBRANCH  12  13
BRANCH  12  15
ATOM     15  C   UNL     1      38.537 -24.952 -12.467  0.00  0.00    +0.033 C 
BRANCH  15  16
ATOM     16  C   UNL     1      38.901 -25.326 -13.905  0.00  0.00    +0.014 C 
BRANCH  16  17
ATOM     17  C   UNL     1      37.690 -25.293 -14.839  0.00  0.00    +0.109 C 
BRANCH  17  19
ATOM     18  O   UNL     1      36.794 -27.194 -16.072  0.00  0.00    -0.250 OA
ATOM     19  C   UNL     1      37.029 -26.643 -15.006  0.00  0.00    +0.314 C 
BRANCH  19  20
ATOM     20  O   UNL     1      36.694 -27.183 -13.804  0.00  0.00    -0.480 OA
ATOM     21  H   UNL     1      35.907 -27.683 -13.718  0.00  0.00    +0.295 HD
ENDBRANCH  19  20
ENDBRANCH  17  19
ENDBRANCH  16  17
ENDBRANCH  15  16
ENDBRANCH  12  15
ENDBRANCH   9  12
ENDBRANCH   7   9
ENDBRANCH   1   8
BRANCH   2  23
ATOM     22  C   UNL     1      35.567 -22.399 -16.213  0.00  0.00    +0.003 C 
ATOM     23  C   UNL     1      34.685 -23.417 -16.316  0.00  0.00    -0.002 C 
BRANCH  22  24
ATOM     24  C   UNL     1      36.882 -22.356 -16.943  0.00  0.00    +0.132 C 
BRANCH  24  25
ATOM     25  O   UNL     1      37.874 -21.933 -16.011  0.00  0.00    -0.380 OA
ATOM     26  H   UNL     1      38.428 -21.248 -16.418  0.00  0.00    +0.211 HD
ENDBRANCH  24  25
BRANCH  24  27
ATOM     27  C   UNL     1      36.812 -21.376 -18.122  0.00  0.00    +0.034 C 
BRANCH  27  28
ATOM     28  C   UNL     1      35.699 -21.667 -19.138  0.00  0.00    +0.003 C 
BRANCH  28  29
ATOM     29  C   UNL     1      35.476 -20.596 -20.209  0.00  0.00    +0.000 C 
BRANCH  29  30
ATOM     30  C   UNL     1      34.000 -20.329 -20.506  0.00  0.00    +0.000 C 
ATOM     31  C   UNL     1      33.096 -21.080 -19.540  0.00  0.00    +0.000 C 
ENDBRANCH  29  30
ENDBRANCH  28  29
ENDBRANCH  27  28
ENDBRANCH  24  27
ENDBRANCH  22  24
ENDBRANCH   2  23
TORSDOF 17
ENDMDL
MODEL 3
REMARK VINA RESULT:      -8.9      1.835      3.331
REMARK  Name = 58185197
REMARK  17 active torsions:
REMARK  status: ('A' for Active; 'I' for Inactive)
REMARK    1  A    between atoms: C_1  and  C_8
REMARK    2  A    between atoms: C_2  and  C_23
REMARK    3  A    between atoms: C_7  and  C_9
REMARK    4  A    between atoms: C_9  and  O_10
REMARK    5  A    between atoms: C_9  and  C_12
REMARK    6  A    between atoms: C_12  and  O_13
REMARK    7  A    between atoms: C_12  and  C_15
REMARK    8  A    between atoms: C_15  and  C_16
REMARK    9  A    between atoms: C_16  and  C_17
REMARK   10  A    between atoms: C_17  and  C_19
REMARK   11  A    between atoms: C_19  and  O_20
REMARK   12  A    between atoms: C_22  and  C_24
REMARK   13  A    between atoms: C_24  and  O_25
REMARK   14  A    between atoms: C_24  and  C_27
REMARK   15  A    between atoms: C_27  and  C_28
REMARK   16  A    between atoms: C_28  and  C_29
REMARK   17  A    between atoms: C_29  and  C_30
REMARK                            x       y       z     vdW  Elec       q    Type
REMARK                         _______ _______ _______ _____ _____    ______ ____
ROOT
ATOM      1  C   UNL     1      32.957 -23.798 -15.173  0.00  0.00    -0.000 C 
ATOM      2  C   UNL     1      32.295 -23.320 -16.304  0.00  0.00    -0.000 C 
ATOM      3  C   UNL     1      32.281 -23.893 -13.956  0.00  0.00    -0.000 C 
ATOM      4  C   UNL     1      30.958 -22.935 -16.218  0.00  0.00    -0.000 C 
ATOM      5  C   UNL     1      30.942 -23.508 -13.871  0.00  0.00    -0.000 C 
ATOM      6  C   UNL     1      30.281 -23.029 -15.001  0.00  0.00    -0.000 C 
ENDROOT
BRANCH   1   8
ATOM      7  C   UNL     1      35.411 -23.379 -15.344  0.00  0.00    +0.005 C 
ATOM      8  C   UNL     1      34.369 -24.216 -15.215  0.00  0.00    -0.002 C 
BRANCH   7   9
ATOM      9  C   UNL     1      36.867 -23.773 -15.402  0.00  0.00    +0.159 C 
BRANCH   9  10
ATOM     10  O   UNL     1      37.694 -22.766 -14.815  0.00  0.00    -0.378 OA
ATOM     11  H   UNL     1      37.825 -22.044 -15.449  0.00  0.00    +0.211 HD
ENDBRANCH   9  10
BRANCH   9  12
ATOM     12  C   UNL     1      37.172 -25.114 -14.707  0.00  0.00    +0.141 C 
BRANCH  12  13
ATOM     13  O   UNL     1      37.525 -26.085 -15.697  0.00  0.00    -0.382 OA
ATOM     14  H   UNL     1      36.721 -26.501 -16.043  0.00  0.00    +0.210 HD
ENDBRANCH  12  13
BRANCH  12  15
ATOM     15  C   UNL     1      38.300 -25.091 -13.667  0.00  0.00    +0.033 C 
BRANCH  15  16
ATOM     16  C   UNL     1      37.819 -25.321 -12.232  0.00  0.00    +0.014 C 
BRANCH  16  17
ATOM     17  C   UNL     1      37.156 -24.078 -11.634  0.00  0.00    +0.109 C 
BRANCH  17  19
ATOM     18  O   UNL     1      35.352 -25.132 -10.380  0.00  0.00    -0.250 OA
ATOM     19  C   UNL     1      35.724 -24.312 -11.209  0.00  0.00    +0.314 C 
BRANCH  19  20
ATOM     20  O   UNL     1      34.867 -23.503 -11.885  0.00  0.00    -0.480 OA
ATOM     21  H   UNL     1      34.199 -23.874 -12.426  0.00  0.00    +0.295 HD
ENDBRANCH  19  20
ENDBRANCH  17  19
ENDBRANCH  16  17
ENDBRANCH  15  16
ENDBRANCH  12  15
ENDBRANCH   9  12
ENDBRANCH   7   9
ENDBRANCH   1   8
BRANCH   2  23
ATOM     22  C   UNL     1      33.068 -22.074 -18.328  0.00  0.00    +0.003 C 
ATOM     23  C   UNL     1      32.963 -23.204 -17.596  0.00  0.00    -0.002 C 
BRANCH  22  24
ATOM     24  C   UNL     1      33.757 -22.006 -19.663  0.00  0.00    +0.132 C 
BRANCH  24  25
ATOM     25  O   UNL     1      35.122 -22.361 -19.459  0.00  0.00    -0.380 OA
ATOM     26  H   UNL     1      35.513 -21.772 -18.794  0.00  0.00    +0.211 HD
ENDBRANCH  24  25
BRANCH  24  27
ATOM     27  C   UNL     1      33.661 -20.590 -20.248  0.00  0.00    +0.034 C 
BRANCH  27  28
ATOM     28  C   UNL     1      34.947 -20.078 -20.912  0.00  0.00    +0.003 C 
BRANCH  28  29
ATOM     29  C   UNL     1      34.791 -18.842 -21.803  0.00  0.00    +0.000 C 
BRANCH  29  30
ATOM     30  C   UNL     1      34.811 -19.162 -23.298  0.00  0.00    +0.000 C 
ATOM     31  C   UNL     1      35.125 -17.925 -24.125  0.00  0.00    +0.000 C 
ENDBRANCH  29  30
ENDBRANCH  28  29
ENDBRANCH  27  28
ENDBRANCH  24  27
ENDBRANCH  22  24
ENDBRANCH   2  23
TORSDOF 17
ENDMDL
MODEL 4
REMARK VINA RESULT:      -8.8      2.149      5.137
REMARK  Name = 58185197
REMARK  17 active torsions:
REMARK  status: ('A' for Active; 'I' for Inactive)
REMARK    1  A    between atoms: C_1  and  C_8
REMARK    2  A    between atoms: C_2  and  C_23
REMARK    3  A    between atoms: C_7  and  C_9
REMARK    4  A    between atoms: C_9  and  O_10
REMARK    5  A    between atoms: C_9  and  C_12
REMARK    6  A    between atoms: C_12  and  O_13
REMARK    7  A    between atoms: C_12  and  C_15
REMARK    8  A    between atoms: C_15  and  C_16
REMARK    9  A    between atoms: C_16  and  C_17
REMARK   10  A    between atoms: C_17  and  C_19
REMARK   11  A    between atoms: C_19  and  O_20
REMARK   12  A    between atoms: C_22  and  C_24
REMARK   13  A    between atoms: C_24  and  O_25
REMARK   14  A    between atoms: C_24  and  C_27
REMARK   15  A    between atoms: C_27  and  C_28
REMARK   16  A    between atoms: C_28  and  C_29
REMARK   17  A    between atoms: C_29  and  C_30
REMARK                            x       y       z     vdW  Elec       q    Type
REMARK                         _______ _______ _______ _____ _____    ______ ____
ROOT
ATOM      1  C   UNL     1      35.747 -22.815 -16.486  0.00  0.00    -0.000 C 
ATOM      2  C   UNL     1      34.393 -23.138 -16.578  0.00  0.00    -0.000 C 
ATOM      3  C   UNL     1      36.376 -22.139 -17.533  0.00  0.00    -0.000 C 
ATOM      4  C   UNL     1      33.668 -22.786 -17.715  0.00  0.00    -0.000 C 
ATOM      5  C   UNL     1      35.649 -21.787 -18.670  0.00  0.00    -0.000 C 
ATOM      6  C   UNL     1      34.296 -22.111 -18.762  0.00  0.00    -0.000 C 
ENDROOT
BRANCH   1   8
ATOM      7  C   UNL     1      36.110 -23.129 -14.038  0.00  0.00    +0.005 C 
ATOM      8  C   UNL     1      36.553 -23.166 -15.305  0.00  0.00    -0.002 C 
BRANCH   7   9
ATOM      9  C   UNL     1      36.910 -23.471 -12.804  0.00  0.00    +0.159 C 
BRANCH   9  10
ATOM     10  O   UNL     1      36.811 -22.435 -11.825  0.00  0.00    -0.378 OA
ATOM     11  H   UNL     1      37.312 -22.688 -11.034  0.00  0.00    +0.211 HD
ENDBRANCH   9  10
BRANCH   9  12
ATOM     12  C   UNL     1      36.490 -24.800 -12.146  0.00  0.00    +0.141 C 
BRANCH  12  13
ATOM     13  O   UNL     1      35.139 -25.099 -12.514  0.00  0.00    -0.382 OA
ATOM     14  H   UNL     1      34.606 -24.291 -12.470  0.00  0.00    +0.210 HD
ENDBRANCH  12  13
BRANCH  12  15
ATOM     15  C   UNL     1      37.343 -26.025 -12.502  0.00  0.00    +0.033 C 
BRANCH  15  16
ATOM     16  C   UNL     1      38.749 -25.673 -12.993  0.00  0.00    +0.014 C 
BRANCH  16  17
ATOM     17  C   UNL     1      38.968 -26.058 -14.457  0.00  0.00    +0.109 C 
BRANCH  17  19
ATOM     18  O   UNL     1      41.058 -24.805 -14.441  0.00  0.00    -0.250 OA
ATOM     19  C   UNL     1      40.276 -25.548 -15.019  0.00  0.00    +0.314 C 
BRANCH  19  20
ATOM     20  O   UNL     1      40.484 -26.002 -16.282  0.00  0.00    -0.480 OA
ATOM     21  H   UNL     1      40.939 -26.809 -16.422  0.00  0.00    +0.295 HD
ENDBRANCH  19  20
ENDBRANCH  17  19
ENDBRANCH  16  17
ENDBRANCH  15  16
ENDBRANCH  12  15
ENDBRANCH   9  12
ENDBRANCH   7   9
ENDBRANCH   1   8
BRANCH   2  23
ATOM     22  C   UNL     1      32.559 -23.432 -14.906  0.00  0.00    +0.003 C 
ATOM     23  C   UNL     1      33.695 -23.844 -15.508  0.00  0.00    -0.002 C 
BRANCH  22  24
ATOM     24  C   UNL     1      31.881 -24.189 -13.797  0.00  0.00    +0.132 C 
BRANCH  24  25
ATOM     25  O   UNL     1      32.415 -25.510 -13.792  0.00  0.00    -0.380 OA
ATOM     26  H   UNL     1      32.411 -25.864 -14.696  0.00  0.00    +0.211 HD
ENDBRANCH  24  25
BRANCH  24  27
ATOM     27  C   UNL     1      30.364 -24.233 -14.023  0.00  0.00    +0.034 C 
BRANCH  27  28
ATOM     28  C   UNL     1      29.919 -25.020 -15.264  0.00  0.00    +0.003 C 
BRANCH  28  29
ATOM     29  C   UNL     1      29.047 -24.254 -16.262  0.00  0.00    +0.000 C 
BRANCH  29  30
ATOM     30  C   UNL     1      28.900 -22.768 -15.929  0.00  0.00    +0.000 C 
ATOM     31  C   UNL     1      27.437 -22.367 -15.820  0.00  0.00    +0.000 C 
ENDBRANCH  29  30
ENDBRANCH  28  29
ENDBRANCH  27  28
ENDBRANCH  24  27
ENDBRANCH  22  24
ENDBRANCH   2  23
TORSDOF 17
ENDMDL
MODEL 5
REMARK VINA RESULT:      -8.7      1.589      2.127
REMARK  Name = 58185197
REMARK  17 active torsions:
REMARK  status: ('A' for Active; 'I' for Inactive)
REMARK    1  A    between atoms: C_1  and  C_8
REMARK    2  A    between atoms: C_2  and  C_23
REMARK    3  A    between atoms: C_7  and  C_9
REMARK    4  A    between atoms: C_9  and  O_10
REMARK    5  A    between atoms: C_9  and  C_12
REMARK    6  A    between atoms: C_12  and  O_13
REMARK    7  A    between atoms: C_12  and  C_15
REMARK    8  A    between atoms: C_15  and  C_16
REMARK    9  A    between atoms: C_16  and  C_17
REMARK   10  A    between atoms: C_17  and  C_19
REMARK   11  A    between atoms: C_19  and  O_20
REMARK   12  A    between atoms: C_22  and  C_24
REMARK   13  A    between atoms: C_24  and  O_25
REMARK   14  A    between atoms: C_24  and  C_27
REMARK   15  A    between atoms: C_27  and  C_28
REMARK   16  A    between atoms: C_28  and  C_29
REMARK   17  A    between atoms: C_29  and  C_30
REMARK                            x       y       z     vdW  Elec       q    Type
REMARK                         _______ _______ _______ _____ _____    ______ ____
ROOT
ATOM      1  C   UNL     1      32.741 -23.631 -15.173  0.00  0.00    -0.000 C 
ATOM      2  C   UNL     1      32.226 -23.219 -16.402  0.00  0.00    -0.000 C 
ATOM      3  C   UNL     1      31.905 -23.715 -14.058  0.00  0.00    -0.000 C 
ATOM      4  C   UNL     1      30.876 -22.890 -16.517  0.00  0.00    -0.000 C 
ATOM      5  C   UNL     1      30.555 -23.386 -14.175  0.00  0.00    -0.000 C 
ATOM      6  C   UNL     1      30.040 -22.974 -15.403  0.00  0.00    -0.000 C 
ENDROOT
BRANCH   1   8
ATOM      7  C   UNL     1      35.150 -23.108 -14.784  0.00  0.00    +0.005 C 
ATOM      8  C   UNL     1      34.160 -23.988 -15.003  0.00  0.00    -0.002 C 
BRANCH   7   9
ATOM      9  C   UNL     1      36.614 -23.437 -14.616  0.00  0.00    +0.159 C 
BRANCH   9  10
ATOM     10  O   UNL     1      37.437 -22.367 -15.084  0.00  0.00    -0.378 OA
ATOM     11  H   UNL     1      37.582 -22.464 -16.039  0.00  0.00    +0.211 HD
ENDBRANCH   9  10
BRANCH   9  12
ATOM     12  C   UNL     1      37.012 -23.752 -13.161  0.00  0.00    +0.141 C 
BRANCH  12  13
ATOM     13  O   UNL     1      36.145 -23.038 -12.273  0.00  0.00    -0.382 OA
ATOM     14  H   UNL     1      35.546 -22.477 -12.788  0.00  0.00    +0.210 HD
ENDBRANCH  12  13
BRANCH  12  15
ATOM     15  C   UNL     1      36.963 -25.232 -12.757  0.00  0.00    +0.033 C 
BRANCH  15  16
ATOM     16  C   UNL     1      38.034 -26.090 -13.433  0.00  0.00    +0.014 C 
BRANCH  16  17
ATOM     17  C   UNL     1      39.400 -25.403 -13.459  0.00  0.00    +0.109 C 
BRANCH  17  19
ATOM     18  O   UNL     1      40.877 -26.199 -15.225  0.00  0.00    -0.250 OA
ATOM     19  C   UNL     1      40.041 -25.399 -14.829  0.00  0.00    +0.314 C 
BRANCH  19  20
ATOM     20  O   UNL     1      39.587 -24.366 -15.586  0.00  0.00    -0.480 OA
ATOM     21  H   UNL     1      40.186 -23.869 -16.108  0.00  0.00    +0.295 HD
ENDBRANCH  19  20
ENDBRANCH  17  19
ENDBRANCH  16  17
ENDBRANCH  15  16
ENDBRANCH  12  15
ENDBRANCH   9  12
ENDBRANCH   7   9
ENDBRANCH   1   8
BRANCH   2  23
ATOM     22  C   UNL     1      33.056 -22.092 -18.472  0.00  0.00    +0.003 C 
ATOM     23  C   UNL     1      33.063 -23.116 -17.592  0.00  0.00    -0.002 C 
BRANCH  22  24
ATOM     24  C   UNL     1      33.931 -22.035 -19.695  0.00  0.00    +0.132 C 
BRANCH  24  25
ATOM     25  O   UNL     1      35.212 -22.540 -19.328  0.00  0.00    -0.380 OA
ATOM     26  H   UNL     1      35.711 -22.768 -20.129  0.00  0.00    +0.211 HD
ENDBRANCH  24  25
BRANCH  24  27
ATOM     27  C   UNL     1      34.056 -20.593 -20.203  0.00  0.00    +0.034 C 
BRANCH  27  28
ATOM     28  C   UNL     1      35.451 -20.209 -20.717  0.00  0.00    +0.003 C 
BRANCH  28  29
ATOM     29  C   UNL     1      35.596 -18.779 -21.247  0.00  0.00    +0.000 C 
BRANCH  29  30
ATOM     30  C   UNL     1      34.602 -18.438 -22.358  0.00  0.00    +0.000 C 
ATOM     31  C   UNL     1      35.083 -18.946 -23.707  0.00  0.00    +0.000 C 
ENDBRANCH  29  30
ENDBRANCH  28  29
ENDBRANCH  27  28
ENDBRANCH  24  27
ENDBRANCH  22  24
ENDBRANCH   2  23
TORSDOF 17
ENDMDL
MODEL 6
REMARK VINA RESULT:      -8.7      4.000      8.491
REMARK  Name = 58185197
REMARK  17 active torsions:
REMARK  status: ('A' for Active; 'I' for Inactive)
REMARK    1  A    between atoms: C_1  and  C_8
REMARK    2  A    between atoms: C_2  and  C_23
REMARK    3  A    between atoms: C_7  and  C_9
REMARK    4  A    between atoms: C_9  and  O_10
REMARK    5  A    between atoms: C_9  and  C_12
REMARK    6  A    between atoms: C_12  and  O_13
REMARK    7  A    between atoms: C_12  and  C_15
REMARK    8  A    between atoms: C_15  and  C_16
REMARK    9  A    between atoms: C_16  and  C_17
REMARK   10  A    between atoms: C_17  and  C_19
REMARK   11  A    between atoms: C_19  and  O_20
REMARK   12  A    between atoms: C_22  and  C_24
REMARK   13  A    between atoms: C_24  and  O_25
REMARK   14  A    between atoms: C_24  and  C_27
REMARK   15  A    between atoms: C_27  and  C_28
REMARK   16  A    between atoms: C_28  and  C_29
REMARK   17  A    between atoms: C_29  and  C_30
REMARK                            x       y       z     vdW  Elec       q    Type
REMARK                         _______ _______ _______ _____ _____    ______ ____
ROOT
ATOM      1  C   UNL     1      34.721 -23.058 -16.512  0.00  0.00    -0.000 C 
ATOM      2  C   UNL     1      35.885 -22.766 -15.800  0.00  0.00    -0.000 C 
ATOM      3  C   UNL     1      34.585 -22.630 -17.833  0.00  0.00    -0.000 C 
ATOM      4  C   UNL     1      36.912 -22.045 -16.408  0.00  0.00    -0.000 C 
ATOM      5  C   UNL     1      35.613 -21.909 -18.441  0.00  0.00    -0.000 C 
ATOM      6  C   UNL     1      36.776 -21.616 -17.729  0.00  0.00    -0.000 C 
ENDROOT
BRANCH   1   8
ATOM      7  C   UNL     1      32.732 -23.316 -15.028  0.00  0.00    +0.005 C 
ATOM      8  C   UNL     1      33.611 -23.816 -15.912  0.00  0.00    -0.002 C 
BRANCH   7   9
ATOM      9  C   UNL     1      31.590 -24.066 -14.385  0.00  0.00    +0.159 C 
BRANCH   9  10
ATOM     10  O   UNL     1      31.127 -23.390 -13.215  0.00  0.00    -0.378 OA
ATOM     11  H   UNL     1      31.461 -23.844 -12.425  0.00  0.00    +0.211 HD
ENDBRANCH   9  10
BRANCH   9  12
ATOM     12  C   UNL     1      30.388 -24.283 -15.325  0.00  0.00    +0.141 C 
BRANCH  12  13
ATOM     13  O   UNL     1      29.250 -24.668 -14.548  0.00  0.00    -0.382 OA
ATOM     14  H   UNL     1      29.178 -25.635 -14.537  0.00  0.00    +0.210 HD
ENDBRANCH  12  13
BRANCH  12  15
ATOM     15  C   UNL     1      29.974 -23.074 -16.176  0.00  0.00    +0.033 C 
BRANCH  15  16
ATOM     16  C   UNL     1      28.556 -22.576 -15.886  0.00  0.00    +0.014 C 
BRANCH  16  17
ATOM     17  C   UNL     1      27.694 -22.507 -17.148  0.00  0.00    +0.109 C 
BRANCH  17  19
ATOM     18  O   UNL     1      25.570 -21.874 -16.135  0.00  0.00    -0.250 OA
ATOM     19  C   UNL     1      26.442 -21.677 -16.970  0.00  0.00    +0.314 C 
BRANCH  19  20
ATOM     20  O   UNL     1      26.380 -20.672 -17.882  0.00  0.00    -0.480 OA
ATOM     21  H   UNL     1      26.774 -20.778 -18.725  0.00  0.00    +0.295 HD
ENDBRANCH  19  20
ENDBRANCH  17  19
ENDBRANCH  16  17
ENDBRANCH  15  16
ENDBRANCH  12  15
ENDBRANCH   9  12
ENDBRANCH   7   9
ENDBRANCH   1   8
BRANCH   2  23
ATOM     22  C   UNL     1      37.210 -23.073 -13.704  0.00  0.00    +0.003 C 
ATOM     23  C   UNL     1      36.070 -23.194 -14.418  0.00  0.00    -0.002 C 
BRANCH  22  24
ATOM     24  C   UNL     1      37.358 -23.541 -12.281  0.00  0.00    +0.132 C 
BRANCH  24  25
ATOM     25  O   UNL     1      38.194 -22.603 -11.609  0.00  0.00    -0.380 OA
ATOM     26  H   UNL     1      39.092 -22.966 -11.535  0.00  0.00    +0.211 HD
ENDBRANCH  24  25
BRANCH  24  27
ATOM     27  C   UNL     1      37.988 -24.939 -12.236  0.00  0.00    +0.034 C 
BRANCH  27  28
ATOM     28  C   UNL     1      39.099 -25.180 -13.267  0.00  0.00    +0.003 C 
BRANCH  28  29
ATOM     29  C   UNL     1      38.734 -26.092 -14.441  0.00  0.00    +0.000 C 
BRANCH  29  30
ATOM     30  C   UNL     1      37.411 -26.834 -14.247  0.00  0.00    +0.000 C 
ATOM     31  C   UNL     1      36.472 -26.610 -15.423  0.00  0.00    +0.000 C 
ENDBRANCH  29  30
ENDBRANCH  28  29
ENDBRANCH  27  28
ENDBRANCH  24  27
ENDBRANCH  22  24
ENDBRANCH   2  23
TORSDOF 17
ENDMDL
MODEL 7
REMARK VINA RESULT:      -8.7      3.355      6.613
REMARK  Name = 58185197
REMARK  17 active torsions:
REMARK  status: ('A' for Active; 'I' for Inactive)
REMARK    1  A    between atoms: C_1  and  C_8
REMARK    2  A    between atoms: C_2  and  C_23
REMARK    3  A    between atoms: C_7  and  C_9
REMARK    4  A    between atoms: C_9  and  O_10
REMARK    5  A    between atoms: C_9  and  C_12
REMARK    6  A    between atoms: C_12  and  O_13
REMARK    7  A    between atoms: C_12  and  C_15
REMARK    8  A    between atoms: C_15  and  C_16
REMARK    9  A    between atoms: C_16  and  C_17
REMARK   10  A    between atoms: C_17  and  C_19
REMARK   11  A    between atoms: C_19  and  O_20
REMARK   12  A    between atoms: C_22  and  C_24
REMARK   13  A    between atoms: C_24  and  O_25
REMARK   14  A    between atoms: C_24  and  C_27
REMARK   15  A    between atoms: C_27  and  C_28
REMARK   16  A    between atoms: C_28  and  C_29
REMARK   17  A    between atoms: C_29  and  C_30
REMARK                            x       y       z     vdW  Elec       q    Type
REMARK                         _______ _______ _______ _____ _____    ______ ____
ROOT
ATOM      1  C   UNL     1      36.313 -24.437 -13.493  0.00  0.00    -0.000 C 
ATOM      2  C   UNL     1      37.191 -24.251 -14.561  0.00  0.00    -0.000 C 
ATOM      3  C   UNL     1      36.701 -25.209 -12.397  0.00  0.00    -0.000 C 
ATOM      4  C   UNL     1      38.456 -24.837 -14.535  0.00  0.00    -0.000 C 
ATOM      5  C   UNL     1      37.967 -25.794 -12.371  0.00  0.00    -0.000 C 
ATOM      6  C   UNL     1      38.844 -25.609 -13.439  0.00  0.00    -0.000 C 
ENDROOT
BRANCH   1   8
ATOM      7  C   UNL     1      33.855 -24.444 -13.923  0.00  0.00    +0.005 C 
ATOM      8  C   UNL     1      34.968 -23.838 -13.477  0.00  0.00    -0.002 C 
BRANCH   7   9
ATOM      9  C   UNL     1      32.464 -23.857 -13.931  0.00  0.00    +0.159 C 
BRANCH   9  10
ATOM     10  O   UNL     1      32.283 -22.951 -12.841  0.00  0.00    -0.378 OA
ATOM     11  H   UNL     1      31.465 -23.172 -12.369  0.00  0.00    +0.211 HD
ENDBRANCH   9  10
BRANCH   9  12
ATOM     12  C   UNL     1      32.115 -23.117 -15.238  0.00  0.00    +0.141 C 
BRANCH  12  13
ATOM     13  O   UNL     1      33.099 -23.429 -16.229  0.00  0.00    -0.382 OA
ATOM     14  H   UNL     1      33.829 -22.794 -16.172  0.00  0.00    +0.210 HD
ENDBRANCH  12  13
BRANCH  12  15
ATOM     15  C   UNL     1      30.741 -23.434 -15.842  0.00  0.00    +0.033 C 
BRANCH  15  16
ATOM     16  C   UNL     1      29.584 -22.707 -15.153  0.00  0.00    +0.014 C 
BRANCH  16  17
ATOM     17  C   UNL     1      28.218 -23.243 -15.587  0.00  0.00    +0.109 C 
BRANCH  17  19
ATOM     18  O   UNL     1      27.545 -21.521 -17.174  0.00  0.00    -0.250 OA
ATOM     19  C   UNL     1      27.761 -22.698 -16.922  0.00  0.00    +0.314 C 
BRANCH  19  20
ATOM     20  O   UNL     1      27.589 -23.693 -17.831  0.00  0.00    -0.480 OA
ATOM     21  H   UNL     1      26.815 -23.719 -18.358  0.00  0.00    +0.295 HD
ENDBRANCH  19  20
ENDBRANCH  17  19
ENDBRANCH  16  17
ENDBRANCH  15  16
ENDBRANCH  12  15
ENDBRANCH   9  12
ENDBRANCH   7   9
ENDBRANCH   1   8
BRANCH   2  23
ATOM     22  C   UNL     1      37.585 -22.482 -16.282  0.00  0.00    +0.003 C 
ATOM     23  C   UNL     1      36.828 -23.453 -15.727  0.00  0.00    -0.002 C 
BRANCH  22  24
ATOM     24  C   UNL     1      37.163 -21.675 -17.479  0.00  0.00    +0.132 C 
BRANCH  24  25
ATOM     25  O   UNL     1      37.371 -20.301 -17.163  0.00  0.00    -0.380 OA
ATOM     26  H   UNL     1      38.312 -20.086 -17.262  0.00  0.00    +0.211 HD
ENDBRANCH  24  25
BRANCH  24  27
ATOM     27  C   UNL     1      35.684 -21.924 -17.804  0.00  0.00    +0.034 C 
BRANCH  27  28
ATOM     28  C   UNL     1      35.350 -21.963 -19.302  0.00  0.00    +0.003 C 
BRANCH  28  29
ATOM     29  C   UNL     1      35.622 -20.672 -20.079  0.00  0.00    +0.000 C 
BRANCH  29  30
ATOM     30  C   UNL     1      34.368 -20.064 -20.710  0.00  0.00    +0.000 C 
ATOM     31  C   UNL     1      33.106 -20.564 -20.025  0.00  0.00    +0.000 C 
ENDBRANCH  29  30
ENDBRANCH  28  29
ENDBRANCH  27  28
ENDBRANCH  24  27
ENDBRANCH  22  24
ENDBRANCH   2  23
TORSDOF 17
ENDMDL
MODEL 8
REMARK VINA RESULT:      -8.6      7.905     14.594
REMARK  Name = 58185197
REMARK  17 active torsions:
REMARK  status: ('A' for Active; 'I' for Inactive)
REMARK    1  A    between atoms: C_1  and  C_8
REMARK    2  A    between atoms: C_2  and  C_23
REMARK    3  A    between atoms: C_7  and  C_9
REMARK    4  A    between atoms: C_9  and  O_10
REMARK    5  A    between atoms: C_9  and  C_12
REMARK    6  A    between atoms: C_12  and  O_13
REMARK    7  A    between atoms: C_12  and  C_15
REMARK    8  A    between atoms: C_15  and  C_16
REMARK    9  A    between atoms: C_16  and  C_17
REMARK   10  A    between atoms: C_17  and  C_19
REMARK   11  A    between atoms: C_19  and  O_20
REMARK   12  A    between atoms: C_22  and  C_24
REMARK   13  A    between atoms: C_24  and  O_25
REMARK   14  A    between atoms: C_24  and  C_27
REMARK   15  A    between atoms: C_27  and  C_28
REMARK   16  A    between atoms: C_28  and  C_29
REMARK   17  A    between atoms: C_29  and  C_30
REMARK                            x       y       z     vdW  Elec       q    Type
REMARK                         _______ _______ _______ _____ _____    ______ ____
ROOT
ATOM      1  C   UNL     1      33.571 -12.581 -24.853  0.00  0.00    -0.000 C 
ATOM      2  C   UNL     1      33.401 -13.918 -24.493  0.00  0.00    -0.000 C 
ATOM      3  C   UNL     1      33.551 -12.212 -26.198  0.00  0.00    -0.000 C 
ATOM      4  C   UNL     1      33.211 -14.886 -25.479  0.00  0.00    -0.000 C 
ATOM      5  C   UNL     1      33.360 -13.181 -27.183  0.00  0.00    -0.000 C 
ATOM      6  C   UNL     1      33.191 -14.517 -26.824  0.00  0.00    -0.000 C 
ENDROOT
BRANCH   1   8
ATOM      7  C   UNL     1      33.299 -10.272 -23.946  0.00  0.00    +0.005 C 
ATOM      8  C   UNL     1      33.774 -11.525 -23.847  0.00  0.00    -0.002 C 
BRANCH   7   9
ATOM      9  C   UNL     1      33.496  -9.163 -22.942  0.00  0.00    +0.159 C 
BRANCH   9  10
ATOM     10  O   UNL     1      34.506  -8.251 -23.377  0.00  0.00    -0.378 OA
ATOM     11  H   UNL     1      35.045  -8.669 -24.066  0.00  0.00    +0.211 HD
ENDBRANCH   9  10
BRANCH   9  12
ATOM     12  C   UNL     1      32.213  -8.360 -22.649  0.00  0.00    +0.141 C 
BRANCH  12  13
ATOM     13  O   UNL     1      31.097  -9.026 -23.250  0.00  0.00    -0.382 OA
ATOM     14  H   UNL     1      30.593  -8.395 -23.785  0.00  0.00    +0.210 HD
ENDBRANCH  12  13
BRANCH  12  15
ATOM     15  C   UNL     1      31.876  -8.149 -21.167  0.00  0.00    +0.033 C 
BRANCH  15  16
ATOM     16  C   UNL     1      32.365  -9.278 -20.258  0.00  0.00    +0.014 C 
BRANCH  16  17
ATOM     17  C   UNL     1      31.263 -10.291 -19.943  0.00  0.00    +0.109 C 
BRANCH  17  19
ATOM     18  O   UNL     1      32.078 -12.543 -20.393  0.00  0.00    -0.250 OA
ATOM     19  C   UNL     1      31.397 -11.581 -20.721  0.00  0.00    +0.314 C 
BRANCH  19  20
ATOM     20  O   UNL     1      30.673 -11.544 -21.870  0.00  0.00    -0.480 OA
ATOM     21  H   UNL     1      31.089 -11.326 -22.680  0.00  0.00    +0.295 HD
ENDBRANCH  19  20
ENDBRANCH  17  19
ENDBRANCH  16  17
ENDBRANCH  15  16
ENDBRANCH  12  15
ENDBRANCH   9  12
ENDBRANCH   7   9
ENDBRANCH   1   8
BRANCH   2  23
ATOM     22  C   UNL     1      34.308 -15.199 -22.549  0.00  0.00    +0.003 C 
ATOM     23  C   UNL     1      33.415 -14.350 -23.100  0.00  0.00    -0.002 C 
BRANCH  22  24
ATOM     24  C   UNL     1      34.275 -15.626 -21.106  0.00  0.00    +0.132 C 
BRANCH  24  25
ATOM     25  O   UNL     1      34.993 -14.649 -20.356  0.00  0.00    -0.380 OA
ATOM     26  H   UNL     1      35.094 -13.843 -20.888  0.00  0.00    +0.211 HD
ENDBRANCH  24  25
BRANCH  24  27
ATOM     27  C   UNL     1      34.925 -17.005 -20.937  0.00  0.00    +0.034 C 
BRANCH  27  28
ATOM     28  C   UNL     1      34.600 -18.013 -22.049  0.00  0.00    +0.003 C 
BRANCH  28  29
ATOM     29  C   UNL     1      34.447 -19.470 -21.605  0.00  0.00    +0.000 C 
BRANCH  29  30
ATOM     30  C   UNL     1      33.146 -19.743 -20.848  0.00  0.00    +0.000 C 
ATOM     31  C   UNL     1      33.315 -20.874 -19.846  0.00  0.00    +0.000 C 
ENDBRANCH  29  30
ENDBRANCH  28  29
ENDBRANCH  27  28
ENDBRANCH  24  27
ENDBRANCH  22  24
ENDBRANCH   2  23
TORSDOF 17
ENDMDL
MODEL 9
REMARK VINA RESULT:      -8.6      3.951      6.875
REMARK  Name = 58185197
REMARK  17 active torsions:
REMARK  status: ('A' for Active; 'I' for Inactive)
REMARK    1  A    between atoms: C_1  and  C_8
REMARK    2  A    between atoms: C_2  and  C_23
REMARK    3  A    between atoms: C_7  and  C_9
REMARK    4  A    between atoms: C_9  and  O_10
REMARK    5  A    between atoms: C_9  and  C_12
REMARK    6  A    between atoms: C_12  and  O_13
REMARK    7  A    between atoms: C_12  and  C_15
REMARK    8  A    between atoms: C_15  and  C_16
REMARK    9  A    between atoms: C_16  and  C_17
REMARK   10  A    between atoms: C_17  and  C_19
REMARK   11  A    between atoms: C_19  and  O_20
REMARK   12  A    between atoms: C_22  and  C_24
REMARK   13  A    between atoms: C_24  and  O_25
REMARK   14  A    between atoms: C_24  and  C_27
REMARK   15  A    between atoms: C_27  and  C_28
REMARK   16  A    between atoms: C_28  and  C_29
REMARK   17  A    between atoms: C_29  and  C_30
REMARK                            x       y       z     vdW  Elec       q    Type
REMARK                         _______ _______ _______ _____ _____    ______ ____
ROOT
ATOM      1  C   UNL     1      34.564 -23.818 -14.016  0.00  0.00    -0.000 C 
ATOM      2  C   UNL     1      35.111 -23.600 -15.281  0.00  0.00    -0.000 C 
ATOM      3  C   UNL     1      35.401 -24.062 -12.926  0.00  0.00    -0.000 C 
ATOM      4  C   UNL     1      36.494 -23.626 -15.456  0.00  0.00    -0.000 C 
ATOM      5  C   UNL     1      36.785 -24.088 -13.103  0.00  0.00    -0.000 C 
ATOM      6  C   UNL     1      37.331 -23.871 -14.367  0.00  0.00    -0.000 C 
ENDROOT
BRANCH   1   8
ATOM      7  C   UNL     1      32.347 -24.893 -13.621  0.00  0.00    +0.005 C 
ATOM      8  C   UNL     1      33.111 -23.799 -13.782  0.00  0.00    -0.002 C 
BRANCH   7   9
ATOM      9  C   UNL     1      30.855 -24.911 -13.391  0.00  0.00    +0.159 C 
BRANCH   9  10
ATOM     10  O   UNL     1      30.472 -23.926 -12.430  0.00  0.00    -0.378 OA
ATOM     11  H   UNL     1      30.252 -23.098 -12.885  0.00  0.00    +0.211 HD
ENDBRANCH   9  10
BRANCH   9  12
ATOM     12  C   UNL     1      30.031 -24.682 -14.673  0.00  0.00    +0.141 C 
BRANCH  12  13
ATOM     13  O   UNL     1      28.804 -25.414 -14.577  0.00  0.00    -0.382 OA
ATOM     14  H   UNL     1      28.209 -24.967 -13.957  0.00  0.00    +0.210 HD
ENDBRANCH  12  13
BRANCH  12  15
ATOM     15  C   UNL     1      29.670 -23.224 -14.988  0.00  0.00    +0.033 C 
BRANCH  15  16
ATOM     16  C   UNL     1      29.571 -22.926 -16.485  0.00  0.00    +0.014 C 
BRANCH  16  17
ATOM     17  C   UNL     1      28.183 -23.233 -17.049  0.00  0.00    +0.109 C 
BRANCH  17  19
ATOM     18  O   UNL     1      26.462 -22.313 -15.590  0.00  0.00    -0.250 OA
ATOM     19  C   UNL     1      27.128 -22.240 -16.613  0.00  0.00    +0.314 C 
BRANCH  19  20
ATOM     20  O   UNL     1      26.984 -21.239 -17.521  0.00  0.00    -0.480 OA
ATOM     21  H   UNL     1      27.668 -20.610 -17.638  0.00  0.00    +0.295 HD
ENDBRANCH  19  20
ENDBRANCH  17  19
ENDBRANCH  16  17
ENDBRANCH  15  16
ENDBRANCH  12  15
ENDBRANCH   9  12
ENDBRANCH   7   9
ENDBRANCH   1   8
BRANCH   2  23
ATOM     22  C   UNL     1      34.675 -22.724 -17.580  0.00  0.00    +0.003 C 
ATOM     23  C   UNL     1      34.275 -23.341 -16.447  0.00  0.00    -0.002 C 
BRANCH  22  24
ATOM     24  C   UNL     1      33.772 -22.468 -18.756  0.00  0.00    +0.132 C 
BRANCH  24  25
ATOM     25  O   UNL     1      33.751 -23.654 -19.545  0.00  0.00    -0.380 OA
ATOM     26  H   UNL     1      33.142 -23.535 -20.291  0.00  0.00    +0.211 HD
ENDBRANCH  24  25
BRANCH  24  27
ATOM     27  C   UNL     1      34.291 -21.288 -19.588  0.00  0.00    +0.034 C 
BRANCH  27  28
ATOM     28  C   UNL     1      33.212 -20.529 -20.374  0.00  0.00    +0.003 C 
BRANCH  28  29
ATOM     29  C   UNL     1      33.660 -19.218 -21.025  0.00  0.00    +0.000 C 
BRANCH  29  30
ATOM     30  C   UNL     1      34.621 -19.417 -22.198  0.00  0.00    +0.000 C 
ATOM     31  C   UNL     1      35.780 -18.433 -22.137  0.00  0.00    +0.000 C 
ENDBRANCH  29  30
ENDBRANCH  28  29
ENDBRANCH  27  28
ENDBRANCH  24  27
ENDBRANCH  22  24
ENDBRANCH   2  23
TORSDOF 17
ENDMDL
