MODEL 1
REMARK VINA RESULT:      -8.3      0.000      0.000
REMARK  Name = 444320
REMARK  2 active torsions:
REMARK  status: ('A' for Active; 'I' for Inactive)
REMARK    1  A    between atoms: N_3  and  C_12
REMARK    2  A    between atoms: C_11  and  O_16
REMARK                            x       y       z     vdW  Elec       q    Type
REMARK                         _______ _______ _______ _____ _____    ______ ____
ROOT
ATOM      1  O   UNL     1      36.840 -20.108 -20.135  0.00  0.00    -0.252 OA
ATOM      2  O   UNL     1      33.130 -22.553 -18.909  0.00  0.00    -0.270 OA
ATOM      3  N   UNL     1      34.746 -19.389 -20.880  0.00  0.00    -0.219 N 
ATOM      4  N   UNL     1      34.991 -21.324 -19.527  0.00  0.00    -0.236 N 
ATOM      5  C   UNL     1      35.617 -20.255 -20.182  0.00  0.00    +0.315 C 
ATOM      6  C   UNL     1      33.377 -19.624 -20.882  0.00  0.00    +0.076 C 
ATOM      7  C   UNL     1      32.796 -20.647 -20.253  0.00  0.00    +0.074 C 
ATOM      8  C   UNL     1      33.634 -21.602 -19.500  0.00  0.00    +0.254 C 
ATOM      9  H   UNL     1      35.578 -21.943 -19.033  0.00  0.00    +0.159 HD
ENDROOT
BRANCH   3  12
ATOM     10  O   UNL     1      35.207 -17.098 -20.752  0.00  0.00    -0.337 OA
ATOM     11  C   UNL     1      34.626 -16.447 -22.957  0.00  0.00    +0.142 C 
ATOM     12  C   UNL     1      35.277 -18.262 -21.588  0.00  0.00    +0.202 C 
ATOM     13  C   UNL     1      34.509 -17.951 -22.863  0.00  0.00    +0.083 C 
ATOM     14  C   UNL     1      34.629 -16.010 -21.498  0.00  0.00    +0.144 C 
ATOM     15  C   UNL     1      33.230 -15.759 -20.952  0.00  0.00    +0.035 C 
BRANCH  11  16
ATOM     16  O   UNL     1      35.867 -16.099 -23.569  0.00  0.00    -0.382 OA
ATOM     17  H   UNL     1      35.910 -16.490 -24.455  0.00  0.00    +0.210 HD
ENDBRANCH  11  16
ENDBRANCH   3  12
TORSDOF 2
ENDMDL
MODEL 2
REMARK VINA RESULT:      -7.3      1.912      2.739
REMARK  Name = 444320
REMARK  2 active torsions:
REMARK  status: ('A' for Active; 'I' for Inactive)
REMARK    1  A    between atoms: N_3  and  C_12
REMARK    2  A    between atoms: C_11  and  O_16
REMARK                            x       y       z     vdW  Elec       q    Type
REMARK                         _______ _______ _______ _____ _____    ______ ____
ROOT
ATOM      1  O   UNL     1      32.116 -19.831 -20.487  0.00  0.00    -0.252 OA
ATOM      2  O   UNL     1      34.043 -23.485 -18.442  0.00  0.00    -0.270 OA
ATOM      3  N   UNL     1      34.440 -20.045 -20.568  0.00  0.00    -0.219 N 
ATOM      4  N   UNL     1      33.078 -21.649 -19.469  0.00  0.00    -0.236 N 
ATOM      5  C   UNL     1      33.139 -20.455 -20.200  0.00  0.00    +0.315 C 
ATOM      6  C   UNL     1      35.544 -20.808 -20.207  0.00  0.00    +0.076 C 
ATOM      7  C   UNL     1      35.469 -21.943 -19.510  0.00  0.00    +0.074 C 
ATOM      8  C   UNL     1      34.146 -22.443 -19.084  0.00  0.00    +0.254 C 
ATOM      9  H   UNL     1      32.181 -21.956 -19.200  0.00  0.00    +0.159 HD
ENDROOT
BRANCH   3  12
ATOM     10  O   UNL     1      33.867 -18.914 -22.536  0.00  0.00    -0.337 OA
ATOM     11  C   UNL     1      35.948 -17.891 -23.032  0.00  0.00    +0.142 C 
ATOM     12  C   UNL     1      34.623 -18.837 -21.318  0.00  0.00    +0.202 C 
ATOM     13  C   UNL     1      36.074 -18.593 -21.699  0.00  0.00    +0.083 C 
ATOM     14  C   UNL     1      34.707 -18.528 -23.641  0.00  0.00    +0.144 C 
ATOM     15  C   UNL     1      35.019 -19.780 -24.451  0.00  0.00    +0.035 C 
BRANCH  11  16
ATOM     16  O   UNL     1      35.725 -16.498 -22.823  0.00  0.00    -0.382 OA
ATOM     17  H   UNL     1      35.751 -16.036 -23.675  0.00  0.00    +0.210 HD
ENDBRANCH  11  16
ENDBRANCH   3  12
TORSDOF 2
ENDMDL
MODEL 3
REMARK VINA RESULT:      -7.3      1.253      1.799
REMARK  Name = 444320
REMARK  2 active torsions:
REMARK  status: ('A' for Active; 'I' for Inactive)
REMARK    1  A    between atoms: N_3  and  C_12
REMARK    2  A    between atoms: C_11  and  O_16
REMARK                            x       y       z     vdW  Elec       q    Type
REMARK                         _______ _______ _______ _____ _____    ______ ____
ROOT
ATOM      1  O   UNL     1      32.778 -19.502 -21.030  0.00  0.00    -0.252 OA
ATOM      2  O   UNL     1      33.928 -23.145 -18.451  0.00  0.00    -0.270 OA
ATOM      3  N   UNL     1      35.044 -19.907 -20.635  0.00  0.00    -0.219 N 
ATOM      4  N   UNL     1      33.353 -21.315 -19.745  0.00  0.00    -0.236 N 
ATOM      5  C   UNL     1      33.665 -20.184 -20.513  0.00  0.00    +0.315 C 
ATOM      6  C   UNL     1      35.982 -20.728 -20.022  0.00  0.00    +0.076 C 
ATOM      7  C   UNL     1      35.669 -21.801 -19.295  0.00  0.00    +0.074 C 
ATOM      8  C   UNL     1      34.249 -22.163 -19.114  0.00  0.00    +0.254 C 
ATOM      9  H   UNL     1      32.397 -21.529 -19.644  0.00  0.00    +0.159 HD
ENDROOT
BRANCH   3  12
ATOM     10  O   UNL     1      35.359 -17.587 -20.598  0.00  0.00    -0.337 OA
ATOM     11  C   UNL     1      34.670 -17.053 -22.803  0.00  0.00    +0.142 C 
ATOM     12  C   UNL     1      35.479 -18.773 -21.398  0.00  0.00    +0.202 C 
ATOM     13  C   UNL     1      34.654 -18.557 -22.656  0.00  0.00    +0.083 C 
ATOM     14  C   UNL     1      34.689 -16.565 -21.361  0.00  0.00    +0.144 C 
ATOM     15  C   UNL     1      33.293 -16.385 -20.777  0.00  0.00    +0.035 C 
BRANCH  11  16
ATOM     16  O   UNL     1      35.866 -16.648 -23.468  0.00  0.00    -0.382 OA
ATOM     17  H   UNL     1      36.543 -16.433 -22.809  0.00  0.00    +0.210 HD
ENDBRANCH  11  16
ENDBRANCH   3  12
TORSDOF 2
ENDMDL
MODEL 4
REMARK VINA RESULT:      -7.1      6.126      8.139
REMARK  Name = 444320
REMARK  2 active torsions:
REMARK  status: ('A' for Active; 'I' for Inactive)
REMARK    1  A    between atoms: N_3  and  C_12
REMARK    2  A    between atoms: C_11  and  O_16
REMARK                            x       y       z     vdW  Elec       q    Type
REMARK                         _______ _______ _______ _____ _____    ______ ____
ROOT
ATOM      1  O   UNL     1      34.239 -23.111 -18.369  0.00  0.00    -0.252 OA
ATOM      2  O   UNL     1      29.894 -22.467 -16.975  0.00  0.00    -0.270 OA
ATOM      3  N   UNL     1      33.745 -23.426 -16.108  0.00  0.00    -0.219 N 
ATOM      4  N   UNL     1      32.077 -22.790 -17.672  0.00  0.00    -0.236 N 
ATOM      5  C   UNL     1      33.422 -23.111 -17.447  0.00  0.00    +0.315 C 
ATOM      6  C   UNL     1      32.763 -23.405 -15.126  0.00  0.00    +0.076 C 
ATOM      7  C   UNL     1      31.485 -23.098 -15.357  0.00  0.00    +0.074 C 
ATOM      8  C   UNL     1      31.061 -22.754 -16.729  0.00  0.00    +0.254 C 
ATOM      9  H   UNL     1      31.826 -22.567 -18.598  0.00  0.00    +0.159 HD
ENDROOT
BRANCH   3  12
ATOM     10  O   UNL     1      35.080 -24.833 -14.798  0.00  0.00    -0.337 OA
ATOM     11  C   UNL     1      36.784 -23.305 -14.175  0.00  0.00    +0.142 C 
ATOM     12  C   UNL     1      35.093 -23.769 -15.761  0.00  0.00    +0.202 C 
ATOM     13  C   UNL     1      35.858 -22.609 -15.145  0.00  0.00    +0.083 C 
ATOM     14  C   UNL     1      35.960 -24.498 -13.707  0.00  0.00    +0.144 C 
ATOM     15  C   UNL     1      35.099 -24.183 -12.491  0.00  0.00    +0.035 C 
BRANCH  11  16
ATOM     16  O   UNL     1      37.947 -23.760 -14.864  0.00  0.00    -0.382 OA
ATOM     17  H   UNL     1      38.679 -23.145 -14.702  0.00  0.00    +0.210 HD
ENDBRANCH  11  16
ENDBRANCH   3  12
TORSDOF 2
ENDMDL
MODEL 5
REMARK VINA RESULT:      -7.1      2.665      5.644
REMARK  Name = 444320
REMARK  2 active torsions:
REMARK  status: ('A' for Active; 'I' for Inactive)
REMARK    1  A    between atoms: N_3  and  C_12
REMARK    2  A    between atoms: C_11  and  O_16
REMARK                            x       y       z     vdW  Elec       q    Type
REMARK                         _______ _______ _______ _____ _____    ______ ____
ROOT
ATOM      1  O   UNL     1      34.741 -18.080 -25.580  0.00  0.00    -0.252 OA
ATOM      2  O   UNL     1      32.835 -13.894 -25.281  0.00  0.00    -0.270 OA
ATOM      3  N   UNL     1      34.645 -17.056 -23.483  0.00  0.00    -0.219 N 
ATOM      4  N   UNL     1      33.793 -15.995 -25.429  0.00  0.00    -0.236 N 
ATOM      5  C   UNL     1      34.420 -17.120 -24.876  0.00  0.00    +0.315 C 
ATOM      6  C   UNL     1      34.251 -15.937 -22.760  0.00  0.00    +0.076 C 
ATOM      7  C   UNL     1      33.654 -14.873 -23.301  0.00  0.00    +0.074 C 
ATOM      8  C   UNL     1      33.383 -14.857 -24.752  0.00  0.00    +0.254 C 
ATOM      9  H   UNL     1      33.626 -16.016 -26.399  0.00  0.00    +0.159 HD
ENDROOT
BRANCH   3  12
ATOM     10  O   UNL     1      34.398 -19.282 -22.803  0.00  0.00    -0.337 OA
ATOM     11  C   UNL     1      35.469 -19.178 -20.690  0.00  0.00    +0.142 C 
ATOM     12  C   UNL     1      35.281 -18.151 -22.811  0.00  0.00    +0.202 C 
ATOM     13  C   UNL     1      35.627 -17.835 -21.365  0.00  0.00    +0.083 C 
ATOM     14  C   UNL     1      34.333 -19.825 -21.470  0.00  0.00    +0.144 C 
ATOM     15  C   UNL     1      32.960 -19.497 -20.898  0.00  0.00    +0.035 C 
BRANCH  11  16
ATOM     16  O   UNL     1      36.664 -19.941 -20.853  0.00  0.00    -0.382 OA
ATOM     17  H   UNL     1      36.449 -20.794 -21.260  0.00  0.00    +0.210 HD
ENDBRANCH  11  16
ENDBRANCH   3  12
TORSDOF 2
ENDMDL
MODEL 6
REMARK VINA RESULT:      -7.0      6.274      9.132
REMARK  Name = 444320
REMARK  2 active torsions:
REMARK  status: ('A' for Active; 'I' for Inactive)
REMARK    1  A    between atoms: N_3  and  C_12
REMARK    2  A    between atoms: C_11  and  O_16
REMARK                            x       y       z     vdW  Elec       q    Type
REMARK                         _______ _______ _______ _____ _____    ______ ____
ROOT
ATOM      1  O   UNL     1      37.381 -21.908 -16.650  0.00  0.00    -0.252 OA
ATOM      2  O   UNL     1      33.073 -23.141 -17.728  0.00  0.00    -0.270 OA
ATOM      3  N   UNL     1      36.135 -23.079 -15.059  0.00  0.00    -0.219 N 
ATOM      4  N   UNL     1      35.236 -22.522 -17.184  0.00  0.00    -0.236 N 
ATOM      5  C   UNL     1      36.333 -22.463 -16.315  0.00  0.00    +0.315 C 
ATOM      6  C   UNL     1      34.923 -23.687 -14.760  0.00  0.00    +0.076 C 
ATOM      7  C   UNL     1      33.886 -23.735 -15.599  0.00  0.00    +0.074 C 
ATOM      8  C   UNL     1      34.008 -23.114 -16.933  0.00  0.00    +0.254 C 
ATOM      9  H   UNL     1      35.349 -22.099 -18.067  0.00  0.00    +0.159 HD
ENDROOT
BRANCH   3  12
ATOM     10  O   UNL     1      38.081 -24.173 -14.355  0.00  0.00    -0.337 OA
ATOM     11  C   UNL     1      37.806 -24.009 -12.005  0.00  0.00    +0.142 C 
ATOM     12  C   UNL     1      37.191 -23.078 -14.090  0.00  0.00    +0.202 C 
ATOM     13  C   UNL     1      36.685 -23.241 -12.665  0.00  0.00    +0.083 C 
ATOM     14  C   UNL     1      38.330 -24.891 -13.131  0.00  0.00    +0.144 C 
ATOM     15  C   UNL     1      37.609 -26.230 -13.219  0.00  0.00    +0.035 C 
BRANCH  11  16
ATOM     16  O   UNL     1      38.825 -23.104 -11.584  0.00  0.00    -0.382 OA
ATOM     17  H   UNL     1      39.695 -23.477 -11.796  0.00  0.00    +0.210 HD
ENDBRANCH  11  16
ENDBRANCH   3  12
TORSDOF 2
ENDMDL
MODEL 7
REMARK VINA RESULT:      -7.0      8.038     10.223
REMARK  Name = 444320
REMARK  2 active torsions:
REMARK  status: ('A' for Active; 'I' for Inactive)
REMARK    1  A    between atoms: N_3  and  C_12
REMARK    2  A    between atoms: C_11  and  O_16
REMARK                            x       y       z     vdW  Elec       q    Type
REMARK                         _______ _______ _______ _____ _____    ______ ____
ROOT
ATOM      1  O   UNL     1      37.352 -26.539 -11.962  0.00  0.00    -0.252 OA
ATOM      2  O   UNL     1      41.043 -25.129 -14.336  0.00  0.00    -0.270 OA
ATOM      3  N   UNL     1      37.006 -25.298 -13.911  0.00  0.00    -0.219 N 
ATOM      4  N   UNL     1      39.189 -25.835 -13.145  0.00  0.00    -0.236 N 
ATOM      5  C   UNL     1      37.807 -25.934 -12.935  0.00  0.00    +0.315 C 
ATOM      6  C   UNL     1      37.597 -24.639 -14.981  0.00  0.00    +0.076 C 
ATOM      7  C   UNL     1      38.915 -24.553 -15.167  0.00  0.00    +0.074 C 
ATOM      8  C   UNL     1      39.825 -25.189 -14.193  0.00  0.00    +0.254 C 
ATOM      9  H   UNL     1      39.768 -26.270 -12.478  0.00  0.00    +0.159 HD
ENDROOT
BRANCH   3  12
ATOM     10  O   UNL     1      34.992 -25.207 -15.100  0.00  0.00    -0.337 OA
ATOM     11  C   UNL     1      33.689 -23.928 -13.587  0.00  0.00    +0.142 C 
ATOM     12  C   UNL     1      35.578 -25.335 -13.796  0.00  0.00    +0.202 C 
ATOM     13  C   UNL     1      35.025 -24.208 -12.939  0.00  0.00    +0.083 C 
ATOM     14  C   UNL     1      33.956 -24.208 -15.061  0.00  0.00    +0.144 C 
ATOM     15  C   UNL     1      34.457 -22.983 -15.815  0.00  0.00    +0.035 C 
BRANCH  11  16
ATOM     16  O   UNL     1      32.713 -24.841 -13.089  0.00  0.00    -0.382 OA
ATOM     17  H   UNL     1      32.160 -25.154 -13.823  0.00  0.00    +0.210 HD
ENDBRANCH  11  16
ENDBRANCH   3  12
TORSDOF 2
ENDMDL
MODEL 8
REMARK VINA RESULT:      -7.0      7.009      8.724
REMARK  Name = 444320
REMARK  2 active torsions:
REMARK  status: ('A' for Active; 'I' for Inactive)
REMARK    1  A    between atoms: N_3  and  C_12
REMARK    2  A    between atoms: C_11  and  O_16
REMARK                            x       y       z     vdW  Elec       q    Type
REMARK                         _______ _______ _______ _____ _____    ______ ____
ROOT
ATOM      1  O   UNL     1      32.532 -24.161 -13.123  0.00  0.00    -0.252 OA
ATOM      2  O   UNL     1      30.519 -22.659 -16.989  0.00  0.00    -0.270 OA
ATOM      3  N   UNL     1      33.859 -23.882 -15.025  0.00  0.00    -0.219 N 
ATOM      4  N   UNL     1      31.532 -23.414 -15.049  0.00  0.00    -0.236 N 
ATOM      5  C   UNL     1      32.641 -23.844 -14.310  0.00  0.00    +0.315 C 
ATOM      6  C   UNL     1      33.899 -23.506 -16.362  0.00  0.00    +0.076 C 
ATOM      7  C   UNL     1      32.833 -23.098 -17.053  0.00  0.00    +0.074 C 
ATOM      8  C   UNL     1      31.519 -23.031 -16.381  0.00  0.00    +0.254 C 
ATOM      9  H   UNL     1      30.670 -23.380 -14.573  0.00  0.00    +0.159 HD
ENDROOT
BRANCH   3  12
ATOM     10  O   UNL     1      35.934 -23.183 -14.198  0.00  0.00    -0.337 OA
ATOM     11  C   UNL     1      37.261 -25.051 -14.809  0.00  0.00    +0.142 C 
ATOM     12  C   UNL     1      35.060 -24.308 -14.368  0.00  0.00    +0.202 C 
ATOM     13  C   UNL     1      35.823 -25.360 -15.157  0.00  0.00    +0.083 C 
ATOM     14  C   UNL     1      37.258 -23.537 -14.642  0.00  0.00    +0.144 C 
ATOM     15  C   UNL     1      37.528 -22.797 -15.946  0.00  0.00    +0.035 C 
BRANCH  11  16
ATOM     16  O   UNL     1      37.599 -25.674 -13.571  0.00  0.00    -0.382 OA
ATOM     17  H   UNL     1      37.179 -25.192 -12.842  0.00  0.00    +0.210 HD
ENDBRANCH  11  16
ENDBRANCH   3  12
TORSDOF 2
ENDMDL
MODEL 9
REMARK VINA RESULT:      -7.0      6.326      9.592
REMARK  Name = 444320
REMARK  2 active torsions:
REMARK  status: ('A' for Active; 'I' for Inactive)
REMARK    1  A    between atoms: N_3  and  C_12
REMARK    2  A    between atoms: C_11  and  O_16
REMARK                            x       y       z     vdW  Elec       q    Type
REMARK                         _______ _______ _______ _____ _____    ______ ____
ROOT
ATOM      1  O   UNL     1      34.220 -23.962 -15.331  0.00  0.00    -0.252 OA
ATOM      2  O   UNL     1      36.069 -21.292 -18.602  0.00  0.00    -0.270 OA
ATOM      3  N   UNL     1      36.496 -23.455 -15.189  0.00  0.00    -0.219 N 
ATOM      4  N   UNL     1      35.143 -22.634 -16.959  0.00  0.00    -0.236 N 
ATOM      5  C   UNL     1      35.216 -23.396 -15.786  0.00  0.00    +0.315 C 
ATOM      6  C   UNL     1      37.568 -22.785 -15.764  0.00  0.00    +0.076 C 
ATOM      7  C   UNL     1      37.483 -22.063 -16.882  0.00  0.00    +0.074 C 
ATOM      8  C   UNL     1      36.181 -21.950 -17.571  0.00  0.00    +0.254 C 
ATOM      9  H   UNL     1      34.261 -22.578 -17.394  0.00  0.00    +0.159 HD
ENDROOT
BRANCH   3  12
ATOM     10  O   UNL     1      37.981 -23.910 -13.438  0.00  0.00    -0.337 OA
ATOM     11  C   UNL     1      37.599 -26.236 -13.181  0.00  0.00    +0.142 C 
ATOM     12  C   UNL     1      36.688 -24.208 -13.985  0.00  0.00    +0.202 C 
ATOM     13  C   UNL     1      36.626 -25.710 -14.212  0.00  0.00    +0.083 C 
ATOM     14  C   UNL     1      38.654 -25.141 -13.112  0.00  0.00    +0.144 C 
ATOM     15  C   UNL     1      39.781 -25.339 -14.118  0.00  0.00    +0.035 C 
BRANCH  11  16
ATOM     16  O   UNL     1      36.943 -26.358 -11.920  0.00  0.00    -0.382 OA
ATOM     17  H   UNL     1      36.187 -26.959 -12.007  0.00  0.00    +0.210 HD
ENDBRANCH  11  16
ENDBRANCH   3  12
TORSDOF 2
ENDMDL
