MODEL 1
REMARK VINA RESULT:      -7.6      0.000      0.000
REMARK  Name = 445720
REMARK  5 active torsions:
REMARK  status: ('A' for Active; 'I' for Inactive)
REMARK    1  A    between atoms: C_7  and  O_15
REMARK    2  A    between atoms: C_8  and  O_17
REMARK    3  A    between atoms: C_9  and  O_19
REMARK    4  A    between atoms: C_10  and  C_21
REMARK    5  A    between atoms: C_21  and  O_22
REMARK                            x       y       z     vdW  Elec       q    Type
REMARK                         _______ _______ _______ _____ _____    ______ ____
ROOT
ATOM      1  O   UNL     1      36.484 -23.170 -14.048  0.00  0.00    -0.330 OA
ATOM      2  O   UNL     1      33.868 -24.754 -13.734  0.00  0.00    -0.270 OA
ATOM      3  O   UNL     1      34.199 -22.455 -17.702  0.00  0.00    -0.252 OA
ATOM      4  N   UNL     1      35.795 -23.324 -16.243  0.00  0.00    -0.261 N 
ATOM      5  N   UNL     1      33.645 -23.586 -15.734  0.00  0.00    -0.209 N 
ATOM      6  C   UNL     1      35.852 -24.030 -14.977  0.00  0.00    +0.251 C 
ATOM      7  C   UNL     1      36.598 -25.359 -15.143  0.00  0.00    +0.191 C 
ATOM      8  C   UNL     1      36.904 -26.014 -13.798  0.00  0.00    +0.171 C 
ATOM      9  C   UNL     1      37.547 -25.009 -12.844  0.00  0.00    +0.169 C 
ATOM     10  C   UNL     1      36.712 -23.731 -12.755  0.00  0.00    +0.176 C 
ATOM     11  C   UNL     1      34.342 -24.187 -14.709  0.00  0.00    +0.278 C 
ATOM     12  C   UNL     1      34.498 -23.053 -16.676  0.00  0.00    +0.312 C 
ATOM     13  C   UNL     1      32.199 -23.520 -15.830  0.00  0.00    +0.125 C 
ATOM     14  H   UNL     1      36.597 -23.061 -16.749  0.00  0.00    +0.154 HD
ENDROOT
BRANCH   7  15
ATOM     15  O   UNL     1      35.847 -26.276 -15.936  0.00  0.00    -0.378 OA
ATOM     16  H   UNL     1      36.354 -27.096 -16.048  0.00  0.00    +0.211 HD
ENDBRANCH   7  15
BRANCH   8  17
ATOM     17  O   UNL     1      37.824 -27.090 -14.000  0.00  0.00    -0.379 OA
ATOM     18  H   UNL     1      38.727 -26.741 -14.040  0.00  0.00    +0.211 HD
ENDBRANCH   8  17
BRANCH   9  19
ATOM     19  O   UNL     1      37.650 -25.592 -11.547  0.00  0.00    -0.379 OA
ATOM     20  H   UNL     1      36.768 -25.858 -11.242  0.00  0.00    +0.211 HD
ENDBRANCH   9  19
BRANCH  10  21
ATOM     21  C   UNL     1      37.413 -22.663 -11.918  0.00  0.00    +0.169 C 
BRANCH  21  22
ATOM     22  O   UNL     1      38.741 -23.085 -11.671  0.00  0.00    -0.379 OA
ATOM     23  H   UNL     1      39.061 -22.681 -10.849  0.00  0.00    +0.211 HD
ENDBRANCH  21  22
ENDBRANCH  10  21
TORSDOF 5
ENDMDL
MODEL 2
REMARK VINA RESULT:      -7.3      7.095     10.551
REMARK  Name = 445720
REMARK  5 active torsions:
REMARK  status: ('A' for Active; 'I' for Inactive)
REMARK    1  A    between atoms: C_7  and  O_15
REMARK    2  A    between atoms: C_8  and  O_17
REMARK    3  A    between atoms: C_9  and  O_19
REMARK    4  A    between atoms: C_10  and  C_21
REMARK    5  A    between atoms: C_21  and  O_22
REMARK                            x       y       z     vdW  Elec       q    Type
REMARK                         _______ _______ _______ _____ _____    ______ ____
ROOT
ATOM      1  O   UNL     1      33.803 -17.590 -21.030  0.00  0.00    -0.330 OA
ATOM      2  O   UNL     1      36.682 -18.665 -21.123  0.00  0.00    -0.270 OA
ATOM      3  O   UNL     1      33.568 -21.767 -19.774  0.00  0.00    -0.252 OA
ATOM      4  N   UNL     1      33.423 -19.863 -21.110  0.00  0.00    -0.261 N 
ATOM      5  N   UNL     1      35.403 -20.402 -20.249  0.00  0.00    -0.209 N 
ATOM      6  C   UNL     1      34.281 -18.797 -21.594  0.00  0.00    +0.251 C 
ATOM      7  C   UNL     1      34.278 -18.768 -23.126  0.00  0.00    +0.191 C 
ATOM      8  C   UNL     1      34.957 -17.516 -23.674  0.00  0.00    +0.171 C 
ATOM      9  C   UNL     1      34.414 -16.264 -22.988  0.00  0.00    +0.169 C 
ATOM     10  C   UNL     1      34.474 -16.408 -21.466  0.00  0.00    +0.176 C 
ATOM     11  C   UNL     1      35.618 -19.252 -20.976  0.00  0.00    +0.278 C 
ATOM     12  C   UNL     1      34.083 -20.794 -20.310  0.00  0.00    +0.312 C 
ATOM     13  C   UNL     1      36.424 -21.125 -19.514  0.00  0.00    +0.125 C 
ATOM     14  H   UNL     1      32.465 -19.923 -21.326  0.00  0.00    +0.154 HD
ENDROOT
BRANCH   7  15
ATOM     15  O   UNL     1      34.933 -19.915 -23.665  0.00  0.00    -0.378 OA
ATOM     16  H   UNL     1      35.166 -19.747 -24.592  0.00  0.00    +0.211 HD
ENDBRANCH   7  15
BRANCH   8  17
ATOM     17  O   UNL     1      34.687 -17.410 -25.074  0.00  0.00    -0.379 OA
ATOM     18  H   UNL     1      35.513 -17.233 -25.550  0.00  0.00    +0.211 HD
ENDBRANCH   8  17
BRANCH   9  19
ATOM     19  O   UNL     1      35.191 -15.136 -23.382  0.00  0.00    -0.379 OA
ATOM     20  H   UNL     1      35.109 -14.437 -22.714  0.00  0.00    +0.211 HD
ENDBRANCH   9  19
BRANCH  10  21
ATOM     21  C   UNL     1      33.804 -15.226 -20.767  0.00  0.00    +0.169 C 
BRANCH  21  22
ATOM     22  O   UNL     1      32.752 -14.755 -21.588  0.00  0.00    -0.379 OA
ATOM     23  H   UNL     1      31.900 -15.000 -21.194  0.00  0.00    +0.211 HD
ENDBRANCH  21  22
ENDBRANCH  10  21
TORSDOF 5
ENDMDL
MODEL 3
REMARK VINA RESULT:      -7.2      1.894      4.990
REMARK  Name = 445720
REMARK  5 active torsions:
REMARK  status: ('A' for Active; 'I' for Inactive)
REMARK    1  A    between atoms: C_7  and  O_15
REMARK    2  A    between atoms: C_8  and  O_17
REMARK    3  A    between atoms: C_9  and  O_19
REMARK    4  A    between atoms: C_10  and  C_21
REMARK    5  A    between atoms: C_21  and  O_22
REMARK                            x       y       z     vdW  Elec       q    Type
REMARK                         _______ _______ _______ _____ _____    ______ ____
ROOT
ATOM      1  O   UNL     1      36.210 -22.627 -14.997  0.00  0.00    -0.330 OA
ATOM      2  O   UNL     1      36.324 -25.689 -15.250  0.00  0.00    -0.270 OA
ATOM      3  O   UNL     1      36.712 -24.153 -10.934  0.00  0.00    -0.252 OA
ATOM      4  N   UNL     1      35.704 -23.268 -12.840  0.00  0.00    -0.261 N 
ATOM      5  N   UNL     1      36.719 -25.242 -13.001  0.00  0.00    -0.209 N 
ATOM      6  C   UNL     1      35.523 -23.606 -14.240  0.00  0.00    +0.251 C 
ATOM      7  C   UNL     1      34.030 -23.666 -14.581  0.00  0.00    +0.191 C 
ATOM      8  C   UNL     1      33.792 -23.766 -16.086  0.00  0.00    +0.171 C 
ATOM      9  C   UNL     1      34.599 -22.703 -16.830  0.00  0.00    +0.169 C 
ATOM     10  C   UNL     1      36.070 -22.744 -16.413  0.00  0.00    +0.176 C 
ATOM     11  C   UNL     1      36.228 -24.977 -14.260  0.00  0.00    +0.278 C 
ATOM     12  C   UNL     1      36.419 -24.225 -12.121  0.00  0.00    +0.312 C 
ATOM     13  C   UNL     1      37.453 -26.437 -12.629  0.00  0.00    +0.125 C 
ATOM     14  H   UNL     1      35.355 -22.441 -12.436  0.00  0.00    +0.154 HD
ENDROOT
BRANCH   7  15
ATOM     15  O   UNL     1      33.400 -24.777 -13.946  0.00  0.00    -0.378 OA
ATOM     16  H   UNL     1      32.464 -24.572 -13.790  0.00  0.00    +0.211 HD
ENDBRANCH   7  15
BRANCH   8  17
ATOM     17  O   UNL     1      32.406 -23.546 -16.358  0.00  0.00    -0.379 OA
ATOM     18  H   UNL     1      32.315 -22.960 -17.125  0.00  0.00    +0.211 HD
ENDBRANCH   8  17
BRANCH   9  19
ATOM     19  O   UNL     1      34.504 -22.938 -18.233  0.00  0.00    -0.379 OA
ATOM     20  H   UNL     1      34.629 -23.883 -18.412  0.00  0.00    +0.211 HD
ENDBRANCH   9  19
BRANCH  10  21
ATOM     21  C   UNL     1      36.860 -21.597 -17.039  0.00  0.00    +0.169 C 
BRANCH  21  22
ATOM     22  O   UNL     1      36.923 -21.806 -18.438  0.00  0.00    -0.379 OA
ATOM     23  H   UNL     1      37.713 -22.326 -18.652  0.00  0.00    +0.211 HD
ENDBRANCH  21  22
ENDBRANCH  10  21
TORSDOF 5
ENDMDL
MODEL 4
REMARK VINA RESULT:      -7.1      1.873      5.144
REMARK  Name = 445720
REMARK  5 active torsions:
REMARK  status: ('A' for Active; 'I' for Inactive)
REMARK    1  A    between atoms: C_7  and  O_15
REMARK    2  A    between atoms: C_8  and  O_17
REMARK    3  A    between atoms: C_9  and  O_19
REMARK    4  A    between atoms: C_10  and  C_21
REMARK    5  A    between atoms: C_21  and  O_22
REMARK                            x       y       z     vdW  Elec       q    Type
REMARK                         _______ _______ _______ _____ _____    ______ ____
ROOT
ATOM      1  O   UNL     1      35.340 -23.214 -15.745  0.00  0.00    -0.330 OA
ATOM      2  O   UNL     1      35.367 -26.269 -15.396  0.00  0.00    -0.270 OA
ATOM      3  O   UNL     1      38.868 -24.117 -13.334  0.00  0.00    -0.252 OA
ATOM      4  N   UNL     1      36.715 -23.436 -13.907  0.00  0.00    -0.261 N 
ATOM      5  N   UNL     1      37.332 -25.517 -14.400  0.00  0.00    -0.209 N 
ATOM      6  C   UNL     1      35.536 -23.970 -14.565  0.00  0.00    +0.251 C 
ATOM      7  C   UNL     1      34.329 -23.906 -13.623  0.00  0.00    +0.191 C 
ATOM      8  C   UNL     1      33.022 -24.217 -14.348  0.00  0.00    +0.171 C 
ATOM      9  C   UNL     1      32.907 -23.391 -15.628  0.00  0.00    +0.169 C 
ATOM     10  C   UNL     1      34.164 -23.539 -16.487  0.00  0.00    +0.176 C 
ATOM     11  C   UNL     1      36.035 -25.400 -14.851  0.00  0.00    +0.278 C 
ATOM     12  C   UNL     1      37.771 -24.343 -13.826  0.00  0.00    +0.312 C 
ATOM     13  C   UNL     1      38.143 -26.715 -14.501  0.00  0.00    +0.125 C 
ATOM     14  H   UNL     1      36.765 -22.519 -13.553  0.00  0.00    +0.154 HD
ENDROOT
BRANCH   7  15
ATOM     15  O   UNL     1      34.475 -24.818 -12.535  0.00  0.00    -0.378 OA
ATOM     16  H   UNL     1      34.672 -24.323 -11.724  0.00  0.00    +0.211 HD
ENDBRANCH   7  15
BRANCH   8  17
ATOM     17  O   UNL     1      31.923 -23.880 -13.498  0.00  0.00    -0.379 OA
ATOM     18  H   UNL     1      31.665 -22.958 -13.653  0.00  0.00    +0.211 HD
ENDBRANCH   8  17
BRANCH   9  19
ATOM     19  O   UNL     1      31.776 -23.834 -16.373  0.00  0.00    -0.379 OA
ATOM     20  H   UNL     1      31.638 -24.782 -16.219  0.00  0.00    +0.211 HD
ENDBRANCH   9  19
BRANCH  10  21
ATOM     21  C   UNL     1      34.125 -22.610 -17.698  0.00  0.00    +0.169 C 
BRANCH  21  22
ATOM     22  O   UNL     1      33.692 -23.354 -18.822  0.00  0.00    -0.379 OA
ATOM     23  H   UNL     1      32.727 -23.295 -18.897  0.00  0.00    +0.211 HD
ENDBRANCH  21  22
ENDBRANCH  10  21
TORSDOF 5
ENDMDL
MODEL 5
REMARK VINA RESULT:      -6.9      1.852      2.296
REMARK  Name = 445720
REMARK  5 active torsions:
REMARK  status: ('A' for Active; 'I' for Inactive)
REMARK    1  A    between atoms: C_7  and  O_15
REMARK    2  A    between atoms: C_8  and  O_17
REMARK    3  A    between atoms: C_9  and  O_19
REMARK    4  A    between atoms: C_10  and  C_21
REMARK    5  A    between atoms: C_21  and  O_22
REMARK                            x       y       z     vdW  Elec       q    Type
REMARK                         _______ _______ _______ _____ _____    ______ ____
ROOT
ATOM      1  O   UNL     1      36.655 -23.241 -13.267  0.00  0.00    -0.330 OA
ATOM      2  O   UNL     1      35.418 -24.960 -15.496  0.00  0.00    -0.270 OA
ATOM      3  O   UNL     1      36.882 -20.836 -16.906  0.00  0.00    -0.252 OA
ATOM      4  N   UNL     1      37.522 -22.220 -15.144  0.00  0.00    -0.261 N 
ATOM      5  N   UNL     1      35.887 -22.908 -16.488  0.00  0.00    -0.209 N 
ATOM      6  C   UNL     1      37.152 -23.499 -14.566  0.00  0.00    +0.251 C 
ATOM      7  C   UNL     1      38.359 -24.444 -14.553  0.00  0.00    +0.191 C 
ATOM      8  C   UNL     1      38.090 -25.701 -13.730  0.00  0.00    +0.171 C 
ATOM      9  C   UNL     1      37.520 -25.338 -12.361  0.00  0.00    +0.169 C 
ATOM     10  C   UNL     1      36.320 -24.399 -12.502  0.00  0.00    +0.176 C 
ATOM     11  C   UNL     1      36.043 -23.910 -15.556  0.00  0.00    +0.278 C 
ATOM     12  C   UNL     1      36.767 -21.871 -16.262  0.00  0.00    +0.312 C 
ATOM     13  C   UNL     1      34.930 -22.928 -17.578  0.00  0.00    +0.125 C 
ATOM     14  H   UNL     1      38.238 -21.652 -14.780  0.00  0.00    +0.154 HD
ENDROOT
BRANCH   7  15
ATOM     15  O   UNL     1      38.723 -24.834 -15.876  0.00  0.00    -0.378 OA
ATOM     16  H   UNL     1      37.923 -25.037 -16.385  0.00  0.00    +0.211 HD
ENDBRANCH   7  15
BRANCH   8  17
ATOM     17  O   UNL     1      39.320 -26.402 -13.530  0.00  0.00    -0.379 OA
ATOM     18  H   UNL     1      39.937 -26.183 -14.245  0.00  0.00    +0.211 HD
ENDBRANCH   8  17
BRANCH   9  19
ATOM     19  O   UNL     1      37.108 -26.527 -11.692  0.00  0.00    -0.379 OA
ATOM     20  H   UNL     1      36.888 -27.207 -12.348  0.00  0.00    +0.211 HD
ENDBRANCH   9  19
BRANCH  10  21
ATOM     21  C   UNL     1      35.828 -23.914 -11.140  0.00  0.00    +0.169 C 
BRANCH  21  22
ATOM     22  O   UNL     1      35.244 -25.007 -10.457  0.00  0.00    -0.379 OA
ATOM     23  H   UNL     1      34.784 -24.685  -9.666  0.00  0.00    +0.211 HD
ENDBRANCH  21  22
ENDBRANCH  10  21
TORSDOF 5
ENDMDL
MODEL 6
REMARK VINA RESULT:      -6.8      7.569     11.184
REMARK  Name = 445720
REMARK  5 active torsions:
REMARK  status: ('A' for Active; 'I' for Inactive)
REMARK    1  A    between atoms: C_7  and  O_15
REMARK    2  A    between atoms: C_8  and  O_17
REMARK    3  A    between atoms: C_9  and  O_19
REMARK    4  A    between atoms: C_10  and  C_21
REMARK    5  A    between atoms: C_21  and  O_22
REMARK                            x       y       z     vdW  Elec       q    Type
REMARK                         _______ _______ _______ _____ _____    ______ ____
ROOT
ATOM      1  O   UNL     1      35.302 -18.313 -23.194  0.00  0.00    -0.330 OA
ATOM      2  O   UNL     1      32.907 -18.732 -21.311  0.00  0.00    -0.270 OA
ATOM      3  O   UNL     1      36.753 -20.850 -19.948  0.00  0.00    -0.252 OA
ATOM      4  N   UNL     1      36.371 -18.960 -21.256  0.00  0.00    -0.261 N 
ATOM      5  N   UNL     1      34.613 -20.055 -20.443  0.00  0.00    -0.209 N 
ATOM      6  C   UNL     1      35.252 -18.202 -21.784  0.00  0.00    +0.251 C 
ATOM      7  C   UNL     1      35.328 -16.746 -21.310  0.00  0.00    +0.191 C 
ATOM      8  C   UNL     1      34.324 -15.856 -22.039  0.00  0.00    +0.171 C 
ATOM      9  C   UNL     1      34.415 -16.066 -23.549  0.00  0.00    +0.169 C 
ATOM     10  C   UNL     1      34.322 -17.552 -23.899  0.00  0.00    +0.176 C 
ATOM     11  C   UNL     1      34.091 -19.005 -21.165  0.00  0.00    +0.278 C 
ATOM     12  C   UNL     1      35.991 -20.055 -20.482  0.00  0.00    +0.312 C 
ATOM     13  C   UNL     1      33.829 -21.039 -19.721  0.00  0.00    +0.125 C 
ATOM     14  H   UNL     1      37.311 -18.725 -21.429  0.00  0.00    +0.154 HD
ENDROOT
BRANCH   7  15
ATOM     15  O   UNL     1      35.091 -16.647 -19.907  0.00  0.00    -0.378 OA
ATOM     16  H   UNL     1      34.817 -17.513 -19.564  0.00  0.00    +0.211 HD
ENDBRANCH   7  15
BRANCH   8  17
ATOM     17  O   UNL     1      34.623 -14.486 -21.759  0.00  0.00    -0.379 OA
ATOM     18  H   UNL     1      35.505 -14.422 -21.360  0.00  0.00    +0.211 HD
ENDBRANCH   8  17
BRANCH   9  19
ATOM     19  O   UNL     1      33.348 -15.367 -24.186  0.00  0.00    -0.379 OA
ATOM     20  H   UNL     1      32.671 -16.001 -24.470  0.00  0.00    +0.211 HD
ENDBRANCH   9  19
BRANCH  10  21
ATOM     21  C   UNL     1      34.553 -17.790 -25.390  0.00  0.00    +0.169 C 
BRANCH  21  22
ATOM     22  O   UNL     1      35.234 -16.669 -25.924  0.00  0.00    -0.379 OA
ATOM     23  H   UNL     1      36.146 -16.657 -25.594  0.00  0.00    +0.211 HD
ENDBRANCH  21  22
ENDBRANCH  10  21
TORSDOF 5
ENDMDL
MODEL 7
REMARK VINA RESULT:      -6.8      1.715      3.607
REMARK  Name = 445720
REMARK  5 active torsions:
REMARK  status: ('A' for Active; 'I' for Inactive)
REMARK    1  A    between atoms: C_7  and  O_15
REMARK    2  A    between atoms: C_8  and  O_17
REMARK    3  A    between atoms: C_9  and  O_19
REMARK    4  A    between atoms: C_10  and  C_21
REMARK    5  A    between atoms: C_21  and  O_22
REMARK                            x       y       z     vdW  Elec       q    Type
REMARK                         _______ _______ _______ _____ _____    ______ ____
ROOT
ATOM      1  O   UNL     1      36.120 -25.709 -14.046  0.00  0.00    -0.330 OA
ATOM      2  O   UNL     1      35.754 -22.919 -15.284  0.00  0.00    -0.270 OA
ATOM      3  O   UNL     1      31.979 -24.573 -13.247  0.00  0.00    -0.252 OA
ATOM      4  N   UNL     1      34.251 -24.967 -12.917  0.00  0.00    -0.261 N 
ATOM      5  N   UNL     1      33.648 -23.528 -14.504  0.00  0.00    -0.209 N 
ATOM      6  C   UNL     1      35.526 -24.558 -13.476  0.00  0.00    +0.251 C 
ATOM      7  C   UNL     1      36.404 -23.925 -12.390  0.00  0.00    +0.191 C 
ATOM      8  C   UNL     1      37.838 -23.712 -12.868  0.00  0.00    +0.171 C 
ATOM      9  C   UNL     1      38.389 -24.987 -13.503  0.00  0.00    +0.169 C 
ATOM     10  C   UNL     1      37.434 -25.520 -14.572  0.00  0.00    +0.176 C 
ATOM     11  C   UNL     1      35.025 -23.561 -14.540  0.00  0.00    +0.278 C 
ATOM     12  C   UNL     1      33.152 -24.371 -13.532  0.00  0.00    +0.312 C 
ATOM     13  C   UNL     1      32.812 -22.712 -15.363  0.00  0.00    +0.125 C 
ATOM     14  H   UNL     1      34.170 -25.606 -12.172  0.00  0.00    +0.154 HD
ENDROOT
BRANCH   7  15
ATOM     15  O   UNL     1      35.874 -22.670 -11.966  0.00  0.00    -0.378 OA
ATOM     16  H   UNL     1      36.388 -21.951 -12.365  0.00  0.00    +0.211 HD
ENDBRANCH   7  15
BRANCH   8  17
ATOM     17  O   UNL     1      38.661 -23.380 -11.746  0.00  0.00    -0.379 OA
ATOM     18  H   UNL     1      39.195 -24.149 -11.498  0.00  0.00    +0.211 HD
ENDBRANCH   8  17
BRANCH   9  19
ATOM     19  O   UNL     1      39.652 -24.707 -14.102  0.00  0.00    -0.379 OA
ATOM     20  H   UNL     1      40.360 -24.903 -13.469  0.00  0.00    +0.211 HD
ENDBRANCH   9  19
BRANCH  10  21
ATOM     21  C   UNL     1      37.900 -26.869 -15.115  0.00  0.00    +0.169 C 
BRANCH  21  22
ATOM     22  O   UNL     1      37.022 -27.264 -16.153  0.00  0.00    -0.379 OA
ATOM     23  H   UNL     1      36.204 -26.745 -16.100  0.00  0.00    +0.211 HD
ENDBRANCH  21  22
ENDBRANCH  10  21
TORSDOF 5
ENDMDL
MODEL 8
REMARK VINA RESULT:      -6.6      7.446      9.683
REMARK  Name = 445720
REMARK  5 active torsions:
REMARK  status: ('A' for Active; 'I' for Inactive)
REMARK    1  A    between atoms: C_7  and  O_15
REMARK    2  A    between atoms: C_8  and  O_17
REMARK    3  A    between atoms: C_9  and  O_19
REMARK    4  A    between atoms: C_10  and  C_21
REMARK    5  A    between atoms: C_21  and  O_22
REMARK                            x       y       z     vdW  Elec       q    Type
REMARK                         _______ _______ _______ _____ _____    ______ ____
ROOT
ATOM      1  O   UNL     1      33.947 -18.680 -21.017  0.00  0.00    -0.330 OA
ATOM      2  O   UNL     1      34.902 -19.622 -23.784  0.00  0.00    -0.270 OA
ATOM      3  O   UNL     1      34.589 -15.054 -23.367  0.00  0.00    -0.252 OA
ATOM      4  N   UNL     1      34.941 -16.760 -21.819  0.00  0.00    -0.261 N 
ATOM      5  N   UNL     1      34.687 -17.312 -23.960  0.00  0.00    -0.209 N 
ATOM      6  C   UNL     1      35.037 -18.208 -21.787  0.00  0.00    +0.251 C 
ATOM      7  C   UNL     1      36.390 -18.638 -21.210  0.00  0.00    +0.191 C 
ATOM      8  C   UNL     1      36.437 -20.136 -20.922  0.00  0.00    +0.171 C 
ATOM      9  C   UNL     1      35.210 -20.570 -20.124  0.00  0.00    +0.169 C 
ATOM     10  C   UNL     1      33.923 -20.091 -20.798  0.00  0.00    +0.176 C 
ATOM     11  C   UNL     1      34.872 -18.502 -23.292  0.00  0.00    +0.278 C 
ATOM     12  C   UNL     1      34.722 -16.240 -23.093  0.00  0.00    +0.312 C 
ATOM     13  C   UNL     1      34.488 -17.183 -25.391  0.00  0.00    +0.125 C 
ATOM     14  H   UNL     1      35.023 -16.197 -21.015  0.00  0.00    +0.154 HD
ENDROOT
BRANCH   7  15
ATOM     15  O   UNL     1      37.457 -18.310 -22.099  0.00  0.00    -0.378 OA
ATOM     16  H   UNL     1      37.603 -17.351 -22.088  0.00  0.00    +0.211 HD
ENDBRANCH   7  15
BRANCH   8  17
ATOM     17  O   UNL     1      37.602 -20.427 -20.146  0.00  0.00    -0.379 OA
ATOM     18  H   UNL     1      37.350 -20.948 -19.368  0.00  0.00    +0.211 HD
ENDBRANCH   8  17
BRANCH   9  19
ATOM     19  O   UNL     1      35.187 -21.992 -20.031  0.00  0.00    -0.379 OA
ATOM     20  H   UNL     1      34.566 -22.261 -19.336  0.00  0.00    +0.211 HD
ENDBRANCH   9  19
BRANCH  10  21
ATOM     21  C   UNL     1      32.697 -20.392 -19.940  0.00  0.00    +0.169 C 
BRANCH  21  22
ATOM     22  O   UNL     1      32.680 -21.778 -19.650  0.00  0.00    -0.379 OA
ATOM     23  H   UNL     1      32.762 -22.282 -20.475  0.00  0.00    +0.211 HD
ENDBRANCH  21  22
ENDBRANCH  10  21
TORSDOF 5
ENDMDL
MODEL 9
REMARK VINA RESULT:      -6.5     12.784     15.316
REMARK  Name = 445720
REMARK  5 active torsions:
REMARK  status: ('A' for Active; 'I' for Inactive)
REMARK    1  A    between atoms: C_7  and  O_15
REMARK    2  A    between atoms: C_8  and  O_17
REMARK    3  A    between atoms: C_9  and  O_19
REMARK    4  A    between atoms: C_10  and  C_21
REMARK    5  A    between atoms: C_21  and  O_22
REMARK                            x       y       z     vdW  Elec       q    Type
REMARK                         _______ _______ _______ _____ _____    ______ ____
ROOT
ATOM      1  O   UNL     1      34.239 -12.040 -23.377  0.00  0.00    -0.330 OA
ATOM      2  O   UNL     1      32.236 -13.627 -25.087  0.00  0.00    -0.270 OA
ATOM      3  O   UNL     1      35.568 -16.199 -23.238  0.00  0.00    -0.252 OA
ATOM      4  N   UNL     1      34.593 -14.182 -22.598  0.00  0.00    -0.261 N 
ATOM      5  N   UNL     1      33.863 -15.166 -24.456  0.00  0.00    -0.209 N 
ATOM      6  C   UNL     1      33.581 -13.256 -23.072  0.00  0.00    +0.251 C 
ATOM      7  C   UNL     1      32.486 -13.078 -22.014  0.00  0.00    +0.191 C 
ATOM      8  C   UNL     1      31.541 -11.930 -22.358  0.00  0.00    +0.171 C 
ATOM      9  C   UNL     1      32.329 -10.671 -22.711  0.00  0.00    +0.169 C 
ATOM     10  C   UNL     1      33.384 -10.970 -23.778  0.00  0.00    +0.176 C 
ATOM     11  C   UNL     1      33.119 -14.013 -24.333  0.00  0.00    +0.278 C 
ATOM     12  C   UNL     1      34.764 -15.294 -23.421  0.00  0.00    +0.312 C 
ATOM     13  C   UNL     1      33.723 -16.137 -25.525  0.00  0.00    +0.125 C 
ATOM     14  H   UNL     1      35.110 -14.038 -21.773  0.00  0.00    +0.154 HD
ENDROOT
BRANCH   7  15
ATOM     15  O   UNL     1      31.718 -14.271 -21.862  0.00  0.00    -0.378 OA
ATOM     16  H   UNL     1      32.270 -14.961 -21.461  0.00  0.00    +0.211 HD
ENDBRANCH   7  15
BRANCH   8  17
ATOM     17  O   UNL     1      30.722 -11.641 -21.222  0.00  0.00    -0.379 OA
ATOM     18  H   UNL     1      31.091 -10.884 -20.742  0.00  0.00    +0.211 HD
ENDBRANCH   8  17
BRANCH   9  19
ATOM     19  O   UNL     1      31.434  -9.678 -23.204  0.00  0.00    -0.379 OA
ATOM     20  H   UNL     1      31.720  -9.394 -24.087  0.00  0.00    +0.211 HD
ENDBRANCH   9  19
BRANCH  10  21
ATOM     21  C   UNL     1      34.274  -9.756 -24.039  0.00  0.00    +0.169 C 
BRANCH  21  22
ATOM     22  O   UNL     1      35.576 -10.213 -24.357  0.00  0.00    -0.379 OA
ATOM     23  H   UNL     1      35.915 -10.755 -23.628  0.00  0.00    +0.211 HD
ENDBRANCH  21  22
ENDBRANCH  10  21
TORSDOF 5
ENDMDL
