MODEL 1
REMARK VINA RESULT:      -8.1      0.000      0.000
REMARK  Name = 4369343
REMARK  7 active torsions:
REMARK  status: ('A' for Active; 'I' for Inactive)
REMARK    1  A    between atoms: C_3  and  C_10
REMARK    2  A    between atoms: C_7  and  C_22
REMARK    3  A    between atoms: N_9  and  C_12
REMARK    4  A    between atoms: C_22  and  N_24
REMARK    5  A    between atoms: C_22  and  C_33
REMARK    6  A    between atoms: C_25  and  C_27
REMARK    7  A    between atoms: C_27  and  N_29
REMARK                            x       y       z     vdW  Elec       q    Type
REMARK                         _______ _______ _______ _____ _____    ______ ____
ROOT
ATOM      1  O   UNL     1      35.238 -14.838 -24.362  0.00  0.00    -0.273 OA
ATOM      2  N   UNL     1      33.794 -15.087 -22.569  0.00  0.00    -0.272 N 
ATOM      3  C   UNL     1      34.727 -15.792 -21.700  0.00  0.00    +0.152 C 
ATOM      4  C   UNL     1      34.091 -15.728 -20.317  0.00  0.00    +0.031 C 
ATOM      5  C   UNL     1      32.528 -14.832 -21.887  0.00  0.00    +0.094 C 
ATOM      6  C   UNL     1      32.595 -15.664 -20.616  0.00  0.00    +0.024 C 
ATOM      7  C   UNL     1      34.159 -14.602 -23.816  0.00  0.00    +0.244 C 
ENDROOT
BRANCH   3  10
ATOM      8  O   UNL     1      35.282 -17.463 -23.313  0.00  0.00    -0.273 OA
ATOM      9  N   UNL     1      34.319 -18.115 -21.296  0.00  0.00    -0.301 N 
ATOM     10  C   UNL     1      34.822 -17.201 -22.205  0.00  0.00    +0.241 C 
ATOM     11  H   UNL     1      33.976 -17.781 -20.436  0.00  0.00    +0.150 HD
BRANCH   9  12
ATOM     12  C   UNL     1      34.274 -19.539 -21.552  0.00  0.00    +0.094 C 
ATOM     13  C   UNL     1      32.823 -20.031 -21.587  0.00  0.00    +0.024 C 
ATOM     14  C   UNL     1      35.124 -20.285 -20.546  0.00  0.00    -0.008 C 
ATOM     15  C   UNL     1      32.255 -20.170 -20.178  0.00  0.00    +0.007 C 
ATOM     16  C   UNL     1      33.050 -21.201 -19.381  0.00  0.00    +0.026 C 
ATOM     17  C   UNL     1      34.544 -21.033 -19.503  0.00  0.00    -0.025 C 
ATOM     18  C   UNL     1      36.523 -20.201 -20.633  0.00  0.00    -0.003 C 
ATOM     19  C   UNL     1      35.376 -21.696 -18.586  0.00  0.00    -0.005 C 
ATOM     20  C   UNL     1      37.337 -20.856 -19.710  0.00  0.00    -0.000 C 
ATOM     21  C   UNL     1      36.763 -21.604 -18.687  0.00  0.00    -0.000 C 
ENDBRANCH   9  12
ENDBRANCH   3  10
BRANCH   7  22
ATOM     22  C   UNL     1      33.128 -13.745 -24.506  0.00  0.00    +0.149 C 
BRANCH  22  24
ATOM     23  O   UNL     1      31.738 -11.898 -22.791  0.00  0.00    -0.277 OA
ATOM     24  N   UNL     1      33.521 -12.399 -24.190  0.00  0.00    -0.300 N 
ATOM     25  C   UNL     1      32.786 -11.571 -23.345  0.00  0.00    +0.203 C 
ATOM     26  H   UNL     1      34.350 -12.045 -24.587  0.00  0.00    +0.150 HD
BRANCH  25  27
ATOM     27  C   UNL     1      33.417 -10.193 -23.192  0.00  0.00    +0.017 C 
ATOM     28  C   UNL     1      32.426  -9.111 -23.601  0.00  0.00    -0.014 C 
BRANCH  27  29
ATOM     29  N   UNL     1      34.607 -10.136 -24.037  0.00  0.00    +0.389 N 
ATOM     30  C   UNL     1      34.972  -8.756 -24.323  0.00  0.00    -0.105 C 
ATOM     31  H   UNL     1      34.418 -10.621 -24.913  0.00  0.00    -0.084 HD
ATOM     32  H   UNL     1      35.379 -10.582 -23.542  0.00  0.00    -0.084 HD
ENDBRANCH  27  29
ENDBRANCH  25  27
ENDBRANCH  22  24
BRANCH  22  33
ATOM     33  C   UNL     1      33.008 -14.030 -26.022  0.00  0.00    +0.025 C 
ATOM     34  C   UNL     1      33.119 -15.546 -26.281  0.00  0.00    +0.002 C 
ATOM     35  C   UNL     1      31.624 -13.562 -26.519  0.00  0.00    +0.002 C 
ATOM     36  C   UNL     1      34.090 -13.309 -26.848  0.00  0.00    +0.002 C 
ENDBRANCH  22  33
ENDBRANCH   7  22
TORSDOF 7
ENDMDL
MODEL 2
REMARK VINA RESULT:      -7.5      3.842      6.958
REMARK  Name = 4369343
REMARK  7 active torsions:
REMARK  status: ('A' for Active; 'I' for Inactive)
REMARK    1  A    between atoms: C_3  and  C_10
REMARK    2  A    between atoms: C_7  and  C_22
REMARK    3  A    between atoms: N_9  and  C_12
REMARK    4  A    between atoms: C_22  and  N_24
REMARK    5  A    between atoms: C_22  and  C_33
REMARK    6  A    between atoms: C_25  and  C_27
REMARK    7  A    between atoms: C_27  and  N_29
REMARK                            x       y       z     vdW  Elec       q    Type
REMARK                         _______ _______ _______ _____ _____    ______ ____
ROOT
ATOM      1  O   UNL     1      30.952  -8.882 -23.523  0.00  0.00    -0.273 OA
ATOM      2  N   UNL     1      33.193  -9.395 -23.798  0.00  0.00    -0.272 N 
ATOM      3  C   UNL     1      32.991 -10.612 -24.572  0.00  0.00    +0.152 C 
ATOM      4  C   UNL     1      34.357 -10.918 -25.176  0.00  0.00    +0.031 C 
ATOM      5  C   UNL     1      34.614  -9.084 -23.666  0.00  0.00    +0.094 C 
ATOM      6  C   UNL     1      35.333 -10.328 -24.162  0.00  0.00    +0.024 C 
ATOM      7  C   UNL     1      32.141  -8.586 -23.395  0.00  0.00    +0.244 C 
ENDROOT
BRANCH   3  10
ATOM      8  O   UNL     1      31.994 -11.409 -22.554  0.00  0.00    -0.273 OA
ATOM      9  N   UNL     1      32.883 -12.947 -24.058  0.00  0.00    -0.301 N 
ATOM     10  C   UNL     1      32.556 -11.680 -23.612  0.00  0.00    +0.241 C 
ATOM     11  H   UNL     1      33.335 -13.036 -24.928  0.00  0.00    +0.150 HD
BRANCH   9  12
ATOM     12  C   UNL     1      32.594 -14.148 -23.304  0.00  0.00    +0.094 C 
ATOM     13  C   UNL     1      32.634 -13.860 -21.799  0.00  0.00    +0.024 C 
ATOM     14  C   UNL     1      33.527 -15.268 -23.714  0.00  0.00    -0.008 C 
ATOM     15  C   UNL     1      34.071 -13.775 -21.295  0.00  0.00    +0.007 C 
ATOM     16  C   UNL     1      34.791 -15.105 -21.507  0.00  0.00    +0.026 C 
ATOM     17  C   UNL     1      34.583 -15.688 -22.882  0.00  0.00    -0.025 C 
ATOM     18  C   UNL     1      33.357 -15.879 -24.967  0.00  0.00    -0.003 C 
ATOM     19  C   UNL     1      35.430 -16.721 -23.313  0.00  0.00    -0.005 C 
ATOM     20  C   UNL     1      34.211 -16.897 -25.386  0.00  0.00    -0.000 C 
ATOM     21  C   UNL     1      35.247 -17.319 -24.560  0.00  0.00    -0.000 C 
ENDBRANCH   9  12
ENDBRANCH   3  10
BRANCH   7  22
ATOM     22  C   UNL     1      32.537  -7.277 -22.759  0.00  0.00    +0.149 C 
BRANCH  22  24
ATOM     23  O   UNL     1      33.566  -5.936 -25.088  0.00  0.00    -0.277 OA
ATOM     24  N   UNL     1      31.863  -6.284 -23.550  0.00  0.00    -0.300 N 
ATOM     25  C   UNL     1      32.439  -5.684 -24.667  0.00  0.00    +0.203 C 
ATOM     26  H   UNL     1      30.952  -6.015 -23.291  0.00  0.00    +0.150 HD
BRANCH  25  27
ATOM     27  C   UNL     1      31.516  -4.658 -25.313  0.00  0.00    +0.017 C 
ATOM     28  C   UNL     1      32.325  -3.670 -26.144  0.00  0.00    -0.014 C 
BRANCH  27  29
ATOM     29  N   UNL     1      30.796  -3.957 -24.253  0.00  0.00    +0.389 N 
ATOM     30  C   UNL     1      31.471  -2.715 -23.903  0.00  0.00    -0.105 C 
ATOM     31  H   UNL     1      30.747  -4.555 -23.429  0.00  0.00    -0.084 HD
ATOM     32  H   UNL     1      29.858  -3.735 -24.588  0.00  0.00    -0.084 HD
ENDBRANCH  27  29
ENDBRANCH  25  27
ENDBRANCH  22  24
BRANCH  22  33
ATOM     33  C   UNL     1      32.215  -7.208 -21.247  0.00  0.00    +0.025 C 
ATOM     34  C   UNL     1      33.449  -6.706 -20.470  0.00  0.00    +0.002 C 
ATOM     35  C   UNL     1      31.067  -6.202 -21.017  0.00  0.00    +0.002 C 
ATOM     36  C   UNL     1      31.790  -8.571 -20.668  0.00  0.00    +0.002 C 
ENDBRANCH  22  33
ENDBRANCH   7  22
TORSDOF 7
ENDMDL
MODEL 3
REMARK VINA RESULT:      -6.7      2.240      8.625
REMARK  Name = 4369343
REMARK  7 active torsions:
REMARK  status: ('A' for Active; 'I' for Inactive)
REMARK    1  A    between atoms: C_3  and  C_10
REMARK    2  A    between atoms: C_7  and  C_22
REMARK    3  A    between atoms: N_9  and  C_12
REMARK    4  A    between atoms: C_22  and  N_24
REMARK    5  A    between atoms: C_22  and  C_33
REMARK    6  A    between atoms: C_25  and  C_27
REMARK    7  A    between atoms: C_27  and  N_29
REMARK                            x       y       z     vdW  Elec       q    Type
REMARK                         _______ _______ _______ _____ _____    ______ ____
ROOT
ATOM      1  O   UNL     1      34.215 -12.885 -22.498  0.00  0.00    -0.273 OA
ATOM      2  N   UNL     1      33.704 -13.710 -24.601  0.00  0.00    -0.272 N 
ATOM      3  C   UNL     1      34.169 -12.552 -25.351  0.00  0.00    +0.152 C 
ATOM      4  C   UNL     1      34.264 -13.038 -26.793  0.00  0.00    +0.031 C 
ATOM      5  C   UNL     1      33.258 -14.774 -25.496  0.00  0.00    +0.094 C 
ATOM      6  C   UNL     1      33.198 -14.128 -26.871  0.00  0.00    +0.024 C 
ATOM      7  C   UNL     1      33.835 -13.806 -23.223  0.00  0.00    +0.244 C 
ENDROOT
BRANCH   3  10
ATOM      8  O   UNL     1      32.274 -11.277 -26.046  0.00  0.00    -0.273 OA
ATOM      9  N   UNL     1      33.297 -10.767 -24.019  0.00  0.00    -0.301 N 
ATOM     10  C   UNL     1      33.134 -11.478 -25.193  0.00  0.00    +0.241 C 
ATOM     11  H   UNL     1      34.029 -11.023 -23.412  0.00  0.00    +0.150 HD
BRANCH   9  12
ATOM     12  C   UNL     1      32.442  -9.661 -23.640  0.00  0.00    +0.094 C 
ATOM     13  C   UNL     1      33.128  -8.325 -23.945  0.00  0.00    +0.024 C 
ATOM     14  C   UNL     1      32.021  -9.790 -22.192  0.00  0.00    -0.008 C 
ATOM     15  C   UNL     1      34.181  -7.995 -22.892  0.00  0.00    +0.007 C 
ATOM     16  C   UNL     1      33.535  -7.854 -21.516  0.00  0.00    +0.026 C 
ATOM     17  C   UNL     1      32.567  -8.963 -21.190  0.00  0.00    -0.025 C 
ATOM     18  C   UNL     1      31.091 -10.778 -21.833  0.00  0.00    -0.003 C 
ATOM     19  C   UNL     1      32.154  -9.131 -19.859  0.00  0.00    -0.005 C 
ATOM     20  C   UNL     1      30.697 -10.940 -20.505  0.00  0.00    -0.000 C 
ATOM     21  C   UNL     1      31.228 -10.116 -19.519  0.00  0.00    -0.000 C 
ENDBRANCH   9  12
ENDBRANCH   3  10
BRANCH   7  22
ATOM     22  C   UNL     1      33.465 -15.142 -22.628  0.00  0.00    +0.149 C 
BRANCH  22  24
ATOM     23  O   UNL     1      33.404 -18.018 -22.728  0.00  0.00    -0.277 OA
ATOM     24  N   UNL     1      34.535 -16.013 -23.028  0.00  0.00    -0.300 N 
ATOM     25  C   UNL     1      34.419 -17.401 -23.048  0.00  0.00    +0.203 C 
ATOM     26  H   UNL     1      35.391 -15.611 -23.303  0.00  0.00    +0.150 HD
BRANCH  25  27
ATOM     27  C   UNL     1      35.704 -18.083 -23.498  0.00  0.00    +0.017 C 
ATOM     28  C   UNL     1      35.426 -19.530 -23.887  0.00  0.00    -0.014 C 
BRANCH  27  29
ATOM     29  N   UNL     1      36.662 -18.030 -22.396  0.00  0.00    +0.389 N 
ATOM     30  C   UNL     1      36.202 -18.832 -21.272  0.00  0.00    -0.105 C 
ATOM     31  H   UNL     1      36.773 -17.063 -22.095  0.00  0.00    -0.084 HD
ATOM     32  H   UNL     1      37.554 -18.405 -22.721  0.00  0.00    -0.084 HD
ENDBRANCH  27  29
ENDBRANCH  25  27
ENDBRANCH  22  24
BRANCH  22  33
ATOM     33  C   UNL     1      33.229 -15.089 -21.100  0.00  0.00    +0.025 C 
ATOM     34  C   UNL     1      32.183 -16.146 -20.693  0.00  0.00    +0.002 C 
ATOM     35  C   UNL     1      34.548 -15.420 -20.370  0.00  0.00    +0.002 C 
ATOM     36  C   UNL     1      32.744 -13.706 -20.623  0.00  0.00    +0.002 C 
ENDBRANCH  22  33
ENDBRANCH   7  22
TORSDOF 7
ENDMDL
MODEL 4
REMARK VINA RESULT:      -6.6      2.572      9.873
REMARK  Name = 4369343
REMARK  7 active torsions:
REMARK  status: ('A' for Active; 'I' for Inactive)
REMARK    1  A    between atoms: C_3  and  C_10
REMARK    2  A    between atoms: C_7  and  C_22
REMARK    3  A    between atoms: N_9  and  C_12
REMARK    4  A    between atoms: C_22  and  N_24
REMARK    5  A    between atoms: C_22  and  C_33
REMARK    6  A    between atoms: C_25  and  C_27
REMARK    7  A    between atoms: C_27  and  N_29
REMARK                            x       y       z     vdW  Elec       q    Type
REMARK                         _______ _______ _______ _____ _____    ______ ____
ROOT
ATOM      1  O   UNL     1      32.848 -10.675 -24.546  0.00  0.00    -0.273 OA
ATOM      2  N   UNL     1      32.249 -11.666 -22.540  0.00  0.00    -0.272 N 
ATOM      3  C   UNL     1      31.279 -10.656 -22.139  0.00  0.00    +0.152 C 
ATOM      4  C   UNL     1      30.490 -11.305 -21.009  0.00  0.00    +0.031 C 
ATOM      5  C   UNL     1      32.292 -12.766 -21.582  0.00  0.00    +0.094 C 
ATOM      6  C   UNL     1      31.493 -12.273 -20.386  0.00  0.00    +0.024 C 
ATOM      7  C   UNL     1      32.907 -11.623 -23.761  0.00  0.00    +0.244 C 
ENDROOT
BRANCH   3  10
ATOM      8  O   UNL     1      32.645  -9.462 -20.587  0.00  0.00    -0.273 OA
ATOM      9  N   UNL     1      31.989  -8.409 -22.556  0.00  0.00    -0.301 N 
ATOM     10  C   UNL     1      32.054  -9.463 -21.663  0.00  0.00    +0.241 C 
ATOM     11  H   UNL     1      31.481  -8.531 -23.391  0.00  0.00    +0.150 HD
BRANCH   9  12
ATOM     12  C   UNL     1      32.633  -7.134 -22.321  0.00  0.00    +0.094 C 
ATOM     13  C   UNL     1      31.761  -6.252 -21.421  0.00  0.00    +0.024 C 
ATOM     14  C   UNL     1      32.986  -6.469 -23.634  0.00  0.00    -0.008 C 
ATOM     15  C   UNL     1      30.610  -5.633 -22.208  0.00  0.00    +0.007 C 
ATOM     16  C   UNL     1      31.146  -4.734 -23.320  0.00  0.00    +0.026 C 
ATOM     17  C   UNL     1      32.259  -5.365 -24.119  0.00  0.00    -0.025 C 
ATOM     18  C   UNL     1      34.041  -6.986 -24.404  0.00  0.00    -0.003 C 
ATOM     19  C   UNL     1      32.616  -4.791 -25.350  0.00  0.00    -0.005 C 
ATOM     20  C   UNL     1      34.379  -6.413 -25.628  0.00  0.00    -0.000 C 
ATOM     21  C   UNL     1      33.667  -5.315 -26.101  0.00  0.00    -0.000 C 
ENDBRANCH   9  12
ENDBRANCH   3  10
BRANCH   7  22
ATOM     22  C   UNL     1      33.741 -12.835 -24.091  0.00  0.00    +0.149 C 
BRANCH  22  24
ATOM     23  O   UNL     1      35.344 -15.096 -23.312  0.00  0.00    -0.277 OA
ATOM     24  N   UNL     1      33.480 -13.746 -23.010  0.00  0.00    -0.300 N 
ATOM     25  C   UNL     1      34.314 -14.818 -22.701  0.00  0.00    +0.203 C 
ATOM     26  H   UNL     1      32.675 -13.605 -22.461  0.00  0.00    +0.150 HD
BRANCH  25  27
ATOM     27  C   UNL     1      33.797 -15.631 -21.521  0.00  0.00    +0.017 C 
ATOM     28  C   UNL     1      34.558 -15.263 -20.253  0.00  0.00    -0.014 C 
BRANCH  27  29
ATOM     29  N   UNL     1      33.976 -17.048 -21.825  0.00  0.00    +0.389 N 
ATOM     30  C   UNL     1      35.109 -17.595 -21.093  0.00  0.00    -0.105 C 
ATOM     31  H   UNL     1      34.140 -17.157 -22.825  0.00  0.00    -0.084 HD
ATOM     32  H   UNL     1      33.134 -17.551 -21.546  0.00  0.00    -0.084 HD
ENDBRANCH  27  29
ENDBRANCH  25  27
ENDBRANCH  22  24
BRANCH  22  33
ATOM     33  C   UNL     1      33.449 -13.418 -25.494  0.00  0.00    +0.025 C 
ATOM     34  C   UNL     1      31.928 -13.583 -25.688  0.00  0.00    +0.002 C 
ATOM     35  C   UNL     1      33.961 -12.436 -26.569  0.00  0.00    +0.002 C 
ATOM     36  C   UNL     1      34.126 -14.783 -25.722  0.00  0.00    +0.002 C 
ENDBRANCH  22  33
ENDBRANCH   7  22
TORSDOF 7
ENDMDL
MODEL 5
REMARK VINA RESULT:      -6.3      2.376      9.806
REMARK  Name = 4369343
REMARK  7 active torsions:
REMARK  status: ('A' for Active; 'I' for Inactive)
REMARK    1  A    between atoms: C_3  and  C_10
REMARK    2  A    between atoms: C_7  and  C_22
REMARK    3  A    between atoms: N_9  and  C_12
REMARK    4  A    between atoms: C_22  and  N_24
REMARK    5  A    between atoms: C_22  and  C_33
REMARK    6  A    between atoms: C_25  and  C_27
REMARK    7  A    between atoms: C_27  and  N_29
REMARK                            x       y       z     vdW  Elec       q    Type
REMARK                         _______ _______ _______ _____ _____    ______ ____
ROOT
ATOM      1  O   UNL     1      34.936 -13.358 -22.067  0.00  0.00    -0.273 OA
ATOM      2  N   UNL     1      33.574 -13.088 -23.920  0.00  0.00    -0.272 N 
ATOM      3  C   UNL     1      34.221 -11.886 -24.428  0.00  0.00    +0.152 C 
ATOM      4  C   UNL     1      33.708 -11.745 -25.856  0.00  0.00    +0.031 C 
ATOM      5  C   UNL     1      32.517 -13.538 -24.821  0.00  0.00    +0.094 C 
ATOM      6  C   UNL     1      32.328 -12.394 -25.804  0.00  0.00    +0.024 C 
ATOM      7  C   UNL     1      34.040 -13.770 -22.806  0.00  0.00    +0.244 C 
ENDROOT
BRANCH   3  10
ATOM      8  O   UNL     1      33.053 -10.918 -22.584  0.00  0.00    -0.273 OA
ATOM      9  N   UNL     1      34.255  -9.529 -24.014  0.00  0.00    -0.301 N 
ATOM     10  C   UNL     1      33.776 -10.745 -23.562  0.00  0.00    +0.241 C 
ATOM     11  H   UNL     1      34.829  -9.519 -24.814  0.00  0.00    +0.150 HD
BRANCH   9  12
ATOM     12  C   UNL     1      33.950  -8.271 -23.368  0.00  0.00    +0.094 C 
ATOM     13  C   UNL     1      32.742  -8.425 -22.438  0.00  0.00    +0.024 C 
ATOM     14  C   UNL     1      33.764  -7.178 -24.399  0.00  0.00    -0.008 C 
ATOM     15  C   UNL     1      31.438  -8.443 -23.230  0.00  0.00    +0.007 C 
ATOM     16  C   UNL     1      31.250  -7.126 -23.980  0.00  0.00    +0.026 C 
ATOM     17  C   UNL     1      32.488  -6.670 -24.711  0.00  0.00    -0.025 C 
ATOM     18  C   UNL     1      34.886  -6.682 -25.084  0.00  0.00    -0.003 C 
ATOM     19  C   UNL     1      32.366  -5.666 -25.685  0.00  0.00    -0.005 C 
ATOM     20  C   UNL     1      34.749  -5.692 -26.055  0.00  0.00    -0.000 C 
ATOM     21  C   UNL     1      33.489  -5.184 -26.355  0.00  0.00    -0.000 C 
ENDBRANCH   9  12
ENDBRANCH   3  10
BRANCH   7  22
ATOM     22  C   UNL     1      33.364 -15.088 -22.522  0.00  0.00    +0.149 C 
BRANCH  22  24
ATOM     23  O   UNL     1      33.477 -16.466 -25.047  0.00  0.00    -0.277 OA
ATOM     24  N   UNL     1      34.331 -16.072 -22.925  0.00  0.00    -0.300 N 
ATOM     25  C   UNL     1      34.311 -16.691 -24.173  0.00  0.00    +0.203 C 
ATOM     26  H   UNL     1      35.042 -16.320 -22.291  0.00  0.00    +0.150 HD
BRANCH  25  27
ATOM     27  C   UNL     1      35.438 -17.703 -24.335  0.00  0.00    +0.017 C 
ATOM     28  C   UNL     1      34.886 -19.035 -24.826  0.00  0.00    -0.014 C 
BRANCH  27  29
ATOM     29  N   UNL     1      36.094 -17.872 -23.041  0.00  0.00    +0.389 N 
ATOM     30  C   UNL     1      35.487 -18.964 -22.293  0.00  0.00    -0.105 C 
ATOM     31  H   UNL     1      36.005 -17.010 -22.505  0.00  0.00    -0.084 HD
ATOM     32  H   UNL     1      37.077 -18.093 -23.200  0.00  0.00    -0.084 HD
ENDBRANCH  27  29
ENDBRANCH  25  27
ENDBRANCH  22  24
BRANCH  22  33
ATOM     33  C   UNL     1      32.887 -15.231 -21.058  0.00  0.00    +0.025 C 
ATOM     34  C   UNL     1      31.895 -16.406 -20.941  0.00  0.00    +0.002 C 
ATOM     35  C   UNL     1      34.100 -15.541 -20.156  0.00  0.00    +0.002 C 
ATOM     36  C   UNL     1      32.203 -13.955 -20.530  0.00  0.00    +0.002 C 
ENDBRANCH  22  33
ENDBRANCH   7  22
TORSDOF 7
ENDMDL
MODEL 6
REMARK VINA RESULT:      -6.1      6.300     12.094
REMARK  Name = 4369343
REMARK  7 active torsions:
REMARK  status: ('A' for Active; 'I' for Inactive)
REMARK    1  A    between atoms: C_3  and  C_10
REMARK    2  A    between atoms: C_7  and  C_22
REMARK    3  A    between atoms: N_9  and  C_12
REMARK    4  A    between atoms: C_22  and  N_24
REMARK    5  A    between atoms: C_22  and  C_33
REMARK    6  A    between atoms: C_25  and  C_27
REMARK    7  A    between atoms: C_27  and  N_29
REMARK                            x       y       z     vdW  Elec       q    Type
REMARK                         _______ _______ _______ _____ _____    ______ ____
ROOT
ATOM      1  O   UNL     1      33.315 -22.231 -15.522  0.00  0.00    -0.273 OA
ATOM      2  N   UNL     1      35.495 -23.010 -15.550  0.00  0.00    -0.272 N 
ATOM      3  C   UNL     1      36.052 -21.918 -16.337  0.00  0.00    +0.152 C 
ATOM      4  C   UNL     1      37.560 -22.045 -16.161  0.00  0.00    +0.031 C 
ATOM      5  C   UNL     1      36.537 -23.942 -15.129  0.00  0.00    +0.094 C 
ATOM      6  C   UNL     1      37.766 -23.539 -15.929  0.00  0.00    +0.024 C 
ATOM      7  C   UNL     1      34.169 -23.035 -15.145  0.00  0.00    +0.244 C 
ENDROOT
BRANCH   3  10
ATOM      8  O   UNL     1      34.906 -23.076 -18.082  0.00  0.00    -0.273 OA
ATOM      9  N   UNL     1      36.186 -21.207 -18.618  0.00  0.00    -0.301 N 
ATOM     10  C   UNL     1      35.636 -22.143 -17.761  0.00  0.00    +0.241 C 
ATOM     11  H   UNL     1      36.760 -20.503 -18.238  0.00  0.00    +0.150 HD
BRANCH   9  12
ATOM     12  C   UNL     1      35.960 -21.217 -20.047  0.00  0.00    +0.094 C 
ATOM     13  C   UNL     1      37.242 -20.839 -20.796  0.00  0.00    +0.024 C 
ATOM     14  C   UNL     1      34.787 -20.328 -20.403  0.00  0.00    -0.008 C 
ATOM     15  C   UNL     1      37.483 -19.334 -20.748  0.00  0.00    +0.007 C 
ATOM     16  C   UNL     1      36.339 -18.588 -21.432  0.00  0.00    +0.026 C 
ATOM     17  C   UNL     1      34.973 -19.076 -21.019  0.00  0.00    -0.025 C 
ATOM     18  C   UNL     1      33.486 -20.748 -20.081  0.00  0.00    -0.003 C 
ATOM     19  C   UNL     1      33.854 -18.282 -21.316  0.00  0.00    -0.005 C 
ATOM     20  C   UNL     1      32.384 -19.945 -20.374  0.00  0.00    -0.000 C 
ATOM     21  C   UNL     1      32.568 -18.712 -20.992  0.00  0.00    -0.000 C 
ENDBRANCH   9  12
ENDBRANCH   3  10
BRANCH   7  22
ATOM     22  C   UNL     1      33.802 -24.144 -14.190  0.00  0.00    +0.149 C 
BRANCH  22  24
ATOM     23  O   UNL     1      35.826 -25.843 -13.049  0.00  0.00    -0.277 OA
ATOM     24  N   UNL     1      34.594 -23.876 -13.021  0.00  0.00    -0.300 N 
ATOM     25  C   UNL     1      35.557 -24.758 -12.537  0.00  0.00    +0.203 C 
ATOM     26  H   UNL     1      34.450 -23.029 -12.540  0.00  0.00    +0.150 HD
BRANCH  25  27
ATOM     27  C   UNL     1      36.238 -24.237 -11.278  0.00  0.00    +0.017 C 
ATOM     28  C   UNL     1      35.269 -24.267 -10.102  0.00  0.00    -0.014 C 
BRANCH  27  29
ATOM     29  N   UNL     1      36.686 -22.870 -11.530  0.00  0.00    +0.389 N 
ATOM     30  C   UNL     1      38.061 -22.856 -12.007  0.00  0.00    -0.105 C 
ATOM     31  H   UNL     1      36.626 -22.333 -10.665  0.00  0.00    -0.084 HD
ATOM     32  H   UNL     1      36.088 -22.458 -12.246  0.00  0.00    -0.084 HD
ENDBRANCH  27  29
ENDBRANCH  25  27
ENDBRANCH  22  24
BRANCH  22  33
ATOM     33  C   UNL     1      32.283 -24.243 -13.918  0.00  0.00    +0.025 C 
ATOM     34  C   UNL     1      31.807 -22.999 -13.141  0.00  0.00    +0.002 C 
ATOM     35  C   UNL     1      31.527 -24.282 -15.263  0.00  0.00    +0.002 C 
ATOM     36  C   UNL     1      31.906 -25.501 -13.112  0.00  0.00    +0.002 C 
ENDBRANCH  22  33
ENDBRANCH   7  22
TORSDOF 7
ENDMDL
MODEL 7
REMARK VINA RESULT:      -5.9      5.054      8.723
REMARK  Name = 4369343
REMARK  7 active torsions:
REMARK  status: ('A' for Active; 'I' for Inactive)
REMARK    1  A    between atoms: C_3  and  C_10
REMARK    2  A    between atoms: C_7  and  C_22
REMARK    3  A    between atoms: N_9  and  C_12
REMARK    4  A    between atoms: C_22  and  N_24
REMARK    5  A    between atoms: C_22  and  C_33
REMARK    6  A    between atoms: C_25  and  C_27
REMARK    7  A    between atoms: C_27  and  N_29
REMARK                            x       y       z     vdW  Elec       q    Type
REMARK                         _______ _______ _______ _____ _____    ______ ____
ROOT
ATOM      1  O   UNL     1      33.342  -7.097 -25.151  0.00  0.00    -0.273 OA
ATOM      2  N   UNL     1      32.768  -6.529 -22.981  0.00  0.00    -0.272 N 
ATOM      3  C   UNL     1      33.205  -7.773 -22.362  0.00  0.00    +0.152 C 
ATOM      4  C   UNL     1      33.255  -7.465 -20.870  0.00  0.00    +0.031 C 
ATOM      5  C   UNL     1      32.296  -5.578 -21.978  0.00  0.00    +0.094 C 
ATOM      6  C   UNL     1      32.191  -6.386 -20.694  0.00  0.00    +0.024 C 
ATOM      7  C   UNL     1      32.942  -6.268 -24.332  0.00  0.00    +0.244 C 
ENDROOT
BRANCH   3  10
ATOM      8  O   UNL     1      31.125  -8.531 -23.257  0.00  0.00    -0.273 OA
ATOM      9  N   UNL     1      32.543 -10.069 -22.235  0.00  0.00    -0.301 N 
ATOM     10  C   UNL     1      32.173  -8.813 -22.681  0.00  0.00    +0.241 C 
ATOM     11  H   UNL     1      33.412 -10.170 -21.785  0.00  0.00    +0.150 HD
BRANCH   9  12
ATOM     12  C   UNL     1      31.710 -11.241 -22.399  0.00  0.00    +0.094 C 
ATOM     13  C   UNL     1      30.821 -11.443 -21.166  0.00  0.00    +0.024 C 
ATOM     14  C   UNL     1      32.559 -12.454 -22.717  0.00  0.00    -0.008 C 
ATOM     15  C   UNL     1      31.612 -12.049 -20.012  0.00  0.00    +0.007 C 
ATOM     16  C   UNL     1      32.150 -13.425 -20.396  0.00  0.00    +0.026 C 
ATOM     17  C   UNL     1      32.795 -13.459 -21.759  0.00  0.00    -0.025 C 
ATOM     18  C   UNL     1      33.153 -12.561 -23.985  0.00  0.00    -0.003 C 
ATOM     19  C   UNL     1      33.602 -14.557 -22.098  0.00  0.00    -0.005 C 
ATOM     20  C   UNL     1      33.960 -13.652 -24.305  0.00  0.00    -0.000 C 
ATOM     21  C   UNL     1      34.184 -14.650 -23.362  0.00  0.00    -0.000 C 
ENDBRANCH   9  12
ENDBRANCH   3  10
BRANCH   7  22
ATOM     22  C   UNL     1      32.595  -4.868 -24.772  0.00  0.00    +0.149 C 
BRANCH  22  24
ATOM     23  O   UNL     1      33.557  -2.516 -26.125  0.00  0.00    -0.277 OA
ATOM     24  N   UNL     1      33.093  -4.791 -26.119  0.00  0.00    -0.300 N 
ATOM     25  C   UNL     1      33.541  -3.605 -26.696  0.00  0.00    +0.203 C 
ATOM     26  H   UNL     1      33.119  -5.614 -26.658  0.00  0.00    +0.150 HD
BRANCH  25  27
ATOM     27  C   UNL     1      34.000  -3.800 -28.135  0.00  0.00    +0.017 C 
ATOM     28  C   UNL     1      32.923  -4.516 -28.940  0.00  0.00    -0.014 C 
BRANCH  27  29
ATOM     29  N   UNL     1      35.231  -4.586 -28.123  0.00  0.00    +0.389 N 
ATOM     30  C   UNL     1      36.389  -3.731 -27.907  0.00  0.00    -0.105 C 
ATOM     31  H   UNL     1      35.331  -5.065 -29.018  0.00  0.00    -0.084 HD
ATOM     32  H   UNL     1      35.178  -5.263 -27.362  0.00  0.00    -0.084 HD
ENDBRANCH  27  29
ENDBRANCH  25  27
ENDBRANCH  22  24
BRANCH  22  33
ATOM     33  C   UNL     1      31.091  -4.536 -24.633  0.00  0.00    +0.025 C 
ATOM     34  C   UNL     1      30.622  -3.706 -25.845  0.00  0.00    +0.002 C 
ATOM     35  C   UNL     1      30.280  -5.849 -24.613  0.00  0.00    +0.002 C 
ATOM     36  C   UNL     1      30.774  -3.750 -23.346  0.00  0.00    +0.002 C 
ENDBRANCH  22  33
ENDBRANCH   7  22
TORSDOF 7
ENDMDL
MODEL 8
REMARK VINA RESULT:      -5.5      3.573     11.385
REMARK  Name = 4369343
REMARK  7 active torsions:
REMARK  status: ('A' for Active; 'I' for Inactive)
REMARK    1  A    between atoms: C_3  and  C_10
REMARK    2  A    between atoms: C_7  and  C_22
REMARK    3  A    between atoms: N_9  and  C_12
REMARK    4  A    between atoms: C_22  and  N_24
REMARK    5  A    between atoms: C_22  and  C_33
REMARK    6  A    between atoms: C_25  and  C_27
REMARK    7  A    between atoms: C_27  and  N_29
REMARK                            x       y       z     vdW  Elec       q    Type
REMARK                         _______ _______ _______ _____ _____    ______ ____
ROOT
ATOM      1  O   UNL     1      31.823 -11.024 -22.910  0.00  0.00    -0.273 OA
ATOM      2  N   UNL     1      33.573  -9.554 -23.277  0.00  0.00    -0.272 N 
ATOM      3  C   UNL     1      33.024  -8.446 -22.509  0.00  0.00    +0.152 C 
ATOM      4  C   UNL     1      34.196  -7.492 -22.313  0.00  0.00    +0.031 C 
ATOM      5  C   UNL     1      34.903  -9.233 -23.789  0.00  0.00    +0.094 C 
ATOM      6  C   UNL     1      35.066  -7.741 -23.542  0.00  0.00    +0.024 C 
ATOM      7  C   UNL     1      32.948 -10.790 -23.353  0.00  0.00    +0.244 C 
ENDROOT
BRANCH   3  10
ATOM      8  O   UNL     1      30.884  -8.418 -23.568  0.00  0.00    -0.273 OA
ATOM      9  N   UNL     1      32.284  -6.573 -23.802  0.00  0.00    -0.301 N 
ATOM     10  C   UNL     1      31.937  -7.828 -23.338  0.00  0.00    +0.241 C 
ATOM     11  H   UNL     1      33.161  -6.205 -23.549  0.00  0.00    +0.150 HD
BRANCH   9  12
ATOM     12  C   UNL     1      31.418  -5.775 -24.644  0.00  0.00    +0.094 C 
ATOM     13  C   UNL     1      31.897  -5.819 -26.099  0.00  0.00    +0.024 C 
ATOM     14  C   UNL     1      31.306  -4.366 -24.104  0.00  0.00    -0.008 C 
ATOM     15  C   UNL     1      33.100  -4.906 -26.309  0.00  0.00    +0.007 C 
ATOM     16  C   UNL     1      32.729  -3.456 -26.012  0.00  0.00    +0.026 C 
ATOM     17  C   UNL     1      31.956  -3.284 -24.728  0.00  0.00    -0.025 C 
ATOM     18  C   UNL     1      30.565  -4.136 -22.933  0.00  0.00    -0.003 C 
ATOM     19  C   UNL     1      31.834  -1.997 -24.180  0.00  0.00    -0.005 C 
ATOM     20  C   UNL     1      30.459  -2.855 -22.394  0.00  0.00    -0.000 C 
ATOM     21  C   UNL     1      31.093  -1.786 -23.018  0.00  0.00    -0.000 C 
ENDBRANCH   9  12
ENDBRANCH   3  10
BRANCH   7  22
ATOM     22  C   UNL     1      33.738 -11.875 -24.042  0.00  0.00    +0.149 C 
BRANCH  22  24
ATOM     23  O   UNL     1      34.961 -13.676 -22.159  0.00  0.00    -0.277 OA
ATOM     24  N   UNL     1      33.179 -13.095 -23.528  0.00  0.00    -0.300 N 
ATOM     25  C   UNL     1      33.844 -13.910 -22.614  0.00  0.00    +0.203 C 
ATOM     26  H   UNL     1      32.284 -13.368 -23.835  0.00  0.00    +0.150 HD
BRANCH  25  27
ATOM     27  C   UNL     1      33.034 -15.147 -22.247  0.00  0.00    +0.017 C 
ATOM     28  C   UNL     1      32.641 -15.103 -20.776  0.00  0.00    -0.014 C 
BRANCH  27  29
ATOM     29  N   UNL     1      33.850 -16.328 -22.518  0.00  0.00    +0.389 N 
ATOM     30  C   UNL     1      34.336 -16.916 -21.278  0.00  0.00    -0.105 C 
ATOM     31  H   UNL     1      34.645 -16.059 -23.096  0.00  0.00    -0.084 HD
ATOM     32  H   UNL     1      33.275 -17.017 -23.003  0.00  0.00    -0.084 HD
ENDBRANCH  27  29
ENDBRANCH  25  27
ENDBRANCH  22  24
BRANCH  22  33
ATOM     33  C   UNL     1      33.714 -11.767 -25.584  0.00  0.00    +0.025 C 
ATOM     34  C   UNL     1      33.478 -13.160 -26.204  0.00  0.00    +0.002 C 
ATOM     35  C   UNL     1      32.547 -10.853 -26.012  0.00  0.00    +0.002 C 
ATOM     36  C   UNL     1      35.021 -11.188 -26.159  0.00  0.00    +0.002 C 
ENDBRANCH  22  33
ENDBRANCH   7  22
TORSDOF 7
ENDMDL
MODEL 9
REMARK VINA RESULT:      -5.5      1.324      2.108
REMARK  Name = 4369343
REMARK  7 active torsions:
REMARK  status: ('A' for Active; 'I' for Inactive)
REMARK    1  A    between atoms: C_3  and  C_10
REMARK    2  A    between atoms: C_7  and  C_22
REMARK    3  A    between atoms: N_9  and  C_12
REMARK    4  A    between atoms: C_22  and  N_24
REMARK    5  A    between atoms: C_22  and  C_33
REMARK    6  A    between atoms: C_25  and  C_27
REMARK    7  A    between atoms: C_27  and  N_29
REMARK                            x       y       z     vdW  Elec       q    Type
REMARK                         _______ _______ _______ _____ _____    ______ ____
ROOT
ATOM      1  O   UNL     1      35.267 -14.360 -24.260  0.00  0.00    -0.273 OA
ATOM      2  N   UNL     1      33.662 -14.372 -22.592  0.00  0.00    -0.272 N 
ATOM      3  C   UNL     1      34.508 -14.940 -21.551  0.00  0.00    +0.152 C 
ATOM      4  C   UNL     1      33.746 -14.691 -20.255  0.00  0.00    +0.031 C 
ATOM      5  C   UNL     1      32.339 -14.039 -22.072  0.00  0.00    +0.094 C 
ATOM      6  C   UNL     1      32.285 -14.686 -20.697  0.00  0.00    +0.024 C 
ATOM      7  C   UNL     1      34.143 -14.061 -23.855  0.00  0.00    +0.244 C 
ENDROOT
BRANCH   3  10
ATOM      8  O   UNL     1      33.897 -17.238 -21.343  0.00  0.00    -0.273 OA
ATOM      9  N   UNL     1      35.702 -16.668 -22.696  0.00  0.00    -0.301 N 
ATOM     10  C   UNL     1      34.647 -16.405 -21.843  0.00  0.00    +0.241 C 
ATOM     11  H   UNL     1      36.234 -15.912 -23.033  0.00  0.00    +0.150 HD
BRANCH   9  12
ATOM     12  C   UNL     1      36.063 -18.006 -23.115  0.00  0.00    +0.094 C 
ATOM     13  C   UNL     1      35.275 -18.406 -24.367  0.00  0.00    +0.024 C 
ATOM     14  C   UNL     1      35.888 -18.984 -21.973  0.00  0.00    -0.008 C 
ATOM     15  C   UNL     1      33.845 -18.800 -24.014  0.00  0.00    +0.007 C 
ATOM     16  C   UNL     1      33.838 -20.012 -23.085  0.00  0.00    +0.026 C 
ATOM     17  C   UNL     1      34.818 -19.899 -21.944  0.00  0.00    -0.025 C 
ATOM     18  C   UNL     1      36.795 -18.956 -20.900  0.00  0.00    -0.003 C 
ATOM     19  C   UNL     1      34.691 -20.776 -20.855  0.00  0.00    -0.005 C 
ATOM     20  C   UNL     1      36.651 -19.826 -19.821  0.00  0.00    -0.000 C 
ATOM     21  C   UNL     1      35.600 -20.736 -19.799  0.00  0.00    -0.000 C 
ENDBRANCH   9  12
ENDBRANCH   3  10
BRANCH   7  22
ATOM     22  C   UNL     1      33.182 -13.319 -24.750  0.00  0.00    +0.149 C 
BRANCH  22  24
ATOM     23  O   UNL     1      32.370 -11.044 -23.185  0.00  0.00    -0.277 OA
ATOM     24  N   UNL     1      33.722 -11.989 -24.818  0.00  0.00    -0.300 N 
ATOM     25  C   UNL     1      33.268 -10.943 -24.019  0.00  0.00    +0.203 C 
ATOM     26  H   UNL     1      34.447 -11.808 -25.459  0.00  0.00    +0.150 HD
BRANCH  25  27
ATOM     27  C   UNL     1      34.000  -9.637 -24.304  0.00  0.00    +0.017 C 
ATOM     28  C   UNL     1      35.407  -9.921 -24.813  0.00  0.00    -0.014 C 
BRANCH  27  29
ATOM     29  N   UNL     1      34.055  -8.862 -23.067  0.00  0.00    +0.389 N 
ATOM     30  C   UNL     1      34.660  -7.559 -23.300  0.00  0.00    -0.105 C 
ATOM     31  H   UNL     1      34.610  -9.370 -22.379  0.00  0.00    -0.084 HD
ATOM     32  H   UNL     1      33.104  -8.725 -22.725  0.00  0.00    -0.084 HD
ENDBRANCH  27  29
ENDBRANCH  25  27
ENDBRANCH  22  24
BRANCH  22  33
ATOM     33  C   UNL     1      32.982 -13.993 -26.128  0.00  0.00    +0.025 C 
ATOM     34  C   UNL     1      33.995 -13.424 -27.143  0.00  0.00    +0.002 C 
ATOM     35  C   UNL     1      33.242 -15.509 -25.996  0.00  0.00    +0.002 C 
ATOM     36  C   UNL     1      31.560 -13.791 -26.686  0.00  0.00    +0.002 C 
ENDBRANCH  22  33
ENDBRANCH   7  22
TORSDOF 7
ENDMDL
