MODEL 1
REMARK VINA RESULT:      -5.8      0.000      0.000
REMARK  Name = 3532
REMARK  2 active torsions:
REMARK  status: ('A' for Active; 'I' for Inactive)
REMARK    1  A    between atoms: C_5  and  C_10
REMARK    2  A    between atoms: C_10  and  O_11
REMARK                            x       y       z     vdW  Elec       q    Type
REMARK                         _______ _______ _______ _____ _____    ______ ____
ROOT
ATOM      1  N   UNL     1      30.089 -25.376 -14.217  0.00  0.00    +0.387 N 
ATOM      2  C   UNL     1      30.747 -24.275 -13.507  0.00  0.00    -0.077 C 
ATOM      3  C   UNL     1      31.285 -23.218 -14.480  0.00  0.00    +0.003 C 
ATOM      4  C   UNL     1      28.939 -24.885 -14.989  0.00  0.00    -0.048 C 
ATOM      5  C   UNL     1      29.218 -23.637 -15.775  0.00  0.00    +0.027 C 
ATOM      6  C   UNL     1      30.300 -22.875 -15.561  0.00  0.00    -0.028 C 
ATOM      7  H   UNL     1      29.766 -26.066 -13.539  0.00  0.00    -0.084 HD
ATOM      8  H   UNL     1      30.759 -25.798 -14.860  0.00  0.00    -0.084 HD
ENDROOT
BRANCH   5  10
ATOM      9  O   UNL     1      27.729 -24.048 -17.566  0.00  0.00    -0.246 OA
ATOM     10  C   UNL     1      28.291 -23.242 -16.835  0.00  0.00    +0.332 C 
BRANCH  10  11
ATOM     11  O   UNL     1      28.163 -21.902 -16.860  0.00  0.00    -0.477 OA
ATOM     12  H   UNL     1      28.718 -21.389 -17.413  0.00  0.00    +0.295 HD
ENDBRANCH  10  11
ENDBRANCH   5  10
TORSDOF 2
ENDMDL
MODEL 2
REMARK VINA RESULT:      -5.8      9.151     10.054
REMARK  Name = 3532
REMARK  2 active torsions:
REMARK  status: ('A' for Active; 'I' for Inactive)
REMARK    1  A    between atoms: C_5  and  C_10
REMARK    2  A    between atoms: C_10  and  O_11
REMARK                            x       y       z     vdW  Elec       q    Type
REMARK                         _______ _______ _______ _____ _____    ______ ____
ROOT
ATOM      1  N   UNL     1      36.532 -26.238 -14.073  0.00  0.00    +0.387 N 
ATOM      2  C   UNL     1      36.430 -24.952 -13.377  0.00  0.00    -0.077 C 
ATOM      3  C   UNL     1      37.614 -24.727 -12.429  0.00  0.00    +0.003 C 
ATOM      4  C   UNL     1      37.750 -26.291 -14.894  0.00  0.00    -0.048 C 
ATOM      5  C   UNL     1      38.981 -25.793 -14.194  0.00  0.00    +0.027 C 
ATOM      6  C   UNL     1      38.930 -25.091 -13.054  0.00  0.00    -0.028 C 
ATOM      7  H   UNL     1      35.717 -26.359 -14.674  0.00  0.00    -0.084 HD
ATOM      8  H   UNL     1      36.572 -26.984 -13.378  0.00  0.00    -0.084 HD
ENDROOT
BRANCH   5  10
ATOM      9  O   UNL     1      41.218 -26.556 -14.094  0.00  0.00    -0.246 OA
ATOM     10  C   UNL     1      40.294 -26.104 -14.759  0.00  0.00    +0.332 C 
BRANCH  10  11
ATOM     11  O   UNL     1      40.306 -25.827 -16.076  0.00  0.00    -0.477 OA
ATOM     12  H   UNL     1      39.945 -25.021 -16.388  0.00  0.00    +0.295 HD
ENDBRANCH  10  11
ENDBRANCH   5  10
TORSDOF 2
ENDMDL
MODEL 3
REMARK VINA RESULT:      -5.6      7.145      8.000
REMARK  Name = 3532
REMARK  2 active torsions:
REMARK  status: ('A' for Active; 'I' for Inactive)
REMARK    1  A    between atoms: C_5  and  C_10
REMARK    2  A    between atoms: C_10  and  O_11
REMARK                            x       y       z     vdW  Elec       q    Type
REMARK                         _______ _______ _______ _____ _____    ______ ____
ROOT
ATOM      1  N   UNL     1      35.286 -19.778 -21.399  0.00  0.00    +0.387 N 
ATOM      2  C   UNL     1      34.145 -18.920 -21.064  0.00  0.00    -0.077 C 
ATOM      3  C   UNL     1      32.887 -19.745 -20.764  0.00  0.00    +0.003 C 
ATOM      4  C   UNL     1      35.617 -20.667 -20.275  0.00  0.00    -0.048 C 
ATOM      5  C   UNL     1      34.425 -21.329 -19.648  0.00  0.00    +0.027 C 
ATOM      6  C   UNL     1      33.168 -20.925 -19.879  0.00  0.00    -0.028 C 
ATOM      7  H   UNL     1      36.093 -19.193 -21.613  0.00  0.00    -0.084 HD
ATOM      8  H   UNL     1      35.039 -20.350 -22.207  0.00  0.00    -0.084 HD
ENDROOT
BRANCH   5  10
ATOM      9  O   UNL     1      35.421 -22.466 -17.828  0.00  0.00    -0.246 OA
ATOM     10  C   UNL     1      34.633 -22.478 -18.766  0.00  0.00    +0.332 C 
BRANCH  10  11
ATOM     11  O   UNL     1      33.840 -23.497 -19.144  0.00  0.00    -0.477 OA
ATOM     12  H   UNL     1      34.120 -24.382 -19.013  0.00  0.00    +0.295 HD
ENDBRANCH  10  11
ENDBRANCH   5  10
TORSDOF 2
ENDMDL
MODEL 4
REMARK VINA RESULT:      -5.6      7.403      8.054
REMARK  Name = 3532
REMARK  2 active torsions:
REMARK  status: ('A' for Active; 'I' for Inactive)
REMARK    1  A    between atoms: C_5  and  C_10
REMARK    2  A    between atoms: C_10  and  O_11
REMARK                            x       y       z     vdW  Elec       q    Type
REMARK                         _______ _______ _______ _____ _____    ______ ____
ROOT
ATOM      1  N   UNL     1      32.866 -21.763 -19.839  0.00  0.00    +0.387 N 
ATOM      2  C   UNL     1      33.851 -22.107 -18.808  0.00  0.00    -0.077 C 
ATOM      3  C   UNL     1      35.284 -22.039 -19.351  0.00  0.00    +0.003 C 
ATOM      4  C   UNL     1      33.074 -20.389 -20.319  0.00  0.00    -0.048 C 
ATOM      5  C   UNL     1      34.508 -20.052 -20.605  0.00  0.00    +0.027 C 
ATOM      6  C   UNL     1      35.528 -20.811 -20.181  0.00  0.00    -0.028 C 
ATOM      7  H   UNL     1      31.929 -21.842 -19.446  0.00  0.00    -0.084 HD
ATOM      8  H   UNL     1      32.977 -22.405 -20.624  0.00  0.00    -0.084 HD
ENDROOT
BRANCH   5  10
ATOM      9  O   UNL     1      34.452 -18.723 -22.561  0.00  0.00    -0.246 OA
ATOM     10  C   UNL     1      34.814 -18.862 -21.399  0.00  0.00    +0.332 C 
BRANCH  10  11
ATOM     11  O   UNL     1      35.520 -17.985 -20.662  0.00  0.00    -0.477 OA
ATOM     12  H   UNL     1      36.322 -18.252 -20.258  0.00  0.00    +0.295 HD
ENDBRANCH  10  11
ENDBRANCH   5  10
TORSDOF 2
ENDMDL
MODEL 5
REMARK VINA RESULT:      -5.6     10.681     11.576
REMARK  Name = 3532
REMARK  2 active torsions:
REMARK  status: ('A' for Active; 'I' for Inactive)
REMARK    1  A    between atoms: C_5  and  C_10
REMARK    2  A    between atoms: C_10  and  O_11
REMARK                            x       y       z     vdW  Elec       q    Type
REMARK                         _______ _______ _______ _____ _____    ______ ____
ROOT
ATOM      1  N   UNL     1      35.271 -16.655 -24.648  0.00  0.00    +0.387 N 
ATOM      2  C   UNL     1      34.296 -17.636 -25.135  0.00  0.00    -0.077 C 
ATOM      3  C   UNL     1      34.591 -19.041 -24.594  0.00  0.00    +0.003 C 
ATOM      4  C   UNL     1      35.229 -16.563 -23.182  0.00  0.00    -0.048 C 
ATOM      5  C   UNL     1      35.193 -17.893 -22.487  0.00  0.00    +0.027 C 
ATOM      6  C   UNL     1      34.919 -19.037 -23.129  0.00  0.00    -0.028 C 
ATOM      7  H   UNL     1      35.054 -15.742 -25.047  0.00  0.00    -0.084 HD
ATOM      8  H   UNL     1      36.204 -16.953 -24.932  0.00  0.00    -0.084 HD
ENDROOT
BRANCH   5  10
ATOM      9  O   UNL     1      35.937 -18.957 -20.510  0.00  0.00    -0.246 OA
ATOM     10  C   UNL     1      35.493 -17.955 -21.056  0.00  0.00    +0.332 C 
BRANCH  10  11
ATOM     11  O   UNL     1      35.216 -16.774 -20.476  0.00  0.00    -0.477 OA
ATOM     12  H   UNL     1      34.944 -16.046 -21.000  0.00  0.00    +0.295 HD
ENDBRANCH  10  11
ENDBRANCH   5  10
TORSDOF 2
ENDMDL
MODEL 6
REMARK VINA RESULT:      -5.4      7.244      7.981
REMARK  Name = 3532
REMARK  2 active torsions:
REMARK  status: ('A' for Active; 'I' for Inactive)
REMARK    1  A    between atoms: C_5  and  C_10
REMARK    2  A    between atoms: C_10  and  O_11
REMARK                            x       y       z     vdW  Elec       q    Type
REMARK                         _______ _______ _______ _____ _____    ______ ____
ROOT
ATOM      1  N   UNL     1      33.701 -18.922 -21.024  0.00  0.00    +0.387 N 
ATOM      2  C   UNL     1      34.961 -19.088 -21.754  0.00  0.00    -0.077 C 
ATOM      3  C   UNL     1      36.071 -19.635 -20.847  0.00  0.00    +0.003 C 
ATOM      4  C   UNL     1      33.226 -20.212 -20.503  0.00  0.00    -0.048 C 
ATOM      5  C   UNL     1      34.294 -21.035 -19.844  0.00  0.00    +0.027 C 
ATOM      6  C   UNL     1      35.601 -20.768 -19.981  0.00  0.00    -0.028 C 
ATOM      7  H   UNL     1      32.998 -18.535 -21.653  0.00  0.00    -0.084 HD
ATOM      8  H   UNL     1      33.858 -18.289 -20.239  0.00  0.00    -0.084 HD
ENDROOT
BRANCH   5  10
ATOM      9  O   UNL     1      34.706 -22.955 -18.525  0.00  0.00    -0.246 OA
ATOM     10  C   UNL     1      33.901 -22.160 -18.996  0.00  0.00    +0.332 C 
BRANCH  10  11
ATOM     11  O   UNL     1      32.567 -22.164 -18.825  0.00  0.00    -0.477 OA
ATOM     12  H   UNL     1      31.999 -22.148 -19.570  0.00  0.00    +0.295 HD
ENDBRANCH  10  11
ENDBRANCH   5  10
TORSDOF 2
ENDMDL
MODEL 7
REMARK VINA RESULT:      -5.3      7.658      8.400
REMARK  Name = 3532
REMARK  2 active torsions:
REMARK  status: ('A' for Active; 'I' for Inactive)
REMARK    1  A    between atoms: C_5  and  C_10
REMARK    2  A    between atoms: C_10  and  O_11
REMARK                            x       y       z     vdW  Elec       q    Type
REMARK                         _______ _______ _______ _____ _____    ______ ____
ROOT
ATOM      1  N   UNL     1      35.889 -21.101 -19.194  0.00  0.00    +0.387 N 
ATOM      2  C   UNL     1      34.849 -22.132 -19.258  0.00  0.00    -0.077 C 
ATOM      3  C   UNL     1      33.448 -21.515 -19.362  0.00  0.00    +0.003 C 
ATOM      4  C   UNL     1      35.879 -20.274 -20.410  0.00  0.00    -0.048 C 
ATOM      5  C   UNL     1      34.509 -19.836 -20.839  0.00  0.00    +0.027 C 
ATOM      6  C   UNL     1      33.388 -20.386 -20.351  0.00  0.00    -0.028 C 
ATOM      7  H   UNL     1      36.800 -21.550 -19.103  0.00  0.00    -0.084 HD
ATOM      8  H   UNL     1      35.708 -20.502 -18.389  0.00  0.00    -0.084 HD
ENDROOT
BRANCH   5  10
ATOM      9  O   UNL     1      34.167 -17.587 -21.486  0.00  0.00    -0.246 OA
ATOM     10  C   UNL     1      34.382 -18.748 -21.809  0.00  0.00    +0.332 C 
BRANCH  10  11
ATOM     11  O   UNL     1      34.543 -19.223 -23.057  0.00  0.00    -0.477 OA
ATOM     12  H   UNL     1      34.771 -20.122 -23.191  0.00  0.00    +0.295 HD
ENDBRANCH  10  11
ENDBRANCH   5  10
TORSDOF 2
ENDMDL
MODEL 8
REMARK VINA RESULT:      -5.2      7.240      8.258
REMARK  Name = 3532
REMARK  2 active torsions:
REMARK  status: ('A' for Active; 'I' for Inactive)
REMARK    1  A    between atoms: C_5  and  C_10
REMARK    2  A    between atoms: C_10  and  O_11
REMARK                            x       y       z     vdW  Elec       q    Type
REMARK                         _______ _______ _______ _____ _____    ______ ____
ROOT
ATOM      1  N   UNL     1      37.326 -24.746 -15.145  0.00  0.00    +0.387 N 
ATOM      2  C   UNL     1      38.298 -25.772 -14.755  0.00  0.00    -0.077 C 
ATOM      3  C   UNL     1      38.805 -25.555 -13.324  0.00  0.00    +0.003 C 
ATOM      4  C   UNL     1      36.148 -24.783 -14.266  0.00  0.00    -0.048 C 
ATOM      5  C   UNL     1      36.478 -24.892 -12.806  0.00  0.00    +0.027 C 
ATOM      6  C   UNL     1      37.698 -25.228 -12.363  0.00  0.00    -0.028 C 
ATOM      7  H   UNL     1      37.032 -24.911 -16.107  0.00  0.00    -0.084 HD
ATOM      8  H   UNL     1      37.768 -23.829 -15.063  0.00  0.00    -0.084 HD
ENDROOT
BRANCH   5  10
ATOM      9  O   UNL     1      35.354 -25.178 -10.744  0.00  0.00    -0.246 OA
ATOM     10  C   UNL     1      35.439 -24.597 -11.819  0.00  0.00    +0.332 C 
BRANCH  10  11
ATOM     11  O   UNL     1      34.636 -23.618 -12.274  0.00  0.00    -0.477 OA
ATOM     12  H   UNL     1      34.368 -23.611 -13.172  0.00  0.00    +0.295 HD
ENDBRANCH  10  11
ENDBRANCH   5  10
TORSDOF 2
ENDMDL
MODEL 9
REMARK VINA RESULT:      -5.2     10.859     11.588
REMARK  Name = 3532
REMARK  2 active torsions:
REMARK  status: ('A' for Active; 'I' for Inactive)
REMARK    1  A    between atoms: C_5  and  C_10
REMARK    2  A    between atoms: C_10  and  O_11
REMARK                            x       y       z     vdW  Elec       q    Type
REMARK                         _______ _______ _______ _____ _____    ______ ____
ROOT
ATOM      1  N   UNL     1      34.995 -17.272 -21.103  0.00  0.00    +0.387 N 
ATOM      2  C   UNL     1      35.744 -18.505 -21.363  0.00  0.00    -0.077 C 
ATOM      3  C   UNL     1      35.113 -19.321 -22.498  0.00  0.00    +0.003 C 
ATOM      4  C   UNL     1      34.984 -16.409 -22.292  0.00  0.00    -0.048 C 
ATOM      5  C   UNL     1      34.683 -17.134 -23.572  0.00  0.00    +0.027 C 
ATOM      6  C   UNL     1      34.722 -18.470 -23.672  0.00  0.00    -0.028 C 
ATOM      7  H   UNL     1      35.432 -16.772 -20.329  0.00  0.00    -0.084 HD
ATOM      8  H   UNL     1      34.033 -17.518 -20.867  0.00  0.00    -0.084 HD
ENDROOT
BRANCH   5  10
ATOM      9  O   UNL     1      33.564 -15.388 -24.709  0.00  0.00    -0.246 OA
ATOM     10  C   UNL     1      34.307 -16.360 -24.755  0.00  0.00    +0.332 C 
BRANCH  10  11
ATOM     11  O   UNL     1      34.898 -16.875 -25.849  0.00  0.00    -0.477 OA
ATOM     12  H   UNL     1      35.380 -16.317 -26.427  0.00  0.00    +0.295 HD
ENDBRANCH  10  11
ENDBRANCH   5  10
TORSDOF 2
ENDMDL
