MODEL 1
REMARK VINA RESULT:      -9.3      0.000      0.000
REMARK  Name = 24180721
REMARK  2 active torsions:
REMARK  status: ('A' for Active; 'I' for Inactive)
REMARK    1  A    between atoms: C_4  and  N_11
REMARK    2  A    between atoms: N_11  and  C_13
REMARK                            x       y       z     vdW  Elec       q    Type
REMARK                         _______ _______ _______ _____ _____    ______ ____
ROOT
ATOM      1  N   UNL     1      35.223 -17.163 -24.158  0.00  0.00    -0.296 N 
ATOM      2  N   UNL     1      34.415 -15.009 -23.440  0.00  0.00    -0.229 NA
ATOM      3  C   UNL     1      35.067 -16.847 -21.953  0.00  0.00    +0.046 C 
ATOM      4  C   UNL     1      35.556 -18.158 -22.196  0.00  0.00    +0.066 C 
ATOM      5  C   UNL     1      34.870 -16.253 -23.195  0.00  0.00    +0.133 C 
ATOM      6  C   UNL     1      35.641 -18.324 -23.562  0.00  0.00    +0.078 C 
ATOM      7  C   UNL     1      34.764 -16.080 -20.815  0.00  0.00    +0.006 C 
ATOM      8  C   UNL     1      34.288 -14.785 -21.010  0.00  0.00    +0.021 C 
ATOM      9  C   UNL     1      34.139 -14.318 -22.309  0.00  0.00    +0.100 C 
ATOM     10  H   UNL     1      35.183 -17.005 -25.128  0.00  0.00    +0.154 HD
ENDROOT
BRANCH   4  11
ATOM     11  N   UNL     1      35.881 -19.084 -21.270  0.00  0.00    -0.311 N 
ATOM     12  H   UNL     1      36.837 -19.091 -21.035  0.00  0.00    +0.152 HD
BRANCH  11  13
ATOM     13  C   UNL     1      35.109 -20.056 -20.563  0.00  0.00    +0.048 C 
ATOM     14  C   UNL     1      35.748 -21.059 -19.833  0.00  0.00    +0.015 C 
ATOM     15  C   UNL     1      33.716 -20.002 -20.601  0.00  0.00    +0.015 C 
ATOM     16  C   UNL     1      34.996 -22.007 -19.142  0.00  0.00    +0.001 C 
ATOM     17  C   UNL     1      32.963 -20.952 -19.911  0.00  0.00    +0.001 C 
ATOM     18  C   UNL     1      33.601 -21.955 -19.181  0.00  0.00    +0.000 C 
ENDBRANCH  11  13
ENDBRANCH   4  11
TORSDOF 2
ENDMDL
MODEL 2
REMARK VINA RESULT:      -9.3      0.059      1.209
REMARK  Name = 24180721
REMARK  2 active torsions:
REMARK  status: ('A' for Active; 'I' for Inactive)
REMARK    1  A    between atoms: C_4  and  N_11
REMARK    2  A    between atoms: N_11  and  C_13
REMARK                            x       y       z     vdW  Elec       q    Type
REMARK                         _______ _______ _______ _____ _____    ______ ____
ROOT
ATOM      1  N   UNL     1      35.239 -17.103 -24.182  0.00  0.00    -0.296 N 
ATOM      2  N   UNL     1      34.437 -14.966 -23.410  0.00  0.00    -0.229 NA
ATOM      3  C   UNL     1      35.080 -16.844 -21.970  0.00  0.00    +0.046 C 
ATOM      4  C   UNL     1      35.565 -18.150 -22.247  0.00  0.00    +0.066 C 
ATOM      5  C   UNL     1      34.888 -16.218 -23.197  0.00  0.00    +0.133 C 
ATOM      6  C   UNL     1      35.652 -18.281 -23.616  0.00  0.00    +0.078 C 
ATOM      7  C   UNL     1      34.777 -16.107 -20.813  0.00  0.00    +0.006 C 
ATOM      8  C   UNL     1      34.306 -14.806 -20.975  0.00  0.00    +0.021 C 
ATOM      9  C   UNL     1      34.161 -14.304 -22.262  0.00  0.00    +0.100 C 
ATOM     10  H   UNL     1      35.201 -16.920 -25.149  0.00  0.00    +0.154 HD
ENDROOT
BRANCH   4  11
ATOM     11  N   UNL     1      35.886 -19.102 -21.345  0.00  0.00    -0.311 N 
ATOM     12  H   UNL     1      36.850 -19.159 -21.155  0.00  0.00    +0.152 HD
BRANCH  11  13
ATOM     13  C   UNL     1      35.099 -20.042 -20.611  0.00  0.00    +0.048 C 
ATOM     14  C   UNL     1      33.707 -19.954 -20.631  0.00  0.00    +0.015 C 
ATOM     15  C   UNL     1      35.723 -21.048 -19.874  0.00  0.00    +0.015 C 
ATOM     16  C   UNL     1      32.939 -20.871 -19.915  0.00  0.00    +0.001 C 
ATOM     17  C   UNL     1      34.955 -21.966 -19.157  0.00  0.00    +0.001 C 
ATOM     18  C   UNL     1      33.563 -21.878 -19.177  0.00  0.00    +0.000 C 
ENDBRANCH  11  13
ENDBRANCH   4  11
TORSDOF 2
ENDMDL
MODEL 3
REMARK VINA RESULT:      -9.1      1.051      2.517
REMARK  Name = 24180721
REMARK  2 active torsions:
REMARK  status: ('A' for Active; 'I' for Inactive)
REMARK    1  A    between atoms: C_4  and  N_11
REMARK    2  A    between atoms: N_11  and  C_13
REMARK                            x       y       z     vdW  Elec       q    Type
REMARK                         _______ _______ _______ _____ _____    ______ ____
ROOT
ATOM      1  N   UNL     1      34.423 -15.511 -21.816  0.00  0.00    -0.296 N 
ATOM      2  N   UNL     1      33.972 -15.465 -24.182  0.00  0.00    -0.229 NA
ATOM      3  C   UNL     1      34.888 -17.378 -22.950  0.00  0.00    +0.046 C 
ATOM      4  C   UNL     1      35.211 -17.578 -21.581  0.00  0.00    +0.066 C 
ATOM      5  C   UNL     1      34.399 -16.080 -23.062  0.00  0.00    +0.133 C 
ATOM      6  C   UNL     1      34.914 -16.412 -20.908  0.00  0.00    +0.078 C 
ATOM      7  C   UNL     1      34.950 -18.148 -24.123  0.00  0.00    +0.006 C 
ATOM      8  C   UNL     1      34.522 -17.561 -25.311  0.00  0.00    +0.021 C 
ATOM      9  C   UNL     1      34.056 -16.253 -25.280  0.00  0.00    +0.100 C 
ATOM     10  H   UNL     1      34.130 -14.595 -21.605  0.00  0.00    +0.154 HD
ENDROOT
BRANCH   4  11
ATOM     11  N   UNL     1      35.717 -18.699 -21.026  0.00  0.00    -0.311 N 
ATOM     12  H   UNL     1      36.702 -18.722 -21.009  0.00  0.00    +0.152 HD
BRANCH  11  13
ATOM     13  C   UNL     1      35.105 -19.858 -20.459  0.00  0.00    +0.048 C 
ATOM     14  C   UNL     1      33.720 -20.013 -20.512  0.00  0.00    +0.015 C 
ATOM     15  C   UNL     1      35.893 -20.837 -19.852  0.00  0.00    +0.015 C 
ATOM     16  C   UNL     1      33.122 -21.145 -19.959  0.00  0.00    +0.001 C 
ATOM     17  C   UNL     1      35.295 -21.969 -19.298  0.00  0.00    +0.001 C 
ATOM     18  C   UNL     1      33.909 -22.123 -19.351  0.00  0.00    +0.000 C 
ENDBRANCH  11  13
ENDBRANCH   4  11
TORSDOF 2
ENDMDL
MODEL 4
REMARK VINA RESULT:      -9.0      1.199      1.851
REMARK  Name = 24180721
REMARK  2 active torsions:
REMARK  status: ('A' for Active; 'I' for Inactive)
REMARK    1  A    between atoms: C_4  and  N_11
REMARK    2  A    between atoms: N_11  and  C_13
REMARK                            x       y       z     vdW  Elec       q    Type
REMARK                         _______ _______ _______ _____ _____    ______ ____
ROOT
ATOM      1  N   UNL     1      33.981 -15.831 -24.337  0.00  0.00    -0.296 N 
ATOM      2  N   UNL     1      32.797 -14.088 -23.168  0.00  0.00    -0.229 NA
ATOM      3  C   UNL     1      34.014 -15.934 -22.106  0.00  0.00    +0.046 C 
ATOM      4  C   UNL     1      34.754 -17.028 -22.628  0.00  0.00    +0.066 C 
ATOM      5  C   UNL     1      33.546 -15.207 -23.197  0.00  0.00    +0.133 C 
ATOM      6  C   UNL     1      34.716 -16.939 -24.003  0.00  0.00    +0.078 C 
ATOM      7  C   UNL     1      33.679 -15.464 -20.826  0.00  0.00    +0.006 C 
ATOM      8  C   UNL     1      32.905 -14.309 -20.737  0.00  0.00    +0.021 C 
ATOM      9  C   UNL     1      32.505 -13.682 -21.910  0.00  0.00    +0.100 C 
ATOM     10  H   UNL     1      33.795 -15.529 -25.255  0.00  0.00    +0.154 HD
ENDROOT
BRANCH   4  11
ATOM     11  N   UNL     1      35.384 -17.989 -21.920  0.00  0.00    -0.311 N 
ATOM     12  H   UNL     1      36.365 -17.902 -21.920  0.00  0.00    +0.152 HD
BRANCH  11  13
ATOM     13  C   UNL     1      34.907 -19.106 -21.169  0.00  0.00    +0.048 C 
ATOM     14  C   UNL     1      33.536 -19.304 -21.007  0.00  0.00    +0.015 C 
ATOM     15  C   UNL     1      35.812 -20.001 -20.598  0.00  0.00    +0.015 C 
ATOM     16  C   UNL     1      33.069 -20.394 -20.275  0.00  0.00    +0.001 C 
ATOM     17  C   UNL     1      35.346 -21.092 -19.865  0.00  0.00    +0.001 C 
ATOM     18  C   UNL     1      33.974 -21.289 -19.703  0.00  0.00    +0.000 C 
ENDBRANCH  11  13
ENDBRANCH   4  11
TORSDOF 2
ENDMDL
MODEL 5
REMARK VINA RESULT:      -8.7      4.433      8.107
REMARK  Name = 24180721
REMARK  2 active torsions:
REMARK  status: ('A' for Active; 'I' for Inactive)
REMARK    1  A    between atoms: C_4  and  N_11
REMARK    2  A    between atoms: N_11  and  C_13
REMARK                            x       y       z     vdW  Elec       q    Type
REMARK                         _______ _______ _______ _____ _____    ______ ____
ROOT
ATOM      1  N   UNL     1      34.001 -23.520 -14.970  0.00  0.00    -0.296 N 
ATOM      2  N   UNL     1      31.868 -23.451 -13.851  0.00  0.00    -0.229 NA
ATOM      3  C   UNL     1      32.214 -23.170 -16.263  0.00  0.00    +0.046 C 
ATOM      4  C   UNL     1      33.377 -23.181 -17.078  0.00  0.00    +0.066 C 
ATOM      5  C   UNL     1      32.637 -23.385 -14.955  0.00  0.00    +0.133 C 
ATOM      6  C   UNL     1      34.461 -23.398 -16.255  0.00  0.00    +0.078 C 
ATOM      7  C   UNL     1      30.836 -23.002 -16.476  0.00  0.00    +0.006 C 
ATOM      8  C   UNL     1      29.993 -23.061 -15.368  0.00  0.00    +0.021 C 
ATOM      9  C   UNL     1      30.552 -23.282 -14.116  0.00  0.00    +0.100 C 
ATOM     10  H   UNL     1      34.563 -23.682 -14.179  0.00  0.00    +0.154 HD
ENDROOT
BRANCH   4  11
ATOM     11  N   UNL     1      33.427 -23.011 -18.416  0.00  0.00    -0.311 N 
ATOM     12  H   UNL     1      33.059 -23.768 -18.926  0.00  0.00    +0.152 HD
BRANCH  11  13
ATOM     13  C   UNL     1      33.909 -21.946 -19.237  0.00  0.00    +0.048 C 
ATOM     14  C   UNL     1      35.276 -21.824 -19.492  0.00  0.00    +0.015 C 
ATOM     15  C   UNL     1      33.014 -21.028 -19.785  0.00  0.00    +0.015 C 
ATOM     16  C   UNL     1      35.747 -20.786 -20.294  0.00  0.00    +0.001 C 
ATOM     17  C   UNL     1      33.485 -19.988 -20.587  0.00  0.00    +0.001 C 
ATOM     18  C   UNL     1      34.851 -19.866 -20.842  0.00  0.00    +0.000 C 
ENDBRANCH  11  13
ENDBRANCH   4  11
TORSDOF 2
ENDMDL
MODEL 6
REMARK VINA RESULT:      -8.7      1.341      5.668
REMARK  Name = 24180721
REMARK  2 active torsions:
REMARK  status: ('A' for Active; 'I' for Inactive)
REMARK    1  A    between atoms: C_4  and  N_11
REMARK    2  A    between atoms: N_11  and  C_13
REMARK                            x       y       z     vdW  Elec       q    Type
REMARK                         _______ _______ _______ _____ _____    ______ ____
ROOT
ATOM      1  N   UNL     1      36.797 -20.349 -19.965  0.00  0.00    -0.296 N 
ATOM      2  N   UNL     1      34.858 -21.578 -19.232  0.00  0.00    -0.229 NA
ATOM      3  C   UNL     1      34.839 -19.721 -20.835  0.00  0.00    +0.046 C 
ATOM      4  C   UNL     1      35.865 -18.899 -21.371  0.00  0.00    +0.066 C 
ATOM      5  C   UNL     1      35.453 -20.615 -19.963  0.00  0.00    +0.133 C 
ATOM      6  C   UNL     1      37.059 -19.308 -20.817  0.00  0.00    +0.078 C 
ATOM      7  C   UNL     1      33.446 -19.819 -20.985  0.00  0.00    +0.006 C 
ATOM      8  C   UNL     1      32.779 -20.799 -20.252  0.00  0.00    +0.021 C 
ATOM      9  C   UNL     1      33.518 -21.626 -19.416  0.00  0.00    +0.100 C 
ATOM     10  H   UNL     1      37.471 -20.833 -19.436  0.00  0.00    +0.154 HD
ENDROOT
BRANCH   4  11
ATOM     11  N   UNL     1      35.714 -17.895 -22.261  0.00  0.00    -0.311 N 
ATOM     12  H   UNL     1      36.106 -18.087 -23.144  0.00  0.00    +0.152 HD
BRANCH  11  13
ATOM     13  C   UNL     1      35.097 -16.610 -22.173  0.00  0.00    +0.048 C 
ATOM     14  C   UNL     1      34.837 -15.879 -23.332  0.00  0.00    +0.015 C 
ATOM     15  C   UNL     1      34.754 -16.086 -20.926  0.00  0.00    +0.015 C 
ATOM     16  C   UNL     1      34.233 -14.626 -23.246  0.00  0.00    +0.001 C 
ATOM     17  C   UNL     1      34.151 -14.831 -20.840  0.00  0.00    +0.001 C 
ATOM     18  C   UNL     1      33.890 -14.100 -22.000  0.00  0.00    +0.000 C 
ENDBRANCH  11  13
ENDBRANCH   4  11
TORSDOF 2
ENDMDL
MODEL 7
REMARK VINA RESULT:      -8.6      1.644      5.982
REMARK  Name = 24180721
REMARK  2 active torsions:
REMARK  status: ('A' for Active; 'I' for Inactive)
REMARK    1  A    between atoms: C_4  and  N_11
REMARK    2  A    between atoms: N_11  and  C_13
REMARK                            x       y       z     vdW  Elec       q    Type
REMARK                         _______ _______ _______ _____ _____    ______ ____
ROOT
ATOM      1  N   UNL     1      32.687 -20.777 -20.138  0.00  0.00    -0.296 N 
ATOM      2  N   UNL     1      34.084 -22.111 -18.697  0.00  0.00    -0.229 NA
ATOM      3  C   UNL     1      34.884 -20.399 -20.260  0.00  0.00    +0.046 C 
ATOM      4  C   UNL     1      34.217 -19.533 -21.168  0.00  0.00    +0.066 C 
ATOM      5  C   UNL     1      33.903 -21.160 -19.634  0.00  0.00    +0.133 C 
ATOM      6  C   UNL     1      32.866 -19.790 -21.071  0.00  0.00    +0.078 C 
ATOM      7  C   UNL     1      36.218 -20.632 -19.887  0.00  0.00    +0.006 C 
ATOM      8  C   UNL     1      36.464 -21.606 -18.922  0.00  0.00    +0.021 C 
ATOM      9  C   UNL     1      35.387 -22.293 -18.378  0.00  0.00    +0.100 C 
ATOM     10  H   UNL     1      31.818 -21.154 -19.869  0.00  0.00    +0.154 HD
ENDROOT
BRANCH   4  11
ATOM     11  N   UNL     1      34.788 -18.623 -21.984  0.00  0.00    -0.311 N 
ATOM     12  H   UNL     1      35.413 -19.013 -22.637  0.00  0.00    +0.152 HD
BRANCH  11  13
ATOM     13  C   UNL     1      34.663 -17.204 -22.086  0.00  0.00    +0.048 C 
ATOM     14  C   UNL     1      34.623 -16.595 -23.341  0.00  0.00    +0.015 C 
ATOM     15  C   UNL     1      34.579 -16.426 -20.931  0.00  0.00    +0.015 C 
ATOM     16  C   UNL     1      34.500 -15.210 -23.441  0.00  0.00    +0.001 C 
ATOM     17  C   UNL     1      34.456 -15.040 -21.032  0.00  0.00    +0.001 C 
ATOM     18  C   UNL     1      34.417 -14.431 -22.286  0.00  0.00    +0.000 C 
ENDBRANCH  11  13
ENDBRANCH   4  11
TORSDOF 2
ENDMDL
MODEL 8
REMARK VINA RESULT:      -8.4      4.580      8.433
REMARK  Name = 24180721
REMARK  2 active torsions:
REMARK  status: ('A' for Active; 'I' for Inactive)
REMARK    1  A    between atoms: C_4  and  N_11
REMARK    2  A    between atoms: N_11  and  C_13
REMARK                            x       y       z     vdW  Elec       q    Type
REMARK                         _______ _______ _______ _____ _____    ______ ____
ROOT
ATOM      1  N   UNL     1      31.439 -23.082 -15.314  0.00  0.00    -0.296 N 
ATOM      2  N   UNL     1      32.923 -23.713 -13.523  0.00  0.00    -0.229 NA
ATOM      3  C   UNL     1      33.547 -23.544 -15.889  0.00  0.00    +0.046 C 
ATOM      4  C   UNL     1      32.819 -23.193 -17.056  0.00  0.00    +0.066 C 
ATOM      5  C   UNL     1      32.660 -23.464 -14.820  0.00  0.00    +0.133 C 
ATOM      6  C   UNL     1      31.525 -22.915 -16.672  0.00  0.00    +0.078 C 
ATOM      7  C   UNL     1      34.869 -23.923 -15.603  0.00  0.00    +0.006 C 
ATOM      8  C   UNL     1      35.197 -24.194 -14.276  0.00  0.00    +0.021 C 
ATOM      9  C   UNL     1      34.209 -24.074 -13.307  0.00  0.00    +0.100 C 
ATOM     10  H   UNL     1      30.627 -22.947 -14.775  0.00  0.00    +0.154 HD
ENDROOT
BRANCH   4  11
ATOM     11  N   UNL     1      33.292 -23.139 -18.319  0.00  0.00    -0.311 N 
ATOM     12  H   UNL     1      33.175 -23.978 -18.821  0.00  0.00    +0.152 HD
BRANCH  11  13
ATOM     13  C   UNL     1      33.929 -22.104 -19.069  0.00  0.00    +0.048 C 
ATOM     14  C   UNL     1      33.160 -21.183 -19.781  0.00  0.00    +0.015 C 
ATOM     15  C   UNL     1      35.321 -22.013 -19.089  0.00  0.00    +0.015 C 
ATOM     16  C   UNL     1      33.781 -20.172 -20.512  0.00  0.00    +0.001 C 
ATOM     17  C   UNL     1      35.943 -21.002 -19.822  0.00  0.00    +0.001 C 
ATOM     18  C   UNL     1      35.173 -20.081 -20.534  0.00  0.00    +0.000 C 
ENDBRANCH  11  13
ENDBRANCH   4  11
TORSDOF 2
ENDMDL
MODEL 9
REMARK VINA RESULT:      -8.4      3.482      7.526
REMARK  Name = 24180721
REMARK  2 active torsions:
REMARK  status: ('A' for Active; 'I' for Inactive)
REMARK    1  A    between atoms: C_4  and  N_11
REMARK    2  A    between atoms: N_11  and  C_13
REMARK                            x       y       z     vdW  Elec       q    Type
REMARK                         _______ _______ _______ _____ _____    ______ ____
ROOT
ATOM      1  N   UNL     1      33.763 -14.468 -24.260  0.00  0.00    -0.296 N 
ATOM      2  N   UNL     1      34.922 -16.008 -22.814  0.00  0.00    -0.229 NA
ATOM      3  C   UNL     1      33.230 -14.386 -22.092  0.00  0.00    +0.046 C 
ATOM      4  C   UNL     1      32.459 -13.420 -22.793  0.00  0.00    +0.066 C 
ATOM      5  C   UNL     1      34.031 -15.022 -23.035  0.00  0.00    +0.133 C 
ATOM      6  C   UNL     1      32.808 -13.493 -24.124  0.00  0.00    +0.078 C 
ATOM      7  C   UNL     1      33.347 -14.805 -20.757  0.00  0.00    +0.006 C 
ATOM      8  C   UNL     1      34.255 -15.822 -20.470  0.00  0.00    +0.021 C 
ATOM      9  C   UNL     1      34.994 -16.370 -21.511  0.00  0.00    +0.100 C 
ATOM     10  H   UNL     1      34.189 -14.731 -25.107  0.00  0.00    +0.154 HD
ENDROOT
BRANCH   4  11
ATOM     11  N   UNL     1      31.547 -12.576 -22.265  0.00  0.00    -0.311 N 
ATOM     12  H   UNL     1      30.620 -12.780 -22.528  0.00  0.00    +0.152 HD
BRANCH  11  13
ATOM     13  C   UNL     1      31.663 -11.447 -21.398  0.00  0.00    +0.048 C 
ATOM     14  C   UNL     1      31.556 -11.612 -20.017  0.00  0.00    +0.015 C 
ATOM     15  C   UNL     1      31.884 -10.178 -21.933  0.00  0.00    +0.015 C 
ATOM     16  C   UNL     1      31.670 -10.510 -19.171  0.00  0.00    +0.001 C 
ATOM     17  C   UNL     1      31.998  -9.075 -21.087  0.00  0.00    +0.001 C 
ATOM     18  C   UNL     1      31.891  -9.240 -19.706  0.00  0.00    +0.000 C 
ENDBRANCH  11  13
ENDBRANCH   4  11
TORSDOF 2
ENDMDL
