MODEL 1
REMARK VINA RESULT:      -7.9      0.000      0.000
REMARK  Name = 11171679
REMARK  3 active torsions:
REMARK  status: ('A' for Active; 'I' for Inactive)
REMARK    1  A    between atoms: C_2  and  C_12
REMARK    2  A    between atoms: C_3  and  C_7
REMARK    3  A    between atoms: C_12  and  N_13
REMARK                            x       y       z     vdW  Elec       q    Type
REMARK                         _______ _______ _______ _____ _____    ______ ____
ROOT
ATOM      1  O   UNL     1      34.394 -17.558 -21.859  0.00  0.00    -0.460 OA
ATOM      2  C   UNL     1      34.687 -16.855 -22.968  0.00  0.00    +0.102 C 
ATOM      3  C   UNL     1      34.556 -18.862 -22.203  0.00  0.00    +0.146 C 
ATOM      4  C   UNL     1      35.030 -17.646 -24.012  0.00  0.00    +0.034 C 
ATOM      5  C   UNL     1      34.947 -18.969 -23.518  0.00  0.00    +0.040 C 
ENDROOT
BRANCH   3   7
ATOM      6  N   UNL     1      32.681 -20.951 -19.757  0.00  0.00    -0.242 NA
ATOM      7  C   UNL     1      34.292 -19.812 -21.159  0.00  0.00    +0.054 C 
ATOM      8  C   UNL     1      35.327 -20.509 -20.541  0.00  0.00    +0.006 C 
ATOM      9  C   UNL     1      32.997 -20.070 -20.732  0.00  0.00    +0.102 C 
ATOM     10  C   UNL     1      35.041 -21.424 -19.534  0.00  0.00    +0.021 C 
ATOM     11  C   UNL     1      33.713 -21.607 -19.182  0.00  0.00    +0.099 C 
ENDBRANCH   3   7
BRANCH   2  12
ATOM     12  C   UNL     1      34.576 -15.365 -22.825  0.00  0.00    -0.011 C 
BRANCH  12  13
ATOM     13  N   UNL     1      33.248 -14.878 -23.194  0.00  0.00    +0.389 N 
ATOM     14  C   UNL     1      32.582 -14.284 -22.036  0.00  0.00    -0.100 C 
ATOM     15  C   UNL     1      33.343 -13.906 -24.283  0.00  0.00    -0.100 C 
ATOM     16  H   UNL     1      32.691 -15.670 -23.516  0.00  0.00    -0.079 HD
ENDBRANCH  12  13
ENDBRANCH   2  12
TORSDOF 3
ENDMDL
MODEL 2
REMARK VINA RESULT:      -7.4      1.796      6.347
REMARK  Name = 11171679
REMARK  3 active torsions:
REMARK  status: ('A' for Active; 'I' for Inactive)
REMARK    1  A    between atoms: C_2  and  C_12
REMARK    2  A    between atoms: C_3  and  C_7
REMARK    3  A    between atoms: C_12  and  N_13
REMARK                            x       y       z     vdW  Elec       q    Type
REMARK                         _______ _______ _______ _____ _____    ______ ____
ROOT
ATOM      1  O   UNL     1      34.888 -17.127 -22.904  0.00  0.00    -0.460 OA
ATOM      2  C   UNL     1      35.193 -17.446 -21.633  0.00  0.00    +0.102 C 
ATOM      3  C   UNL     1      34.327 -15.892 -22.843  0.00  0.00    +0.146 C 
ATOM      4  C   UNL     1      34.853 -16.473 -20.754  0.00  0.00    +0.034 C 
ATOM      5  C   UNL     1      34.283 -15.445 -21.542  0.00  0.00    +0.040 C 
ENDROOT
BRANCH   3   7
ATOM      6  N   UNL     1      33.518 -15.654 -26.470  0.00  0.00    -0.242 NA
ATOM      7  C   UNL     1      33.915 -15.339 -24.103  0.00  0.00    +0.054 C 
ATOM      8  C   UNL     1      33.521 -14.008 -24.211  0.00  0.00    +0.006 C 
ATOM      9  C   UNL     1      33.895 -16.112 -25.255  0.00  0.00    +0.102 C 
ATOM     10  C   UNL     1      33.127 -13.501 -25.444  0.00  0.00    +0.021 C 
ATOM     11  C   UNL     1      33.142 -14.358 -26.533  0.00  0.00    +0.099 C 
ENDBRANCH   3   7
BRANCH   2  12
ATOM     12  C   UNL     1      35.835 -18.791 -21.450  0.00  0.00    -0.011 C 
BRANCH  12  13
ATOM     13  N   UNL     1      35.139 -19.597 -20.447  0.00  0.00    +0.389 N 
ATOM     14  C   UNL     1      33.826 -20.007 -20.942  0.00  0.00    -0.100 C 
ATOM     15  C   UNL     1      35.938 -20.767 -20.087  0.00  0.00    -0.100 C 
ATOM     16  H   UNL     1      35.006 -19.027 -19.611  0.00  0.00    -0.079 HD
ENDBRANCH  12  13
ENDBRANCH   2  12
TORSDOF 3
ENDMDL
MODEL 3
REMARK VINA RESULT:      -7.2      2.029      6.436
REMARK  Name = 11171679
REMARK  3 active torsions:
REMARK  status: ('A' for Active; 'I' for Inactive)
REMARK    1  A    between atoms: C_2  and  C_12
REMARK    2  A    between atoms: C_3  and  C_7
REMARK    3  A    between atoms: C_12  and  N_13
REMARK                            x       y       z     vdW  Elec       q    Type
REMARK                         _______ _______ _______ _____ _____    ______ ____
ROOT
ATOM      1  O   UNL     1      35.279 -20.300 -20.377  0.00  0.00    -0.460 OA
ATOM      2  C   UNL     1      34.769 -21.243 -19.566  0.00  0.00    +0.102 C 
ATOM      3  C   UNL     1      34.205 -19.675 -20.926  0.00  0.00    +0.146 C 
ATOM      4  C   UNL     1      33.414 -21.256 -19.566  0.00  0.00    +0.034 C 
ATOM      5  C   UNL     1      33.035 -20.226 -20.459  0.00  0.00    +0.040 C 
ENDROOT
BRANCH   3   7
ATOM      6  N   UNL     1      34.934 -16.258 -22.216  0.00  0.00    -0.242 NA
ATOM      7  C   UNL     1      34.512 -18.613 -21.843  0.00  0.00    +0.054 C 
ATOM      8  C   UNL     1      34.688 -18.862 -23.202  0.00  0.00    +0.006 C 
ATOM      9  C   UNL     1      34.646 -17.303 -21.407  0.00  0.00    +0.102 C 
ATOM     10  C   UNL     1      34.985 -17.814 -24.065  0.00  0.00    +0.021 C 
ATOM     11  C   UNL     1      35.097 -16.542 -23.527  0.00  0.00    +0.099 C 
ENDBRANCH   3   7
BRANCH   2  12
ATOM     12  C   UNL     1      35.785 -22.075 -18.838  0.00  0.00    -0.011 C 
BRANCH  12  13
ATOM     13  N   UNL     1      35.723 -21.873 -17.391  0.00  0.00    +0.389 N 
ATOM     14  C   UNL     1      34.986 -22.963 -16.754  0.00  0.00    -0.100 C 
ATOM     15  C   UNL     1      37.069 -21.769 -16.831  0.00  0.00    -0.100 C 
ATOM     16  H   UNL     1      35.228 -20.999 -17.208  0.00  0.00    -0.079 HD
ENDBRANCH  12  13
ENDBRANCH   2  12
TORSDOF 3
ENDMDL
MODEL 4
REMARK VINA RESULT:      -7.2      2.769      4.438
REMARK  Name = 11171679
REMARK  3 active torsions:
REMARK  status: ('A' for Active; 'I' for Inactive)
REMARK    1  A    between atoms: C_2  and  C_12
REMARK    2  A    between atoms: C_3  and  C_7
REMARK    3  A    between atoms: C_12  and  N_13
REMARK                            x       y       z     vdW  Elec       q    Type
REMARK                         _______ _______ _______ _____ _____    ______ ____
ROOT
ATOM      1  O   UNL     1      34.263 -14.255 -23.651  0.00  0.00    -0.460 OA
ATOM      2  C   UNL     1      33.449 -13.186 -23.708  0.00  0.00    +0.102 C 
ATOM      3  C   UNL     1      33.796 -15.010 -22.623  0.00  0.00    +0.146 C 
ATOM      4  C   UNL     1      32.478 -13.216 -22.764  0.00  0.00    +0.034 C 
ATOM      5  C   UNL     1      32.699 -14.414 -22.045  0.00  0.00    +0.040 C 
ENDROOT
BRANCH   3   7
ATOM      6  N   UNL     1      35.498 -17.755 -20.770  0.00  0.00    -0.242 NA
ATOM      7  C   UNL     1      34.522 -16.223 -22.370  0.00  0.00    +0.054 C 
ATOM      8  C   UNL     1      34.951 -17.038 -23.415  0.00  0.00    +0.006 C 
ATOM      9  C   UNL     1      34.820 -16.626 -21.076  0.00  0.00    +0.102 C 
ATOM     10  C   UNL     1      35.651 -18.207 -23.139  0.00  0.00    +0.021 C 
ATOM     11  C   UNL     1      35.897 -18.518 -21.812  0.00  0.00    +0.099 C 
ENDBRANCH   3   7
BRANCH   2  12
ATOM     12  C   UNL     1      33.776 -12.194 -24.787  0.00  0.00    -0.011 C 
BRANCH  12  13
ATOM     13  N   UNL     1      34.429 -10.999 -24.252  0.00  0.00    +0.389 N 
ATOM     14  C   UNL     1      35.281 -10.384 -25.269  0.00  0.00    -0.100 C 
ATOM     15  C   UNL     1      33.432 -10.043 -23.773  0.00  0.00    -0.100 C 
ATOM     16  H   UNL     1      35.015 -11.277 -23.464  0.00  0.00    -0.079 HD
ENDBRANCH  12  13
ENDBRANCH   2  12
TORSDOF 3
ENDMDL
MODEL 5
REMARK VINA RESULT:      -7.2      1.467      6.244
REMARK  Name = 11171679
REMARK  3 active torsions:
REMARK  status: ('A' for Active; 'I' for Inactive)
REMARK    1  A    between atoms: C_2  and  C_12
REMARK    2  A    between atoms: C_3  and  C_7
REMARK    3  A    between atoms: C_12  and  N_13
REMARK                            x       y       z     vdW  Elec       q    Type
REMARK                         _______ _______ _______ _____ _____    ______ ____
ROOT
ATOM      1  O   UNL     1      34.881 -17.250 -22.806  0.00  0.00    -0.460 OA
ATOM      2  C   UNL     1      35.205 -18.550 -22.688  0.00  0.00    +0.102 C 
ATOM      3  C   UNL     1      34.466 -17.096 -24.090  0.00  0.00    +0.146 C 
ATOM      4  C   UNL     1      35.019 -19.242 -23.838  0.00  0.00    +0.034 C 
ATOM      5  C   UNL     1      34.532 -18.292 -24.766  0.00  0.00    +0.040 C 
ENDROOT
BRANCH   3   7
ATOM      6  N   UNL     1      33.897 -13.423 -23.865  0.00  0.00    -0.242 NA
ATOM      7  C   UNL     1      34.064 -15.766 -24.452  0.00  0.00    +0.054 C 
ATOM      8  C   UNL     1      33.472 -15.502 -25.684  0.00  0.00    +0.006 C 
ATOM      9  C   UNL     1      34.252 -14.697 -23.586  0.00  0.00    +0.102 C 
ATOM     10  C   UNL     1      33.093 -14.203 -26.007  0.00  0.00    +0.021 C 
ATOM     11  C   UNL     1      33.326 -13.208 -25.071  0.00  0.00    +0.099 C 
ENDBRANCH   3   7
BRANCH   2  12
ATOM     12  C   UNL     1      35.699 -18.964 -21.331  0.00  0.00    -0.011 C 
BRANCH  12  13
ATOM     13  N   UNL     1      35.221 -20.294 -20.958  0.00  0.00    +0.389 N 
ATOM     14  C   UNL     1      36.102 -20.891 -19.955  0.00  0.00    -0.100 C 
ATOM     15  C   UNL     1      33.850 -20.222 -20.454  0.00  0.00    -0.100 C 
ATOM     16  H   UNL     1      35.229 -20.886 -21.789  0.00  0.00    -0.079 HD
ENDBRANCH  12  13
ENDBRANCH   2  12
TORSDOF 3
ENDMDL
MODEL 6
REMARK VINA RESULT:      -7.2      1.606      2.156
REMARK  Name = 11171679
REMARK  3 active torsions:
REMARK  status: ('A' for Active; 'I' for Inactive)
REMARK    1  A    between atoms: C_2  and  C_12
REMARK    2  A    between atoms: C_3  and  C_7
REMARK    3  A    between atoms: C_12  and  N_13
REMARK                            x       y       z     vdW  Elec       q    Type
REMARK                         _______ _______ _______ _____ _____    ______ ____
ROOT
ATOM      1  O   UNL     1      34.396 -18.675 -21.681  0.00  0.00    -0.460 OA
ATOM      2  C   UNL     1      35.128 -17.792 -22.383  0.00  0.00    +0.102 C 
ATOM      3  C   UNL     1      35.297 -19.452 -21.026  0.00  0.00    +0.146 C 
ATOM      4  C   UNL     1      36.461 -17.965 -22.213  0.00  0.00    +0.034 C 
ATOM      5  C   UNL     1      36.581 -19.055 -21.320  0.00  0.00    +0.040 C 
ENDROOT
BRANCH   3   7
ATOM      6  N   UNL     1      32.772 -21.635 -19.375  0.00  0.00    -0.242 NA
ATOM      7  C   UNL     1      34.736 -20.483 -20.199  0.00  0.00    +0.054 C 
ATOM      8  C   UNL     1      35.548 -21.319 -19.438  0.00  0.00    +0.006 C 
ATOM      9  C   UNL     1      33.364 -20.683 -20.131  0.00  0.00    +0.102 C 
ATOM     10  C   UNL     1      34.976 -22.309 -18.648  0.00  0.00    +0.021 C 
ATOM     11  C   UNL     1      33.596 -22.425 -18.651  0.00  0.00    +0.099 C 
ENDBRANCH   3   7
BRANCH   2  12
ATOM     12  C   UNL     1      34.334 -16.813 -23.200  0.00  0.00    -0.011 C 
BRANCH  12  13
ATOM     13  N   UNL     1      34.634 -16.922 -24.627  0.00  0.00    +0.389 N 
ATOM     14  C   UNL     1      34.313 -18.262 -25.116  0.00  0.00    -0.100 C 
ATOM     15  C   UNL     1      33.896 -15.912 -25.383  0.00  0.00    -0.100 C 
ATOM     16  H   UNL     1      35.633 -16.760 -24.761  0.00  0.00    -0.079 HD
ENDBRANCH  12  13
ENDBRANCH   2  12
TORSDOF 3
ENDMDL
MODEL 7
REMARK VINA RESULT:      -7.0      4.978      9.262
REMARK  Name = 11171679
REMARK  3 active torsions:
REMARK  status: ('A' for Active; 'I' for Inactive)
REMARK    1  A    between atoms: C_2  and  C_12
REMARK    2  A    between atoms: C_3  and  C_7
REMARK    3  A    between atoms: C_12  and  N_13
REMARK                            x       y       z     vdW  Elec       q    Type
REMARK                         _______ _______ _______ _____ _____    ______ ____
ROOT
ATOM      1  O   UNL     1      35.458 -23.420 -16.387  0.00  0.00    -0.460 OA
ATOM      2  C   UNL     1      36.408 -23.669 -15.468  0.00  0.00    +0.102 C 
ATOM      3  C   UNL     1      35.970 -22.445 -17.181  0.00  0.00    +0.146 C 
ATOM      4  C   UNL     1      37.510 -22.899 -15.633  0.00  0.00    +0.034 C 
ATOM      5  C   UNL     1      37.230 -22.090 -16.759  0.00  0.00    +0.040 C 
ENDROOT
BRANCH   3   7
ATOM      6  N   UNL     1      32.938 -22.050 -19.307  0.00  0.00    -0.242 NA
ATOM      7  C   UNL     1      35.116 -22.009 -18.251  0.00  0.00    +0.054 C 
ATOM      8  C   UNL     1      35.585 -21.156 -19.246  0.00  0.00    +0.006 C 
ATOM      9  C   UNL     1      33.794 -22.423 -18.329  0.00  0.00    +0.102 C 
ATOM     10  C   UNL     1      34.735 -20.751 -20.269  0.00  0.00    +0.021 C 
ATOM     11  C   UNL     1      33.432 -21.222 -20.254  0.00  0.00    +0.099 C 
ENDBRANCH   3   7
BRANCH   2  12
ATOM     12  C   UNL     1      36.060 -24.731 -14.464  0.00  0.00    -0.011 C 
BRANCH  12  13
ATOM     13  N   UNL     1      37.127 -25.722 -14.326  0.00  0.00    +0.389 N 
ATOM     14  C   UNL     1      37.214 -26.189 -12.943  0.00  0.00    -0.100 C 
ATOM     15  C   UNL     1      36.899 -26.847 -15.232  0.00  0.00    -0.100 C 
ATOM     16  H   UNL     1      38.013 -25.281 -14.575  0.00  0.00    -0.079 HD
ENDBRANCH  12  13
ENDBRANCH   2  12
TORSDOF 3
ENDMDL
MODEL 8
REMARK VINA RESULT:      -7.0      4.817      9.233
REMARK  Name = 11171679
REMARK  3 active torsions:
REMARK  status: ('A' for Active; 'I' for Inactive)
REMARK    1  A    between atoms: C_2  and  C_12
REMARK    2  A    between atoms: C_3  and  C_7
REMARK    3  A    between atoms: C_12  and  N_13
REMARK                            x       y       z     vdW  Elec       q    Type
REMARK                         _______ _______ _______ _____ _____    ______ ____
ROOT
ATOM      1  O   UNL     1      35.984 -23.150 -16.497  0.00  0.00    -0.460 OA
ATOM      2  C   UNL     1      35.614 -23.914 -15.454  0.00  0.00    +0.102 C 
ATOM      3  C   UNL     1      34.830 -22.826 -17.135  0.00  0.00    +0.146 C 
ATOM      4  C   UNL     1      34.274 -24.098 -15.389  0.00  0.00    +0.034 C 
ATOM      5  C   UNL     1      33.749 -23.384 -16.492  0.00  0.00    +0.040 C 
ENDROOT
BRANCH   3   7
ATOM      6  N   UNL     1      36.432 -20.727 -19.761  0.00  0.00    -0.242 NA
ATOM      7  C   UNL     1      34.980 -22.000 -18.301  0.00  0.00    +0.054 C 
ATOM      8  C   UNL     1      33.886 -21.669 -19.095  0.00  0.00    +0.006 C 
ATOM      9  C   UNL     1      36.221 -21.507 -18.677  0.00  0.00    +0.102 C 
ATOM     10  C   UNL     1      34.063 -20.869 -20.218  0.00  0.00    +0.021 C 
ATOM     11  C   UNL     1      35.345 -20.427 -20.505  0.00  0.00    +0.099 C 
ENDBRANCH   3   7
BRANCH   2  12
ATOM     12  C   UNL     1      36.742 -24.398 -14.588  0.00  0.00    -0.011 C 
BRANCH  12  13
ATOM     13  N   UNL     1      37.570 -25.389 -15.274  0.00  0.00    +0.389 N 
ATOM     14  C   UNL     1      38.889 -25.473 -14.649  0.00  0.00    -0.100 C 
ATOM     15  C   UNL     1      36.917 -26.697 -15.264  0.00  0.00    -0.100 C 
ATOM     16  H   UNL     1      37.690 -25.095 -16.244  0.00  0.00    -0.079 HD
ENDBRANCH  12  13
ENDBRANCH   2  12
TORSDOF 3
ENDMDL
MODEL 9
REMARK VINA RESULT:      -7.0      1.670      2.446
REMARK  Name = 11171679
REMARK  3 active torsions:
REMARK  status: ('A' for Active; 'I' for Inactive)
REMARK    1  A    between atoms: C_2  and  C_12
REMARK    2  A    between atoms: C_3  and  C_7
REMARK    3  A    between atoms: C_12  and  N_13
REMARK                            x       y       z     vdW  Elec       q    Type
REMARK                         _______ _______ _______ _____ _____    ______ ____
ROOT
ATOM      1  O   UNL     1      34.575 -17.065 -22.900  0.00  0.00    -0.460 OA
ATOM      2  C   UNL     1      34.433 -15.753 -23.161  0.00  0.00    +0.102 C 
ATOM      3  C   UNL     1      34.639 -17.160 -21.547  0.00  0.00    +0.146 C 
ATOM      4  C   UNL     1      34.403 -14.997 -22.037  0.00  0.00    +0.034 C 
ATOM      5  C   UNL     1      34.538 -15.916 -20.970  0.00  0.00    +0.040 C 
ENDROOT
BRANCH   3   7
ATOM      6  N   UNL     1      36.260 -20.236 -20.214  0.00  0.00    -0.242 NA
ATOM      7  C   UNL     1      34.794 -18.491 -21.029  0.00  0.00    +0.054 C 
ATOM      8  C   UNL     1      33.693 -19.321 -20.833  0.00  0.00    +0.006 C 
ATOM      9  C   UNL     1      36.046 -18.995 -20.705  0.00  0.00    +0.102 C 
ATOM     10  C   UNL     1      33.874 -20.604 -20.330  0.00  0.00    +0.021 C 
ATOM     11  C   UNL     1      35.166 -21.010 -20.038  0.00  0.00    +0.099 C 
ENDBRANCH   3   7
BRANCH   2  12
ATOM     12  C   UNL     1      34.339 -15.400 -24.617  0.00  0.00    -0.011 C 
BRANCH  12  13
ATOM     13  N   UNL     1      33.180 -14.554 -24.900  0.00  0.00    +0.389 N 
ATOM     14  C   UNL     1      33.503 -13.148 -24.661  0.00  0.00    -0.100 C 
ATOM     15  C   UNL     1      32.730 -14.747 -26.278  0.00  0.00    -0.100 C 
ATOM     16  H   UNL     1      32.422 -14.822 -24.272  0.00  0.00    -0.079 HD
ENDBRANCH  12  13
ENDBRANCH   2  12
TORSDOF 3
ENDMDL
