MODEL 1
REMARK VINA RESULT:      -9.1      0.000      0.000
REMARK  Name = 7077
REMARK  6 active torsions:
REMARK  status: ('A' for Active; 'I' for Inactive)
REMARK    1  A    between atoms: C_1  and  C_14
REMARK    2  A    between atoms: C_2  and  O_7
REMARK    3  A    between atoms: O_7  and  C_8
REMARK    4  A    between atoms: C_8  and  C_9
REMARK    5  A    between atoms: C_9  and  N_10
REMARK    6  A    between atoms: C_14  and  C_15
REMARK                            x       y       z     vdW  Elec       q    Type
REMARK                         _______ _______ _______ _____ _____    ______ ____
ROOT
ATOM      1  C   UNL     1      35.235 -18.264 -22.728  0.00  0.00    +0.016 C 
ATOM      2  C   UNL     1      34.885 -16.948 -23.010  0.00  0.00    +0.135 C 
ATOM      3  C   UNL     1      35.084 -19.245 -23.707  0.00  0.00    -0.001 C 
ATOM      4  C   UNL     1      34.387 -16.602 -24.262  0.00  0.00    +0.037 C 
ATOM      5  C   UNL     1      34.585 -18.905 -24.964  0.00  0.00    -0.000 C 
ATOM      6  C   UNL     1      34.235 -17.583 -25.241  0.00  0.00    +0.003 C 
ENDROOT
BRANCH   2   7
ATOM      7  O   UNL     1      35.027 -15.971 -22.059  0.00  0.00    -0.478 OA
BRANCH   7   8
ATOM      8  C   UNL     1      34.488 -14.693 -22.368  0.00  0.00    +0.183 C 
BRANCH   8   9
ATOM      9  C   UNL     1      33.346 -14.399 -21.409  0.00  0.00    -0.029 C 
BRANCH   9  10
ATOM     10  N   UNL     1      32.246 -13.731 -22.105  0.00  0.00    +0.387 N 
ATOM     11  C   UNL     1      32.615 -13.446 -23.491  0.00  0.00    -0.101 C 
ATOM     12  C   UNL     1      31.876 -12.499 -21.411  0.00  0.00    -0.101 C 
ATOM     13  H   UNL     1      31.439 -14.355 -22.108  0.00  0.00    -0.080 HD
ENDBRANCH   9  10
ENDBRANCH   8   9
ENDBRANCH   7   8
ENDBRANCH   2   7
BRANCH   1  14
ATOM     14  C   UNL     1      35.771 -18.646 -21.388  0.00  0.00    +0.056 C 
BRANCH  14  15
ATOM     15  C   UNL     1      34.980 -19.740 -20.700  0.00  0.00    -0.018 C 
ATOM     16  C   UNL     1      33.599 -19.668 -20.689  0.00  0.00    -0.004 C 
ATOM     17  C   UNL     1      35.658 -20.785 -20.097  0.00  0.00    -0.004 C 
ATOM     18  C   UNL     1      32.870 -20.674 -20.055  0.00  0.00    -0.000 C 
ATOM     19  C   UNL     1      34.929 -21.791 -19.463  0.00  0.00    -0.000 C 
ATOM     20  C   UNL     1      33.536 -21.736 -19.442  0.00  0.00    -0.000 C 
ENDBRANCH  14  15
ENDBRANCH   1  14
TORSDOF 6
ENDMDL
MODEL 2
REMARK VINA RESULT:      -8.5      5.632      9.884
REMARK  Name = 7077
REMARK  6 active torsions:
REMARK  status: ('A' for Active; 'I' for Inactive)
REMARK    1  A    between atoms: C_1  and  C_14
REMARK    2  A    between atoms: C_2  and  O_7
REMARK    3  A    between atoms: O_7  and  C_8
REMARK    4  A    between atoms: C_8  and  C_9
REMARK    5  A    between atoms: C_9  and  N_10
REMARK    6  A    between atoms: C_14  and  C_15
REMARK                            x       y       z     vdW  Elec       q    Type
REMARK                         _______ _______ _______ _____ _____    ______ ____
ROOT
ATOM      1  C   UNL     1      33.240 -23.314 -17.168  0.00  0.00    +0.016 C 
ATOM      2  C   UNL     1      34.029 -23.427 -16.028  0.00  0.00    +0.135 C 
ATOM      3  C   UNL     1      31.883 -23.019 -17.045  0.00  0.00    -0.001 C 
ATOM      4  C   UNL     1      33.475 -23.246 -14.765  0.00  0.00    +0.037 C 
ATOM      5  C   UNL     1      31.321 -22.837 -15.781  0.00  0.00    -0.000 C 
ATOM      6  C   UNL     1      32.117 -22.951 -14.641  0.00  0.00    +0.003 C 
ENDROOT
BRANCH   2   7
ATOM      7  O   UNL     1      35.364 -23.716 -16.132  0.00  0.00    -0.478 OA
BRANCH   7   8
ATOM      8  C   UNL     1      35.947 -24.443 -15.058  0.00  0.00    +0.183 C 
BRANCH   8   9
ATOM      9  C   UNL     1      37.452 -24.231 -15.085  0.00  0.00    -0.029 C 
BRANCH   9  10
ATOM     10  N   UNL     1      38.150 -25.504 -15.271  0.00  0.00    +0.387 N 
ATOM     11  C   UNL     1      37.276 -26.622 -14.918  0.00  0.00    -0.101 C 
ATOM     12  C   UNL     1      39.372 -25.538 -14.470  0.00  0.00    -0.101 C 
ATOM     13  H   UNL     1      38.406 -25.592 -16.255  0.00  0.00    -0.080 HD
ENDBRANCH   9  10
ENDBRANCH   8   9
ENDBRANCH   7   8
ENDBRANCH   2   7
BRANCH   1  14
ATOM     14  C   UNL     1      33.825 -23.505 -18.529  0.00  0.00    +0.056 C 
BRANCH  14  15
ATOM     15  C   UNL     1      34.135 -22.210 -19.251  0.00  0.00    -0.018 C 
ATOM     16  C   UNL     1      35.455 -21.846 -19.446  0.00  0.00    -0.004 C 
ATOM     17  C   UNL     1      33.090 -21.421 -19.699  0.00  0.00    -0.004 C 
ATOM     18  C   UNL     1      35.740 -20.653 -20.110  0.00  0.00    -0.000 C 
ATOM     19  C   UNL     1      33.376 -20.229 -20.363  0.00  0.00    -0.000 C 
ATOM     20  C   UNL     1      34.700 -19.844 -20.568  0.00  0.00    -0.000 C 
ENDBRANCH  14  15
ENDBRANCH   1  14
TORSDOF 6
ENDMDL
MODEL 3
REMARK VINA RESULT:      -8.4      1.228      2.068
REMARK  Name = 7077
REMARK  6 active torsions:
REMARK  status: ('A' for Active; 'I' for Inactive)
REMARK    1  A    between atoms: C_1  and  C_14
REMARK    2  A    between atoms: C_2  and  O_7
REMARK    3  A    between atoms: O_7  and  C_8
REMARK    4  A    between atoms: C_8  and  C_9
REMARK    5  A    between atoms: C_9  and  N_10
REMARK    6  A    between atoms: C_14  and  C_15
REMARK                            x       y       z     vdW  Elec       q    Type
REMARK                         _______ _______ _______ _____ _____    ______ ____
ROOT
ATOM      1  C   UNL     1      34.737 -16.686 -22.950  0.00  0.00    +0.016 C 
ATOM      2  C   UNL     1      34.133 -15.489 -23.320  0.00  0.00    +0.135 C 
ATOM      3  C   UNL     1      34.951 -17.677 -23.906  0.00  0.00    -0.001 C 
ATOM      4  C   UNL     1      33.744 -15.271 -24.638  0.00  0.00    +0.037 C 
ATOM      5  C   UNL     1      34.563 -17.465 -25.230  0.00  0.00    -0.000 C 
ATOM      6  C   UNL     1      33.958 -16.262 -25.595  0.00  0.00    +0.003 C 
ENDROOT
BRANCH   2   7
ATOM      7  O   UNL     1      33.914 -14.504 -22.392  0.00  0.00    -0.478 OA
BRANCH   7   8
ATOM      8  C   UNL     1      32.560 -14.218 -22.068  0.00  0.00    +0.183 C 
BRANCH   8   9
ATOM      9  C   UNL     1      32.221 -12.824 -22.569  0.00  0.00    -0.029 C 
BRANCH   9  10
ATOM     10  N   UNL     1      31.307 -12.152 -21.646  0.00  0.00    +0.387 N 
ATOM     11  C   UNL     1      31.044 -10.784 -22.092  0.00  0.00    -0.101 C 
ATOM     12  C   UNL     1      31.857 -12.151 -20.292  0.00  0.00    -0.101 C 
ATOM     13  H   UNL     1      30.424 -12.664 -21.636  0.00  0.00    -0.080 HD
ENDBRANCH   9  10
ENDBRANCH   8   9
ENDBRANCH   7   8
ENDBRANCH   2   7
BRANCH   1  14
ATOM     14  C   UNL     1      35.159 -16.929 -21.539  0.00  0.00    +0.056 C 
BRANCH  14  15
ATOM     15  C   UNL     1      34.970 -18.360 -21.080  0.00  0.00    -0.018 C 
ATOM     16  C   UNL     1      36.083 -19.142 -20.830  0.00  0.00    -0.004 C 
ATOM     17  C   UNL     1      33.686 -18.853 -20.921  0.00  0.00    -0.004 C 
ATOM     18  C   UNL     1      35.908 -20.460 -20.409  0.00  0.00    -0.000 C 
ATOM     19  C   UNL     1      33.512 -20.171 -20.500  0.00  0.00    -0.000 C 
ATOM     20  C   UNL     1      34.622 -20.974 -20.244  0.00  0.00    -0.000 C 
ENDBRANCH  14  15
ENDBRANCH   1  14
TORSDOF 6
ENDMDL
MODEL 4
REMARK VINA RESULT:      -8.1      7.336     10.042
REMARK  Name = 7077
REMARK  6 active torsions:
REMARK  status: ('A' for Active; 'I' for Inactive)
REMARK    1  A    between atoms: C_1  and  C_14
REMARK    2  A    between atoms: C_2  and  O_7
REMARK    3  A    between atoms: O_7  and  C_8
REMARK    4  A    between atoms: C_8  and  C_9
REMARK    5  A    between atoms: C_9  and  N_10
REMARK    6  A    between atoms: C_14  and  C_15
REMARK                            x       y       z     vdW  Elec       q    Type
REMARK                         _______ _______ _______ _____ _____    ______ ____
ROOT
ATOM      1  C   UNL     1      32.489  -6.954 -22.067  0.00  0.00    +0.016 C 
ATOM      2  C   UNL     1      33.381  -7.024 -23.132  0.00  0.00    +0.135 C 
ATOM      3  C   UNL     1      31.313  -6.216 -22.197  0.00  0.00    -0.001 C 
ATOM      4  C   UNL     1      33.109  -6.365 -24.327  0.00  0.00    +0.037 C 
ATOM      5  C   UNL     1      31.035  -5.552 -23.393  0.00  0.00    -0.000 C 
ATOM      6  C   UNL     1      31.933  -5.627 -24.457  0.00  0.00    +0.003 C 
ENDROOT
BRANCH   2   7
ATOM      7  O   UNL     1      34.542  -7.744 -23.021  0.00  0.00    -0.478 OA
BRANCH   7   8
ATOM      8  C   UNL     1      34.890  -8.572 -24.123  0.00  0.00    +0.183 C 
BRANCH   8   9
ATOM      9  C   UNL     1      34.194  -9.914 -23.966  0.00  0.00    -0.029 C 
BRANCH   9  10
ATOM     10  N   UNL     1      34.852 -10.936 -24.780  0.00  0.00    +0.387 N 
ATOM     11  C   UNL     1      35.526 -10.322 -25.923  0.00  0.00    -0.101 C 
ATOM     12  C   UNL     1      33.882 -11.931 -25.232  0.00  0.00    -0.101 C 
ATOM     13  H   UNL     1      35.552 -11.405 -24.205  0.00  0.00    -0.080 HD
ENDBRANCH   9  10
ENDBRANCH   8   9
ENDBRANCH   7   8
ENDBRANCH   2   7
BRANCH   1  14
ATOM     14  C   UNL     1      32.771  -7.658 -20.781  0.00  0.00    +0.056 C 
BRANCH  14  15
ATOM     15  C   UNL     1      32.124  -9.023 -20.675  0.00  0.00    -0.018 C 
ATOM     16  C   UNL     1      31.669  -9.646 -21.823  0.00  0.00    -0.004 C 
ATOM     17  C   UNL     1      32.003  -9.617 -19.430  0.00  0.00    -0.004 C 
ATOM     18  C   UNL     1      31.073 -10.902 -21.725  0.00  0.00    -0.000 C 
ATOM     19  C   UNL     1      31.406 -10.874 -19.332  0.00  0.00    -0.000 C 
ATOM     20  C   UNL     1      30.941 -11.517 -20.479  0.00  0.00    -0.000 C 
ENDBRANCH  14  15
ENDBRANCH   1  14
TORSDOF 6
ENDMDL
MODEL 5
REMARK VINA RESULT:      -8.0      4.821      8.592
REMARK  Name = 7077
REMARK  6 active torsions:
REMARK  status: ('A' for Active; 'I' for Inactive)
REMARK    1  A    between atoms: C_1  and  C_14
REMARK    2  A    between atoms: C_2  and  O_7
REMARK    3  A    between atoms: O_7  and  C_8
REMARK    4  A    between atoms: C_8  and  C_9
REMARK    5  A    between atoms: C_9  and  N_10
REMARK    6  A    between atoms: C_14  and  C_15
REMARK                            x       y       z     vdW  Elec       q    Type
REMARK                         _______ _______ _______ _____ _____    ______ ____
ROOT
ATOM      1  C   UNL     1      34.546 -22.763 -17.702  0.00  0.00    +0.016 C 
ATOM      2  C   UNL     1      33.725 -23.176 -16.659  0.00  0.00    +0.135 C 
ATOM      3  C   UNL     1      35.844 -22.331 -17.432  0.00  0.00    -0.001 C 
ATOM      4  C   UNL     1      34.188 -23.163 -15.347  0.00  0.00    +0.037 C 
ATOM      5  C   UNL     1      36.314 -22.315 -16.119  0.00  0.00    -0.000 C 
ATOM      6  C   UNL     1      35.486 -22.731 -15.076  0.00  0.00    +0.003 C 
ENDROOT
BRANCH   2   7
ATOM      7  O   UNL     1      32.447 -23.604 -16.907  0.00  0.00    -0.478 OA
BRANCH   7   8
ATOM      8  C   UNL     1      31.529 -23.545 -15.822  0.00  0.00    +0.183 C 
BRANCH   8   9
ATOM      9  C   UNL     1      30.278 -22.813 -16.280  0.00  0.00    -0.029 C 
BRANCH   9  10
ATOM     10  N   UNL     1      29.133 -23.722 -16.319  0.00  0.00    +0.387 N 
ATOM     11  C   UNL     1      27.881 -22.967 -16.303  0.00  0.00    -0.101 C 
ATOM     12  C   UNL     1      29.183 -24.654 -15.194  0.00  0.00    -0.101 C 
ATOM     13  H   UNL     1      29.176 -24.259 -17.185  0.00  0.00    -0.080 HD
ENDBRANCH   9  10
ENDBRANCH   8   9
ENDBRANCH   7   8
ENDBRANCH   2   7
BRANCH   1  14
ATOM     14  C   UNL     1      34.059 -22.774 -19.114  0.00  0.00    +0.056 C 
BRANCH  14  15
ATOM     15  C   UNL     1      34.136 -21.425 -19.799  0.00  0.00    -0.018 C 
ATOM     16  C   UNL     1      32.974 -20.702 -19.997  0.00  0.00    -0.004 C 
ATOM     17  C   UNL     1      35.367 -20.947 -20.212  0.00  0.00    -0.004 C 
ATOM     18  C   UNL     1      33.044 -19.460 -20.628  0.00  0.00    -0.000 C 
ATOM     19  C   UNL     1      35.437 -19.706 -20.843  0.00  0.00    -0.000 C 
ATOM     20  C   UNL     1      34.276 -18.962 -21.051  0.00  0.00    -0.000 C 
ENDBRANCH  14  15
ENDBRANCH   1  14
TORSDOF 6
ENDMDL
MODEL 6
REMARK VINA RESULT:      -7.9      1.761      2.995
REMARK  Name = 7077
REMARK  6 active torsions:
REMARK  status: ('A' for Active; 'I' for Inactive)
REMARK    1  A    between atoms: C_1  and  C_14
REMARK    2  A    between atoms: C_2  and  O_7
REMARK    3  A    between atoms: O_7  and  C_8
REMARK    4  A    between atoms: C_8  and  C_9
REMARK    5  A    between atoms: C_9  and  N_10
REMARK    6  A    between atoms: C_14  and  C_15
REMARK                            x       y       z     vdW  Elec       q    Type
REMARK                         _______ _______ _______ _____ _____    ______ ____
ROOT
ATOM      1  C   UNL     1      34.979 -17.138 -21.999  0.00  0.00    +0.016 C 
ATOM      2  C   UNL     1      34.843 -16.156 -22.975  0.00  0.00    +0.135 C 
ATOM      3  C   UNL     1      34.836 -16.801 -20.654  0.00  0.00    -0.001 C 
ATOM      4  C   UNL     1      34.563 -14.840 -22.620  0.00  0.00    +0.037 C 
ATOM      5  C   UNL     1      34.556 -15.483 -20.291  0.00  0.00    -0.000 C 
ATOM      6  C   UNL     1      34.420 -14.503 -21.274  0.00  0.00    +0.003 C 
ENDROOT
BRANCH   2   7
ATOM      7  O   UNL     1      34.981 -16.470 -24.302  0.00  0.00    -0.478 OA
BRANCH   7   8
ATOM      8  C   UNL     1      33.817 -16.361 -25.111  0.00  0.00    +0.183 C 
BRANCH   8   9
ATOM      9  C   UNL     1      34.032 -15.253 -26.129  0.00  0.00    -0.029 C 
BRANCH   9  10
ATOM     10  N   UNL     1      32.885 -14.345 -26.153  0.00  0.00    +0.387 N 
ATOM     11  C   UNL     1      33.047 -13.346 -27.208  0.00  0.00    -0.101 C 
ATOM     12  C   UNL     1      32.721 -13.695 -24.854  0.00  0.00    -0.101 C 
ATOM     13  H   UNL     1      32.045 -14.890 -26.350  0.00  0.00    -0.080 HD
ENDBRANCH   9  10
ENDBRANCH   8   9
ENDBRANCH   7   8
ENDBRANCH   2   7
BRANCH   1  14
ATOM     14  C   UNL     1      35.279 -18.553 -22.370  0.00  0.00    +0.056 C 
BRANCH  14  15
ATOM     15  C   UNL     1      34.786 -19.569 -21.360  0.00  0.00    -0.018 C 
ATOM     16  C   UNL     1      33.425 -19.743 -21.188  0.00  0.00    -0.004 C 
ATOM     17  C   UNL     1      35.709 -20.299 -20.632  0.00  0.00    -0.004 C 
ATOM     18  C   UNL     1      32.970 -20.677 -20.257  0.00  0.00    -0.000 C 
ATOM     19  C   UNL     1      35.255 -21.234 -19.702  0.00  0.00    -0.000 C 
ATOM     20  C   UNL     1      33.886 -21.423 -19.515  0.00  0.00    -0.000 C 
ENDBRANCH  14  15
ENDBRANCH   1  14
TORSDOF 6
ENDMDL
MODEL 7
REMARK VINA RESULT:      -7.8      4.180      7.521
REMARK  Name = 7077
REMARK  6 active torsions:
REMARK  status: ('A' for Active; 'I' for Inactive)
REMARK    1  A    between atoms: C_1  and  C_14
REMARK    2  A    between atoms: C_2  and  O_7
REMARK    3  A    between atoms: O_7  and  C_8
REMARK    4  A    between atoms: C_8  and  C_9
REMARK    5  A    between atoms: C_9  and  N_10
REMARK    6  A    between atoms: C_14  and  C_15
REMARK                            x       y       z     vdW  Elec       q    Type
REMARK                         _______ _______ _______ _____ _____    ______ ____
ROOT
ATOM      1  C   UNL     1      32.512 -13.534 -21.876  0.00  0.00    +0.016 C 
ATOM      2  C   UNL     1      33.245 -13.824 -23.021  0.00  0.00    +0.135 C 
ATOM      3  C   UNL     1      32.843 -14.149 -20.669  0.00  0.00    -0.001 C 
ATOM      4  C   UNL     1      34.307 -14.721 -22.973  0.00  0.00    +0.037 C 
ATOM      5  C   UNL     1      33.907 -15.050 -20.614  0.00  0.00    -0.000 C 
ATOM      6  C   UNL     1      34.638 -15.336 -21.766  0.00  0.00    +0.003 C 
ENDROOT
BRANCH   2   7
ATOM      7  O   UNL     1      32.933 -13.229 -24.216  0.00  0.00    -0.478 OA
BRANCH   7   8
ATOM      8  C   UNL     1      33.957 -12.465 -24.839  0.00  0.00    +0.183 C 
BRANCH   8   9
ATOM      9  C   UNL     1      33.764 -11.001 -24.477  0.00  0.00    -0.029 C 
BRANCH   9  10
ATOM     10  N   UNL     1      35.034 -10.280 -24.547  0.00  0.00    +0.387 N 
ATOM     11  C   UNL     1      34.861  -8.896 -24.108  0.00  0.00    -0.101 C 
ATOM     12  C   UNL     1      35.572 -10.322 -25.905  0.00  0.00    -0.101 C 
ATOM     13  H   UNL     1      35.699 -10.736 -23.922  0.00  0.00    -0.080 HD
ENDBRANCH   9  10
ENDBRANCH   8   9
ENDBRANCH   7   8
ENDBRANCH   2   7
BRANCH   1  14
ATOM     14  C   UNL     1      31.370 -12.573 -21.916  0.00  0.00    +0.056 C 
BRANCH  14  15
ATOM     15  C   UNL     1      31.604 -11.309 -21.114  0.00  0.00    -0.018 C 
ATOM     16  C   UNL     1      31.506 -11.357 -19.736  0.00  0.00    -0.004 C 
ATOM     17  C   UNL     1      31.910 -10.135 -21.780  0.00  0.00    -0.004 C 
ATOM     18  C   UNL     1      31.720 -10.194 -18.997  0.00  0.00    -0.000 C 
ATOM     19  C   UNL     1      32.124  -8.972 -21.042  0.00  0.00    -0.000 C 
ATOM     20  C   UNL     1      32.029  -9.001 -19.650  0.00  0.00    -0.000 C 
ENDBRANCH  14  15
ENDBRANCH   1  14
TORSDOF 6
ENDMDL
MODEL 8
REMARK VINA RESULT:      -7.8      4.446      9.840
REMARK  Name = 7077
REMARK  6 active torsions:
REMARK  status: ('A' for Active; 'I' for Inactive)
REMARK    1  A    between atoms: C_1  and  C_14
REMARK    2  A    between atoms: C_2  and  O_7
REMARK    3  A    between atoms: O_7  and  C_8
REMARK    4  A    between atoms: C_8  and  C_9
REMARK    5  A    between atoms: C_9  and  N_10
REMARK    6  A    between atoms: C_14  and  C_15
REMARK                            x       y       z     vdW  Elec       q    Type
REMARK                         _______ _______ _______ _____ _____    ______ ____
ROOT
ATOM      1  C   UNL     1      31.613  -9.881 -21.621  0.00  0.00    +0.016 C 
ATOM      2  C   UNL     1      31.522 -11.215 -21.236  0.00  0.00    +0.135 C 
ATOM      3  C   UNL     1      31.822  -8.895 -20.658  0.00  0.00    -0.001 C 
ATOM      4  C   UNL     1      31.640 -11.573 -19.896  0.00  0.00    +0.037 C 
ATOM      5  C   UNL     1      31.940  -9.248 -19.313  0.00  0.00    -0.000 C 
ATOM      6  C   UNL     1      31.848 -10.587 -18.932  0.00  0.00    +0.003 C 
ENDROOT
BRANCH   2   7
ATOM      7  O   UNL     1      31.317 -12.196 -22.169  0.00  0.00    -0.478 OA
BRANCH   7   8
ATOM      8  C   UNL     1      32.246 -13.273 -22.182  0.00  0.00    +0.183 C 
BRANCH   8   9
ATOM      9  C   UNL     1      33.295 -13.000 -23.247  0.00  0.00    -0.029 C 
BRANCH   9  10
ATOM     10  N   UNL     1      34.299 -14.064 -23.268  0.00  0.00    +0.387 N 
ATOM     11  C   UNL     1      33.915 -15.110 -24.215  0.00  0.00    -0.101 C 
ATOM     12  C   UNL     1      34.476 -14.626 -21.930  0.00  0.00    -0.101 C 
ATOM     13  H   UNL     1      35.188 -13.664 -23.571  0.00  0.00    -0.080 HD
ENDBRANCH   9  10
ENDBRANCH   8   9
ENDBRANCH   7   8
ENDBRANCH   2   7
BRANCH   1  14
ATOM     14  C   UNL     1      31.489  -9.486 -23.056  0.00  0.00    +0.056 C 
BRANCH  14  15
ATOM     15  C   UNL     1      32.585  -8.555 -23.532  0.00  0.00    -0.018 C 
ATOM     16  C   UNL     1      32.256  -7.272 -23.927  0.00  0.00    -0.004 C 
ATOM     17  C   UNL     1      33.892  -9.011 -23.561  0.00  0.00    -0.004 C 
ATOM     18  C   UNL     1      33.264  -6.415 -24.366  0.00  0.00    -0.000 C 
ATOM     19  C   UNL     1      34.900  -8.154 -24.001  0.00  0.00    -0.000 C 
ATOM     20  C   UNL     1      34.587  -6.856 -24.403  0.00  0.00    -0.000 C 
ENDBRANCH  14  15
ENDBRANCH   1  14
TORSDOF 6
ENDMDL
MODEL 9
REMARK VINA RESULT:      -7.7      6.758      9.407
REMARK  Name = 7077
REMARK  6 active torsions:
REMARK  status: ('A' for Active; 'I' for Inactive)
REMARK    1  A    between atoms: C_1  and  C_14
REMARK    2  A    between atoms: C_2  and  O_7
REMARK    3  A    between atoms: O_7  and  C_8
REMARK    4  A    between atoms: C_8  and  C_9
REMARK    5  A    between atoms: C_9  and  N_10
REMARK    6  A    between atoms: C_14  and  C_15
REMARK                            x       y       z     vdW  Elec       q    Type
REMARK                         _______ _______ _______ _____ _____    ______ ____
ROOT
ATOM      1  C   UNL     1      35.427 -22.625 -16.658  0.00  0.00    +0.016 C 
ATOM      2  C   UNL     1      34.200 -22.928 -17.239  0.00  0.00    +0.135 C 
ATOM      3  C   UNL     1      36.413 -21.991 -17.414  0.00  0.00    -0.001 C 
ATOM      4  C   UNL     1      33.947 -22.601 -18.567  0.00  0.00    +0.037 C 
ATOM      5  C   UNL     1      36.166 -21.662 -18.747  0.00  0.00    -0.000 C 
ATOM      6  C   UNL     1      34.933 -21.967 -19.324  0.00  0.00    +0.003 C 
ENDROOT
BRANCH   2   7
ATOM      7  O   UNL     1      33.221 -23.551 -16.511  0.00  0.00    -0.478 OA
BRANCH   7   8
ATOM      8  C   UNL     1      31.889 -23.092 -16.703  0.00  0.00    +0.183 C 
BRANCH   8   9
ATOM      9  C   UNL     1      31.143 -23.190 -15.383  0.00  0.00    -0.029 C 
BRANCH   9  10
ATOM     10  N   UNL     1      30.705 -24.564 -15.138  0.00  0.00    +0.387 N 
ATOM     11  C   UNL     1      29.245 -24.637 -15.103  0.00  0.00    -0.101 C 
ATOM     12  C   UNL     1      31.272 -25.067 -13.888  0.00  0.00    -0.101 C 
ATOM     13  H   UNL     1      31.039 -25.151 -15.903  0.00  0.00    -0.080 HD
ENDBRANCH   9  10
ENDBRANCH   8   9
ENDBRANCH   7   8
ENDBRANCH   2   7
BRANCH   1  14
ATOM     14  C   UNL     1      35.709 -22.971 -15.233  0.00  0.00    +0.056 C 
BRANCH  14  15
ATOM     15  C   UNL     1      36.536 -24.227 -15.059  0.00  0.00    -0.018 C 
ATOM     16  C   UNL     1      37.894 -24.114 -14.820  0.00  0.00    -0.004 C 
ATOM     17  C   UNL     1      35.915 -25.461 -15.143  0.00  0.00    -0.004 C 
ATOM     18  C   UNL     1      38.656 -25.271 -14.660  0.00  0.00    -0.000 C 
ATOM     19  C   UNL     1      36.677 -26.618 -14.983  0.00  0.00    -0.000 C 
ATOM     20  C   UNL     1      38.047 -26.523 -14.742  0.00  0.00    -0.000 C 
ENDBRANCH  14  15
ENDBRANCH   1  14
TORSDOF 6
ENDMDL
