MODEL 1
REMARK VINA RESULT:      -9.2      0.000      0.000
REMARK  Name = 2202
REMARK  2 active torsions:
REMARK  status: ('A' for Active; 'I' for Inactive)
REMARK    1  A    between atoms: C_10  and  O_16
REMARK    2  A    between atoms: C_11  and  O_18
REMARK                            x       y       z     vdW  Elec       q    Type
REMARK                         _______ _______ _______ _____ _____    ______ ____
ROOT
ATOM      1  O   UNL     1      34.097 -17.358 -25.655  0.00  0.00    -0.286 OA
ATOM      2  C   UNL     1      34.517 -15.277 -22.065  0.00  0.00    +0.053 C 
ATOM      3  C   UNL     1      34.095 -14.599 -23.340  0.00  0.00    -0.012 C 
ATOM      4  C   UNL     1      34.780 -16.755 -22.170  0.00  0.00    -0.012 C 
ATOM      5  C   UNL     1      33.954 -15.294 -24.546  0.00  0.00    +0.069 C 
ATOM      6  C   UNL     1      34.639 -17.456 -23.372  0.00  0.00    +0.069 C 
ATOM      7  C   UNL     1      34.221 -16.747 -24.600  0.00  0.00    +0.201 C 
ATOM      8  C   UNL     1      33.835 -13.220 -23.318  0.00  0.00    -0.004 C 
ATOM      9  C   UNL     1      35.179 -17.453 -21.021  0.00  0.00    -0.004 C 
ATOM     10  C   UNL     1      33.557 -14.622 -25.710  0.00  0.00    +0.136 C 
ATOM     11  C   UNL     1      34.894 -18.833 -23.424  0.00  0.00    +0.136 C 
ATOM     12  C   UNL     1      33.441 -12.550 -24.477  0.00  0.00    +0.003 C 
ATOM     13  C   UNL     1      35.432 -18.825 -21.072  0.00  0.00    +0.003 C 
ATOM     14  C   UNL     1      33.304 -13.251 -25.672  0.00  0.00    +0.037 C 
ATOM     15  C   UNL     1      35.290 -19.513 -22.274  0.00  0.00    +0.037 C 
ENDROOT
BRANCH  10  16
ATOM     16  O   UNL     1      33.402 -15.246 -26.912  0.00  0.00    -0.505 OA
ATOM     17  H   UNL     1      34.154 -15.530 -27.393  0.00  0.00    +0.292 HD
ENDBRANCH  10  16
BRANCH  11  18
ATOM     18  O   UNL     1      34.774 -19.569 -24.566  0.00  0.00    -0.505 OA
ATOM     19  H   UNL     1      34.044 -19.431 -25.138  0.00  0.00    +0.292 HD
ENDBRANCH  11  18
TORSDOF 2
ENDMDL
MODEL 2
REMARK VINA RESULT:      -9.2      0.031      4.832
REMARK  Name = 2202
REMARK  2 active torsions:
REMARK  status: ('A' for Active; 'I' for Inactive)
REMARK    1  A    between atoms: C_10  and  O_16
REMARK    2  A    between atoms: C_11  and  O_18
REMARK                            x       y       z     vdW  Elec       q    Type
REMARK                         _______ _______ _______ _____ _____    ______ ____
ROOT
ATOM      1  O   UNL     1      34.080 -17.353 -25.666  0.00  0.00    -0.286 OA
ATOM      2  C   UNL     1      34.518 -15.252 -22.089  0.00  0.00    +0.053 C 
ATOM      3  C   UNL     1      34.770 -16.732 -22.186  0.00  0.00    -0.012 C 
ATOM      4  C   UNL     1      34.095 -14.580 -23.368  0.00  0.00    -0.012 C 
ATOM      5  C   UNL     1      34.624 -17.440 -23.383  0.00  0.00    +0.069 C 
ATOM      6  C   UNL     1      33.948 -15.281 -24.569  0.00  0.00    +0.069 C 
ATOM      7  C   UNL     1      34.209 -16.736 -24.615  0.00  0.00    +0.201 C 
ATOM      8  C   UNL     1      35.165 -17.426 -21.032  0.00  0.00    -0.004 C 
ATOM      9  C   UNL     1      33.840 -13.200 -23.353  0.00  0.00    -0.004 C 
ATOM     10  C   UNL     1      34.870 -18.819 -23.427  0.00  0.00    +0.136 C 
ATOM     11  C   UNL     1      33.553 -14.615 -25.736  0.00  0.00    +0.136 C 
ATOM     12  C   UNL     1      35.410 -18.800 -21.075  0.00  0.00    +0.003 C 
ATOM     13  C   UNL     1      33.448 -12.535 -24.516  0.00  0.00    +0.003 C 
ATOM     14  C   UNL     1      35.261 -19.494 -22.272  0.00  0.00    +0.037 C 
ATOM     15  C   UNL     1      33.304 -13.243 -25.706  0.00  0.00    +0.037 C 
ENDROOT
BRANCH  10  16
ATOM     16  O   UNL     1      34.745 -19.561 -24.564  0.00  0.00    -0.505 OA
ATOM     17  H   UNL     1      35.172 -20.391 -24.631  0.00  0.00    +0.292 HD
ENDBRANCH  10  16
BRANCH  11  18
ATOM     18  O   UNL     1      33.393 -15.245 -26.935  0.00  0.00    -0.505 OA
ATOM     19  H   UNL     1      32.794 -15.962 -27.011  0.00  0.00    +0.292 HD
ENDBRANCH  11  18
TORSDOF 2
ENDMDL
MODEL 3
REMARK VINA RESULT:      -9.2      2.156      5.608
REMARK  Name = 2202
REMARK  2 active torsions:
REMARK  status: ('A' for Active; 'I' for Inactive)
REMARK    1  A    between atoms: C_10  and  O_16
REMARK    2  A    between atoms: C_11  and  O_18
REMARK                            x       y       z     vdW  Elec       q    Type
REMARK                         _______ _______ _______ _____ _____    ______ ____
ROOT
ATOM      1  O   UNL     1      34.398 -14.480 -21.821  0.00  0.00    -0.286 OA
ATOM      2  C   UNL     1      34.150 -17.143 -25.022  0.00  0.00    +0.053 C 
ATOM      3  C   UNL     1      34.576 -17.579 -23.647  0.00  0.00    -0.012 C 
ATOM      4  C   UNL     1      33.822 -15.681 -25.167  0.00  0.00    -0.012 C 
ATOM      5  C   UNL     1      34.661 -16.689 -22.571  0.00  0.00    +0.069 C 
ATOM      6  C   UNL     1      33.903 -14.786 -24.095  0.00  0.00    +0.069 C 
ATOM      7  C   UNL     1      34.325 -15.262 -22.761  0.00  0.00    +0.201 C 
ATOM      8  C   UNL     1      34.900 -18.929 -23.437  0.00  0.00    -0.004 C 
ATOM      9  C   UNL     1      33.418 -15.201 -26.422  0.00  0.00    -0.004 C 
ATOM     10  C   UNL     1      35.061 -17.141 -21.307  0.00  0.00    +0.136 C 
ATOM     11  C   UNL     1      33.587 -13.433 -24.276  0.00  0.00    +0.136 C 
ATOM     12  C   UNL     1      35.300 -19.379 -22.178  0.00  0.00    +0.003 C 
ATOM     13  C   UNL     1      33.103 -13.853 -26.603  0.00  0.00    +0.003 C 
ATOM     14  C   UNL     1      35.381 -18.484 -21.115  0.00  0.00    +0.037 C 
ATOM     15  C   UNL     1      33.188 -12.971 -25.530  0.00  0.00    +0.037 C 
ENDROOT
BRANCH  10  16
ATOM     16  O   UNL     1      35.162 -16.320 -20.222  0.00  0.00    -0.505 OA
ATOM     17  H   UNL     1      35.948 -16.311 -19.713  0.00  0.00    +0.292 HD
ENDBRANCH  10  16
BRANCH  11  18
ATOM     18  O   UNL     1      33.648 -12.514 -23.270  0.00  0.00    -0.505 OA
ATOM     19  H   UNL     1      32.859 -12.150 -22.920  0.00  0.00    +0.292 HD
ENDBRANCH  11  18
TORSDOF 2
ENDMDL
MODEL 4
REMARK VINA RESULT:      -9.2      2.155      2.906
REMARK  Name = 2202
REMARK  2 active torsions:
REMARK  status: ('A' for Active; 'I' for Inactive)
REMARK    1  A    between atoms: C_10  and  O_16
REMARK    2  A    between atoms: C_11  and  O_18
REMARK                            x       y       z     vdW  Elec       q    Type
REMARK                         _______ _______ _______ _____ _____    ______ ____
ROOT
ATOM      1  O   UNL     1      34.397 -14.482 -21.823  0.00  0.00    -0.286 OA
ATOM      2  C   UNL     1      34.153 -17.139 -25.029  0.00  0.00    +0.053 C 
ATOM      3  C   UNL     1      33.822 -15.678 -25.171  0.00  0.00    -0.012 C 
ATOM      4  C   UNL     1      34.576 -17.578 -23.654  0.00  0.00    -0.012 C 
ATOM      5  C   UNL     1      33.901 -14.784 -24.098  0.00  0.00    +0.069 C 
ATOM      6  C   UNL     1      34.660 -16.690 -22.576  0.00  0.00    +0.069 C 
ATOM      7  C   UNL     1      34.325 -15.262 -22.765  0.00  0.00    +0.201 C 
ATOM      8  C   UNL     1      33.417 -15.197 -26.426  0.00  0.00    -0.004 C 
ATOM      9  C   UNL     1      34.899 -18.928 -23.446  0.00  0.00    -0.004 C 
ATOM     10  C   UNL     1      33.584 -13.432 -24.277  0.00  0.00    +0.136 C 
ATOM     11  C   UNL     1      35.060 -17.143 -21.313  0.00  0.00    +0.136 C 
ATOM     12  C   UNL     1      33.099 -13.849 -26.604  0.00  0.00    +0.003 C 
ATOM     13  C   UNL     1      35.298 -19.380 -22.187  0.00  0.00    +0.003 C 
ATOM     14  C   UNL     1      33.182 -12.969 -25.529  0.00  0.00    +0.037 C 
ATOM     15  C   UNL     1      35.378 -18.487 -21.122  0.00  0.00    +0.037 C 
ENDROOT
BRANCH  10  16
ATOM     16  O   UNL     1      33.644 -12.515 -23.269  0.00  0.00    -0.505 OA
ATOM     17  H   UNL     1      33.186 -11.702 -23.348  0.00  0.00    +0.292 HD
ENDBRANCH  10  16
BRANCH  11  18
ATOM     18  O   UNL     1      35.159 -16.325 -20.226  0.00  0.00    -0.505 OA
ATOM     19  H   UNL     1      34.451 -16.269 -19.615  0.00  0.00    +0.292 HD
ENDBRANCH  11  18
TORSDOF 2
ENDMDL
MODEL 5
REMARK VINA RESULT:      -8.8      4.911      8.807
REMARK  Name = 2202
REMARK  2 active torsions:
REMARK  status: ('A' for Active; 'I' for Inactive)
REMARK    1  A    between atoms: C_10  and  O_16
REMARK    2  A    between atoms: C_11  and  O_18
REMARK                            x       y       z     vdW  Elec       q    Type
REMARK                         _______ _______ _______ _____ _____    ______ ____
ROOT
ATOM      1  O   UNL     1      32.685 -22.011 -18.934  0.00  0.00    -0.286 OA
ATOM      2  C   UNL     1      36.748 -21.099 -18.708  0.00  0.00    +0.053 C 
ATOM      3  C   UNL     1      36.073 -22.005 -17.715  0.00  0.00    -0.012 C 
ATOM      4  C   UNL     1      35.860 -20.541 -19.786  0.00  0.00    -0.012 C 
ATOM      5  C   UNL     1      34.711 -22.313 -17.787  0.00  0.00    +0.069 C 
ATOM      6  C   UNL     1      34.497 -20.846 -19.866  0.00  0.00    +0.069 C 
ATOM      7  C   UNL     1      33.878 -21.743 -18.867  0.00  0.00    +0.201 C 
ATOM      8  C   UNL     1      36.839 -22.561 -16.678  0.00  0.00    -0.004 C 
ATOM      9  C   UNL     1      36.420 -19.685 -20.747  0.00  0.00    -0.004 C 
ATOM     10  C   UNL     1      34.124 -23.164 -16.840  0.00  0.00    +0.136 C 
ATOM     11  C   UNL     1      33.707 -20.304 -20.889  0.00  0.00    +0.136 C 
ATOM     12  C   UNL     1      36.256 -23.408 -15.734  0.00  0.00    +0.003 C 
ATOM     13  C   UNL     1      35.634 -19.146 -21.767  0.00  0.00    +0.003 C 
ATOM     14  C   UNL     1      34.899 -23.707 -15.816  0.00  0.00    +0.037 C 
ATOM     15  C   UNL     1      34.279 -19.455 -21.836  0.00  0.00    +0.037 C 
ENDROOT
BRANCH  10  16
ATOM     16  O   UNL     1      32.803 -23.500 -16.861  0.00  0.00    -0.505 OA
ATOM     17  H   UNL     1      32.231 -23.113 -17.493  0.00  0.00    +0.292 HD
ENDBRANCH  10  16
BRANCH  11  18
ATOM     18  O   UNL     1      32.375 -20.564 -21.016  0.00  0.00    -0.505 OA
ATOM     19  H   UNL     1      31.746 -19.989 -20.627  0.00  0.00    +0.292 HD
ENDBRANCH  11  18
TORSDOF 2
ENDMDL
MODEL 6
REMARK VINA RESULT:      -8.8      4.912      7.547
REMARK  Name = 2202
REMARK  2 active torsions:
REMARK  status: ('A' for Active; 'I' for Inactive)
REMARK    1  A    between atoms: C_10  and  O_16
REMARK    2  A    between atoms: C_11  and  O_18
REMARK                            x       y       z     vdW  Elec       q    Type
REMARK                         _______ _______ _______ _____ _____    ______ ____
ROOT
ATOM      1  O   UNL     1      32.684 -22.012 -18.934  0.00  0.00    -0.286 OA
ATOM      2  C   UNL     1      36.747 -21.096 -18.705  0.00  0.00    +0.053 C 
ATOM      3  C   UNL     1      35.860 -20.541 -19.786  0.00  0.00    -0.012 C 
ATOM      4  C   UNL     1      36.073 -22.006 -17.714  0.00  0.00    -0.012 C 
ATOM      5  C   UNL     1      34.497 -20.846 -19.866  0.00  0.00    +0.069 C 
ATOM      6  C   UNL     1      34.710 -22.314 -17.787  0.00  0.00    +0.069 C 
ATOM      7  C   UNL     1      33.878 -21.743 -18.867  0.00  0.00    +0.201 C 
ATOM      8  C   UNL     1      36.420 -19.687 -20.747  0.00  0.00    -0.004 C 
ATOM      9  C   UNL     1      36.840 -22.563 -16.679  0.00  0.00    -0.004 C 
ATOM     10  C   UNL     1      33.707 -20.306 -20.889  0.00  0.00    +0.136 C 
ATOM     11  C   UNL     1      34.124 -23.166 -16.841  0.00  0.00    +0.136 C 
ATOM     12  C   UNL     1      35.635 -19.148 -21.768  0.00  0.00    +0.003 C 
ATOM     13  C   UNL     1      36.256 -23.410 -15.736  0.00  0.00    +0.003 C 
ATOM     14  C   UNL     1      34.280 -19.459 -21.838  0.00  0.00    +0.037 C 
ATOM     15  C   UNL     1      34.899 -23.711 -15.818  0.00  0.00    +0.037 C 
ENDROOT
BRANCH  10  16
ATOM     16  O   UNL     1      32.375 -20.567 -21.017  0.00  0.00    -0.505 OA
ATOM     17  H   UNL     1      32.044 -20.934 -21.812  0.00  0.00    +0.292 HD
ENDBRANCH  10  16
BRANCH  11  18
ATOM     18  O   UNL     1      32.803 -23.502 -16.862  0.00  0.00    -0.505 OA
ATOM     19  H   UNL     1      32.543 -24.388 -16.702  0.00  0.00    +0.292 HD
ENDBRANCH  11  18
TORSDOF 2
ENDMDL
MODEL 7
REMARK VINA RESULT:      -8.7      8.687     11.599
REMARK  Name = 2202
REMARK  2 active torsions:
REMARK  status: ('A' for Active; 'I' for Inactive)
REMARK    1  A    between atoms: C_10  and  O_16
REMARK    2  A    between atoms: C_11  and  O_18
REMARK                            x       y       z     vdW  Elec       q    Type
REMARK                         _______ _______ _______ _____ _____    ______ ____
ROOT
ATOM      1  O   UNL     1      35.358 -23.587 -14.308  0.00  0.00    -0.286 OA
ATOM      2  C   UNL     1      32.601 -23.063 -17.394  0.00  0.00    +0.053 C 
ATOM      3  C   UNL     1      32.219 -23.671 -16.072  0.00  0.00    -0.012 C 
ATOM      4  C   UNL     1      34.044 -22.659 -17.530  0.00  0.00    -0.012 C 
ATOM      5  C   UNL     1      33.141 -23.849 -15.035  0.00  0.00    +0.069 C 
ATOM      6  C   UNL     1      34.971 -22.832 -16.497  0.00  0.00    +0.069 C 
ATOM      7  C   UNL     1      34.548 -23.433 -15.214  0.00  0.00    +0.201 C 
ATOM      8  C   UNL     1      30.890 -24.074 -15.873  0.00  0.00    -0.004 C 
ATOM      9  C   UNL     1      34.474 -22.087 -18.737  0.00  0.00    -0.004 C 
ATOM     10  C   UNL     1      32.740 -24.418 -13.819  0.00  0.00    +0.136 C 
ATOM     11  C   UNL     1      36.305 -22.441 -16.668  0.00  0.00    +0.136 C 
ATOM     12  C   UNL     1      30.490 -24.643 -14.662  0.00  0.00    +0.003 C 
ATOM     13  C   UNL     1      35.803 -21.695 -18.908  0.00  0.00    +0.003 C 
ATOM     14  C   UNL     1      31.416 -24.815 -13.637  0.00  0.00    +0.037 C 
ATOM     15  C   UNL     1      36.717 -21.873 -17.874  0.00  0.00    +0.037 C 
ENDROOT
BRANCH  10  16
ATOM     16  O   UNL     1      33.593 -24.615 -12.774  0.00  0.00    -0.505 OA
ATOM     17  H   UNL     1      33.732 -23.934 -12.147  0.00  0.00    +0.292 HD
ENDBRANCH  10  16
BRANCH  11  18
ATOM     18  O   UNL     1      37.253 -22.585 -15.698  0.00  0.00    -0.505 OA
ATOM     19  H   UNL     1      38.151 -22.399 -15.890  0.00  0.00    +0.292 HD
ENDBRANCH  11  18
TORSDOF 2
ENDMDL
MODEL 8
REMARK VINA RESULT:      -8.7      1.668      2.257
REMARK  Name = 2202
REMARK  2 active torsions:
REMARK  status: ('A' for Active; 'I' for Inactive)
REMARK    1  A    between atoms: C_10  and  O_16
REMARK    2  A    between atoms: C_11  and  O_18
REMARK                            x       y       z     vdW  Elec       q    Type
REMARK                         _______ _______ _______ _____ _____    ______ ____
ROOT
ATOM      1  O   UNL     1      33.821 -15.240 -24.997  0.00  0.00    -0.286 OA
ATOM      2  C   UNL     1      33.576 -16.135 -20.931  0.00  0.00    +0.053 C 
ATOM      3  C   UNL     1      33.108 -14.820 -21.492  0.00  0.00    -0.012 C 
ATOM      4  C   UNL     1      34.141 -17.105 -21.933  0.00  0.00    -0.012 C 
ATOM      5  C   UNL     1      33.189 -14.516 -22.855  0.00  0.00    +0.069 C 
ATOM      6  C   UNL     1      34.223 -16.809 -23.297  0.00  0.00    +0.069 C 
ATOM      7  C   UNL     1      33.749 -15.503 -23.803  0.00  0.00    +0.201 C 
ATOM      8  C   UNL     1      32.572 -13.864 -20.615  0.00  0.00    -0.004 C 
ATOM      9  C   UNL     1      34.599 -18.352 -21.481  0.00  0.00    -0.004 C 
ATOM     10  C   UNL     1      32.740 -13.279 -23.334  0.00  0.00    +0.136 C 
ATOM     11  C   UNL     1      34.756 -17.744 -24.195  0.00  0.00    +0.136 C 
ATOM     12  C   UNL     1      32.125 -12.631 -21.092  0.00  0.00    +0.003 C 
ATOM     13  C   UNL     1      35.129 -19.284 -22.375  0.00  0.00    +0.003 C 
ATOM     14  C   UNL     1      32.211 -12.339 -22.450  0.00  0.00    +0.037 C 
ATOM     15  C   UNL     1      35.207 -18.978 -23.731  0.00  0.00    +0.037 C 
ENDROOT
BRANCH  10  16
ATOM     16  O   UNL     1      32.793 -12.927 -24.651  0.00  0.00    -0.505 OA
ATOM     17  H   UNL     1      32.742 -13.586 -25.313  0.00  0.00    +0.292 HD
ENDBRANCH  10  16
BRANCH  11  18
ATOM     18  O   UNL     1      34.862 -17.511 -25.534  0.00  0.00    -0.505 OA
ATOM     19  H   UNL     1      34.581 -18.162 -26.147  0.00  0.00    +0.292 HD
ENDBRANCH  11  18
TORSDOF 2
ENDMDL
MODEL 9
REMARK VINA RESULT:      -8.7      1.655      4.857
REMARK  Name = 2202
REMARK  2 active torsions:
REMARK  status: ('A' for Active; 'I' for Inactive)
REMARK    1  A    between atoms: C_10  and  O_16
REMARK    2  A    between atoms: C_11  and  O_18
REMARK                            x       y       z     vdW  Elec       q    Type
REMARK                         _______ _______ _______ _____ _____    ______ ____
ROOT
ATOM      1  O   UNL     1      33.854 -15.289 -24.984  0.00  0.00    -0.286 OA
ATOM      2  C   UNL     1      33.583 -16.126 -20.907  0.00  0.00    +0.053 C 
ATOM      3  C   UNL     1      34.152 -17.111 -21.891  0.00  0.00    -0.012 C 
ATOM      4  C   UNL     1      33.115 -14.820 -21.490  0.00  0.00    -0.012 C 
ATOM      5  C   UNL     1      34.244 -16.834 -23.260  0.00  0.00    +0.069 C 
ATOM      6  C   UNL     1      33.206 -14.535 -22.857  0.00  0.00    +0.069 C 
ATOM      7  C   UNL     1      33.774 -15.535 -23.787  0.00  0.00    +0.201 C 
ATOM      8  C   UNL     1      34.606 -18.352 -21.419  0.00  0.00    -0.004 C 
ATOM      9  C   UNL     1      32.571 -13.853 -20.632  0.00  0.00    -0.004 C 
ATOM     10  C   UNL     1      34.782 -17.781 -24.141  0.00  0.00    +0.136 C 
ATOM     11  C   UNL     1      32.759 -13.305 -23.357  0.00  0.00    +0.136 C 
ATOM     12  C   UNL     1      35.141 -19.296 -22.297  0.00  0.00    +0.003 C 
ATOM     13  C   UNL     1      32.126 -12.627 -21.129  0.00  0.00    +0.003 C 
ATOM     14  C   UNL     1      35.228 -19.010 -23.656  0.00  0.00    +0.037 C 
ATOM     15  C   UNL     1      32.220 -12.354 -22.491  0.00  0.00    +0.037 C 
ENDROOT
BRANCH  10  16
ATOM     16  O   UNL     1      34.898 -17.567 -25.482  0.00  0.00    -0.505 OA
ATOM     17  H   UNL     1      35.329 -16.799 -25.799  0.00  0.00    +0.292 HD
ENDBRANCH  10  16
BRANCH  11  18
ATOM     18  O   UNL     1      32.821 -12.972 -24.678  0.00  0.00    -0.505 OA
ATOM     19  H   UNL     1      32.054 -12.665 -25.120  0.00  0.00    +0.292 HD
ENDBRANCH  11  18
TORSDOF 2
ENDMDL
