MODEL 1
REMARK VINA RESULT:      -6.3      0.000      0.000
REMARK  Name = 2478
REMARK  7 active torsions:
REMARK  status: ('A' for Active; 'I' for Inactive)
REMARK    1  A    between atoms: C_1  and  C_2
REMARK    2  A    between atoms: C_1  and  C_9
REMARK    3  A    between atoms: C_2  and  C_3
REMARK    4  A    between atoms: C_3  and  O_4
REMARK    5  A    between atoms: O_4  and  S_5
REMARK    6  A    between atoms: C_9  and  O_10
REMARK    7  A    between atoms: O_10  and  S_11
REMARK                            x       y       z     vdW  Elec       q    Type
REMARK                         _______ _______ _______ _____ _____    ______ ____
ROOT
ATOM      1  C   UNL     1      37.654 -22.905 -16.024  0.00  0.00    +0.037 C 
ENDROOT
BRANCH   1   2
ATOM      2  C   UNL     1      36.955 -21.662 -16.562  0.00  0.00    +0.037 C 
BRANCH   2   3
ATOM      3  C   UNL     1      36.282 -21.931 -17.900  0.00  0.00    +0.172 C 
BRANCH   3   4
ATOM      4  O   UNL     1      35.048 -22.595 -17.669  0.00  0.00    -0.242 OA
BRANCH   4   5
ATOM      5  S   UNL     1      33.944 -22.641 -18.871  0.00  0.00    -0.005 S 
ATOM      6  O   UNL     1      32.634 -22.330 -18.334  0.00  0.00    -0.072 OA
ATOM      7  O   UNL     1      34.178 -23.809 -19.695  0.00  0.00    -0.072 OA
ATOM      8  C   UNL     1      34.533 -21.216 -19.749  0.00  0.00    +0.181 C 
ENDBRANCH   4   5
ENDBRANCH   3   4
ENDBRANCH   2   3
ENDBRANCH   1   2
BRANCH   1   9
ATOM      9  C   UNL     1      37.026 -23.385 -14.723  0.00  0.00    +0.172 C 
BRANCH   9  10
ATOM     10  O   UNL     1      38.055 -23.836 -13.854  0.00  0.00    -0.242 OA
BRANCH  10  11
ATOM     11  S   UNL     1      37.739 -23.952 -12.256  0.00  0.00    -0.005 S 
ATOM     12  O   UNL     1      38.421 -22.885 -11.552  0.00  0.00    -0.072 OA
ATOM     13  O   UNL     1      37.848 -25.336 -11.843  0.00  0.00    -0.072 OA
ATOM     14  C   UNL     1      36.016 -23.537 -12.355  0.00  0.00    +0.181 C 
ENDBRANCH  10  11
ENDBRANCH   9  10
ENDBRANCH   1   9
TORSDOF 7
ENDMDL
MODEL 2
REMARK VINA RESULT:      -6.3      4.180      6.530
REMARK  Name = 2478
REMARK  7 active torsions:
REMARK  status: ('A' for Active; 'I' for Inactive)
REMARK    1  A    between atoms: C_1  and  C_2
REMARK    2  A    between atoms: C_1  and  C_9
REMARK    3  A    between atoms: C_2  and  C_3
REMARK    4  A    between atoms: C_3  and  O_4
REMARK    5  A    between atoms: O_4  and  S_5
REMARK    6  A    between atoms: C_9  and  O_10
REMARK    7  A    between atoms: O_10  and  S_11
REMARK                            x       y       z     vdW  Elec       q    Type
REMARK                         _______ _______ _______ _____ _____    ______ ____
ROOT
ATOM      1  C   UNL     1      33.459 -23.127 -15.191  0.00  0.00    +0.037 C 
ENDROOT
BRANCH   1   2
ATOM      2  C   UNL     1      31.971 -22.838 -15.041  0.00  0.00    +0.037 C 
BRANCH   2   3
ATOM      3  C   UNL     1      31.141 -23.624 -16.046  0.00  0.00    +0.172 C 
BRANCH   3   4
ATOM      4  O   UNL     1      30.249 -22.734 -16.702  0.00  0.00    -0.242 OA
BRANCH   4   5
ATOM      5  S   UNL     1      28.642 -22.966 -16.531  0.00  0.00    -0.005 S 
ATOM      6  O   UNL     1      28.066 -23.308 -17.816  0.00  0.00    -0.072 OA
ATOM      7  O   UNL     1      28.090 -21.918 -15.698  0.00  0.00    -0.072 OA
ATOM      8  C   UNL     1      28.748 -24.448 -15.561  0.00  0.00    +0.181 C 
ENDBRANCH   4   5
ENDBRANCH   3   4
ENDBRANCH   2   3
ENDBRANCH   1   2
BRANCH   1   9
ATOM      9  C   UNL     1      33.771 -23.799 -16.520  0.00  0.00    +0.172 C 
BRANCH   9  10
ATOM     10  O   UNL     1      34.445 -22.871 -17.359  0.00  0.00    -0.242 OA
BRANCH  10  11
ATOM     11  S   UNL     1      33.903 -22.654 -18.884  0.00  0.00    -0.005 S 
ATOM     12  O   UNL     1      32.666 -21.900 -18.852  0.00  0.00    -0.072 OA
ATOM     13  O   UNL     1      34.026 -23.896 -19.621  0.00  0.00    -0.072 OA
ATOM     14  C   UNL     1      35.200 -21.565 -19.412  0.00  0.00    +0.181 C 
ENDBRANCH  10  11
ENDBRANCH   9  10
ENDBRANCH   1   9
TORSDOF 7
ENDMDL
MODEL 3
REMARK VINA RESULT:      -6.3      2.564      6.305
REMARK  Name = 2478
REMARK  7 active torsions:
REMARK  status: ('A' for Active; 'I' for Inactive)
REMARK    1  A    between atoms: C_1  and  C_2
REMARK    2  A    between atoms: C_1  and  C_9
REMARK    3  A    between atoms: C_2  and  C_3
REMARK    4  A    between atoms: C_3  and  O_4
REMARK    5  A    between atoms: O_4  and  S_5
REMARK    6  A    between atoms: C_9  and  O_10
REMARK    7  A    between atoms: O_10  and  S_11
REMARK                            x       y       z     vdW  Elec       q    Type
REMARK                         _______ _______ _______ _____ _____    ______ ____
ROOT
ATOM      1  C   UNL     1      37.067 -26.279 -15.104  0.00  0.00    +0.037 C 
ENDROOT
BRANCH   1   2
ATOM      2  C   UNL     1      37.305 -26.784 -13.686  0.00  0.00    +0.037 C 
BRANCH   2   3
ATOM      3  C   UNL     1      37.500 -25.636 -12.706  0.00  0.00    +0.172 C 
BRANCH   3   4
ATOM      4  O   UNL     1      36.550 -25.760 -11.657  0.00  0.00    -0.242 OA
BRANCH   4   5
ATOM      5  S   UNL     1      35.684 -24.446 -11.222  0.00  0.00    -0.005 S 
ATOM      6  O   UNL     1      35.484 -24.455  -9.787  0.00  0.00    -0.072 OA
ATOM      7  O   UNL     1      34.585 -24.266 -12.149  0.00  0.00    -0.072 OA
ATOM      8  C   UNL     1      36.931 -23.241 -11.600  0.00  0.00    +0.181 C 
ENDBRANCH   4   5
ENDBRANCH   3   4
ENDBRANCH   2   3
ENDBRANCH   1   2
BRANCH   1   9
ATOM      9  C   UNL     1      36.576 -24.839 -15.115  0.00  0.00    +0.172 C 
BRANCH   9  10
ATOM     10  O   UNL     1      35.277 -24.800 -15.688  0.00  0.00    -0.242 OA
BRANCH  10  11
ATOM     11  S   UNL     1      34.614 -23.348 -16.033  0.00  0.00    -0.005 S 
ATOM     12  O   UNL     1      33.515 -23.094 -15.123  0.00  0.00    -0.072 OA
ATOM     13  O   UNL     1      34.469 -23.212 -17.468  0.00  0.00    -0.072 OA
ATOM     14  C   UNL     1      35.996 -22.361 -15.519  0.00  0.00    +0.181 C 
ENDBRANCH  10  11
ENDBRANCH   9  10
ENDBRANCH   1   9
TORSDOF 7
ENDMDL
MODEL 4
REMARK VINA RESULT:      -6.3      4.197      8.173
REMARK  Name = 2478
REMARK  7 active torsions:
REMARK  status: ('A' for Active; 'I' for Inactive)
REMARK    1  A    between atoms: C_1  and  C_2
REMARK    2  A    between atoms: C_1  and  C_9
REMARK    3  A    between atoms: C_2  and  C_3
REMARK    4  A    between atoms: C_3  and  O_4
REMARK    5  A    between atoms: O_4  and  S_5
REMARK    6  A    between atoms: C_9  and  O_10
REMARK    7  A    between atoms: O_10  and  S_11
REMARK                            x       y       z     vdW  Elec       q    Type
REMARK                         _______ _______ _______ _____ _____    ______ ____
ROOT
ATOM      1  C   UNL     1      32.173 -23.298 -13.939  0.00  0.00    +0.037 C 
ENDROOT
BRANCH   1   2
ATOM      2  C   UNL     1      33.109 -24.489 -13.770  0.00  0.00    +0.037 C 
BRANCH   2   3
ATOM      3  C   UNL     1      34.500 -24.054 -13.332  0.00  0.00    +0.172 C 
BRANCH   3   4
ATOM      4  O   UNL     1      34.570 -24.094 -11.914  0.00  0.00    -0.242 OA
BRANCH   4   5
ATOM      5  S   UNL     1      35.996 -24.463 -11.209  0.00  0.00    -0.005 S 
ATOM      6  O   UNL     1      36.500 -25.704 -11.762  0.00  0.00    -0.072 OA
ATOM      7  O   UNL     1      35.897 -24.243  -9.780  0.00  0.00    -0.072 OA
ATOM      8  C   UNL     1      36.928 -23.126 -11.912  0.00  0.00    +0.181 C 
ENDBRANCH   4   5
ENDBRANCH   3   4
ENDBRANCH   2   3
ENDBRANCH   1   2
BRANCH   1   9
ATOM      9  C   UNL     1      30.764 -23.737 -14.309  0.00  0.00    +0.172 C 
BRANCH   9  10
ATOM     10  O   UNL     1      30.000 -22.590 -14.652  0.00  0.00    -0.242 OA
BRANCH  10  11
ATOM     11  S   UNL     1      29.024 -22.660 -15.960  0.00  0.00    -0.005 S 
ATOM     12  O   UNL     1      29.801 -22.395 -17.154  0.00  0.00    -0.072 OA
ATOM     13  O   UNL     1      27.788 -21.959 -15.677  0.00  0.00    -0.072 OA
ATOM     14  C   UNL     1      28.702 -24.403 -15.885  0.00  0.00    +0.181 C 
ENDBRANCH  10  11
ENDBRANCH   9  10
ENDBRANCH   1   9
TORSDOF 7
ENDMDL
MODEL 5
REMARK VINA RESULT:      -6.2      2.186      6.528
REMARK  Name = 2478
REMARK  7 active torsions:
REMARK  status: ('A' for Active; 'I' for Inactive)
REMARK    1  A    between atoms: C_1  and  C_2
REMARK    2  A    between atoms: C_1  and  C_9
REMARK    3  A    between atoms: C_2  and  C_3
REMARK    4  A    between atoms: C_3  and  O_4
REMARK    5  A    between atoms: O_4  and  S_5
REMARK    6  A    between atoms: C_9  and  O_10
REMARK    7  A    between atoms: O_10  and  S_11
REMARK                            x       y       z     vdW  Elec       q    Type
REMARK                         _______ _______ _______ _____ _____    ______ ____
ROOT
ATOM      1  C   UNL     1      34.730 -23.675 -15.289  0.00  0.00    +0.037 C 
ENDROOT
BRANCH   1   2
ATOM      2  C   UNL     1      36.159 -23.202 -15.523  0.00  0.00    +0.037 C 
BRANCH   2   3
ATOM      3  C   UNL     1      37.115 -23.756 -14.476  0.00  0.00    +0.172 C 
BRANCH   3   4
ATOM      4  O   UNL     1      37.910 -24.772 -15.070  0.00  0.00    -0.242 OA
BRANCH   4   5
ATOM      5  S   UNL     1      37.536 -26.334 -14.774  0.00  0.00    -0.005 S 
ATOM      6  O   UNL     1      38.751 -27.122 -14.748  0.00  0.00    -0.072 OA
ATOM      7  O   UNL     1      36.391 -26.715 -15.575  0.00  0.00    -0.072 OA
ATOM      8  C   UNL     1      36.990 -26.104 -13.101  0.00  0.00    +0.181 C 
ENDBRANCH   4   5
ENDBRANCH   3   4
ENDBRANCH   2   3
ENDBRANCH   1   2
BRANCH   1   9
ATOM      9  C   UNL     1      33.806 -23.260 -16.424  0.00  0.00    +0.172 C 
BRANCH   9  10
ATOM     10  O   UNL     1      34.594 -22.832 -17.526  0.00  0.00    -0.242 OA
BRANCH  10  11
ATOM     11  S   UNL     1      33.879 -22.666 -18.985  0.00  0.00    -0.005 S 
ATOM     12  O   UNL     1      32.580 -22.048 -18.817  0.00  0.00    -0.072 OA
ATOM     13  O   UNL     1      34.056 -23.885 -19.749  0.00  0.00    -0.072 OA
ATOM     14  C   UNL     1      34.995 -21.444 -19.625  0.00  0.00    +0.181 C 
ENDBRANCH  10  11
ENDBRANCH   9  10
ENDBRANCH   1   9
TORSDOF 7
ENDMDL
MODEL 6
REMARK VINA RESULT:      -6.2      2.129      2.277
REMARK  Name = 2478
REMARK  7 active torsions:
REMARK  status: ('A' for Active; 'I' for Inactive)
REMARK    1  A    between atoms: C_1  and  C_2
REMARK    2  A    between atoms: C_1  and  C_9
REMARK    3  A    between atoms: C_2  and  C_3
REMARK    4  A    between atoms: C_3  and  O_4
REMARK    5  A    between atoms: O_4  and  S_5
REMARK    6  A    between atoms: C_9  and  O_10
REMARK    7  A    between atoms: O_10  and  S_11
REMARK                            x       y       z     vdW  Elec       q    Type
REMARK                         _______ _______ _______ _____ _____    ______ ____
ROOT
ATOM      1  C   UNL     1      36.442 -22.483 -15.692  0.00  0.00    +0.037 C 
ENDROOT
BRANCH   1   2
ATOM      2  C   UNL     1      37.064 -21.729 -16.862  0.00  0.00    +0.037 C 
BRANCH   2   3
ATOM      3  C   UNL     1      36.210 -21.834 -18.117  0.00  0.00    +0.172 C 
BRANCH   3   4
ATOM      4  O   UNL     1      35.079 -22.646 -17.837  0.00  0.00    -0.242 OA
BRANCH   4   5
ATOM      5  S   UNL     1      33.848 -22.675 -18.910  0.00  0.00    -0.005 S 
ATOM      6  O   UNL     1      32.603 -22.398 -18.223  0.00  0.00    -0.072 OA
ATOM      7  O   UNL     1      34.002 -23.817 -19.788  0.00  0.00    -0.072 OA
ATOM      8  C   UNL     1      34.321 -21.219 -19.808  0.00  0.00    +0.181 C 
ENDBRANCH   4   5
ENDBRANCH   3   4
ENDBRANCH   2   3
ENDBRANCH   1   2
BRANCH   1   9
ATOM      9  C   UNL     1      37.345 -23.605 -15.202  0.00  0.00    +0.172 C 
BRANCH   9  10
ATOM     10  O   UNL     1      36.676 -24.845 -15.380  0.00  0.00    -0.242 OA
BRANCH  10  11
ATOM     11  S   UNL     1      37.472 -26.226 -15.024  0.00  0.00    -0.005 S 
ATOM     12  O   UNL     1      38.899 -26.000 -15.137  0.00  0.00    -0.072 OA
ATOM     13  O   UNL     1      36.818 -27.342 -15.677  0.00  0.00    -0.072 OA
ATOM     14  C   UNL     1      37.053 -26.269 -13.300  0.00  0.00    +0.181 C 
ENDBRANCH  10  11
ENDBRANCH   9  10
ENDBRANCH   1   9
TORSDOF 7
ENDMDL
MODEL 7
REMARK VINA RESULT:      -6.2      1.784      2.076
REMARK  Name = 2478
REMARK  7 active torsions:
REMARK  status: ('A' for Active; 'I' for Inactive)
REMARK    1  A    between atoms: C_1  and  C_2
REMARK    2  A    between atoms: C_1  and  C_9
REMARK    3  A    between atoms: C_2  and  C_3
REMARK    4  A    between atoms: C_3  and  O_4
REMARK    5  A    between atoms: O_4  and  S_5
REMARK    6  A    between atoms: C_9  and  O_10
REMARK    7  A    between atoms: O_10  and  S_11
REMARK                            x       y       z     vdW  Elec       q    Type
REMARK                         _______ _______ _______ _____ _____    ______ ____
ROOT
ATOM      1  C   UNL     1      35.467 -22.898 -15.053  0.00  0.00    +0.037 C 
ENDROOT
BRANCH   1   2
ATOM      2  C   UNL     1      34.049 -23.455 -15.048  0.00  0.00    +0.037 C 
BRANCH   2   3
ATOM      3  C   UNL     1      33.414 -23.391 -16.429  0.00  0.00    +0.172 C 
BRANCH   3   4
ATOM      4  O   UNL     1      34.387 -22.945 -17.363  0.00  0.00    -0.242 OA
BRANCH   4   5
ATOM      5  S   UNL     1      33.937 -22.713 -18.915  0.00  0.00    -0.005 S 
ATOM      6  O   UNL     1      32.735 -21.905 -18.952  0.00  0.00    -0.072 OA
ATOM      7  O   UNL     1      34.044 -23.964 -19.639  0.00  0.00    -0.072 OA
ATOM      8  C   UNL     1      35.308 -21.686 -19.378  0.00  0.00    +0.181 C 
ENDBRANCH   4   5
ENDBRANCH   3   4
ENDBRANCH   2   3
ENDBRANCH   1   2
BRANCH   1   9
ATOM      9  C   UNL     1      36.378 -23.669 -14.109  0.00  0.00    +0.172 C 
BRANCH   9  10
ATOM     10  O   UNL     1      36.179 -23.193 -12.786  0.00  0.00    -0.242 OA
BRANCH  10  11
ATOM     11  S   UNL     1      37.266 -23.593 -11.635  0.00  0.00    -0.005 S 
ATOM     12  O   UNL     1      36.567 -23.958 -10.419  0.00  0.00    -0.072 OA
ATOM     13  O   UNL     1      38.349 -22.630 -11.639  0.00  0.00    -0.072 OA
ATOM     14  C   UNL     1      37.846 -25.082 -12.407  0.00  0.00    +0.181 C 
ENDBRANCH  10  11
ENDBRANCH   9  10
ENDBRANCH   1   9
TORSDOF 7
ENDMDL
MODEL 8
REMARK VINA RESULT:      -6.1      4.278      7.451
REMARK  Name = 2478
REMARK  7 active torsions:
REMARK  status: ('A' for Active; 'I' for Inactive)
REMARK    1  A    between atoms: C_1  and  C_2
REMARK    2  A    between atoms: C_1  and  C_9
REMARK    3  A    between atoms: C_2  and  C_3
REMARK    4  A    between atoms: C_3  and  O_4
REMARK    5  A    between atoms: O_4  and  S_5
REMARK    6  A    between atoms: C_9  and  O_10
REMARK    7  A    between atoms: O_10  and  S_11
REMARK                            x       y       z     vdW  Elec       q    Type
REMARK                         _______ _______ _______ _____ _____    ______ ____
ROOT
ATOM      1  C   UNL     1      32.203 -23.012 -16.831  0.00  0.00    +0.037 C 
ENDROOT
BRANCH   1   2
ATOM      2  C   UNL     1      33.333 -23.392 -15.881  0.00  0.00    +0.037 C 
BRANCH   2   3
ATOM      3  C   UNL     1      34.698 -23.097 -16.483  0.00  0.00    +0.172 C 
BRANCH   3   4
ATOM      4  O   UNL     1      35.592 -22.730 -15.442  0.00  0.00    -0.242 OA
BRANCH   4   5
ATOM      5  S   UNL     1      36.908 -23.659 -15.174  0.00  0.00    -0.005 S 
ATOM      6  O   UNL     1      38.078 -23.006 -15.727  0.00  0.00    -0.072 OA
ATOM      7  O   UNL     1      36.590 -25.041 -15.468  0.00  0.00    -0.072 OA
ATOM      8  C   UNL     1      36.946 -23.461 -13.411  0.00  0.00    +0.181 C 
ENDBRANCH   4   5
ENDBRANCH   3   4
ENDBRANCH   2   3
ENDBRANCH   1   2
BRANCH   1   9
ATOM      9  C   UNL     1      30.870 -22.905 -16.106  0.00  0.00    +0.172 C 
BRANCH   9  10
ATOM     10  O   UNL     1      29.873 -22.502 -17.034  0.00  0.00    -0.242 OA
BRANCH  10  11
ATOM     11  S   UNL     1      28.316 -22.892 -16.733  0.00  0.00    -0.005 S 
ATOM     12  O   UNL     1      27.686 -23.337 -17.959  0.00  0.00    -0.072 OA
ATOM     13  O   UNL     1      27.719 -21.877 -15.888  0.00  0.00    -0.072 OA
ATOM     14  C   UNL     1      28.649 -24.319 -15.732  0.00  0.00    +0.181 C 
ENDBRANCH  10  11
ENDBRANCH   9  10
ENDBRANCH   1   9
TORSDOF 7
ENDMDL
MODEL 9
REMARK VINA RESULT:      -6.1      4.076      5.207
REMARK  Name = 2478
REMARK  7 active torsions:
REMARK  status: ('A' for Active; 'I' for Inactive)
REMARK    1  A    between atoms: C_1  and  C_2
REMARK    2  A    between atoms: C_1  and  C_9
REMARK    3  A    between atoms: C_2  and  C_3
REMARK    4  A    between atoms: C_3  and  O_4
REMARK    5  A    between atoms: O_4  and  S_5
REMARK    6  A    between atoms: C_9  and  O_10
REMARK    7  A    between atoms: O_10  and  S_11
REMARK                            x       y       z     vdW  Elec       q    Type
REMARK                         _______ _______ _______ _____ _____    ______ ____
ROOT
ATOM      1  C   UNL     1      34.420 -23.528 -14.486  0.00  0.00    +0.037 C 
ENDROOT
BRANCH   1   2
ATOM      2  C   UNL     1      35.872 -23.374 -14.921  0.00  0.00    +0.037 C 
BRANCH   2   3
ATOM      3  C   UNL     1      36.562 -24.723 -15.066  0.00  0.00    +0.172 C 
BRANCH   3   4
ATOM      4  O   UNL     1      37.957 -24.550 -14.861  0.00  0.00    -0.242 OA
BRANCH   4   5
ATOM      5  S   UNL     1      38.831 -25.813 -14.306  0.00  0.00    -0.005 S 
ATOM      6  O   UNL     1      38.282 -27.047 -14.833  0.00  0.00    -0.072 OA
ATOM      7  O   UNL     1      39.094 -25.632 -12.893  0.00  0.00    -0.072 OA
ATOM      8  C   UNL     1      40.319 -25.444 -15.198  0.00  0.00    +0.181 C 
ENDBRANCH   4   5
ENDBRANCH   3   4
ENDBRANCH   2   3
ENDBRANCH   1   2
BRANCH   1   9
ATOM      9  C   UNL     1      34.281 -24.492 -13.317  0.00  0.00    +0.172 C 
BRANCH   9  10
ATOM     10  O   UNL     1      34.611 -23.809 -12.116  0.00  0.00    -0.242 OA
BRANCH  10  11
ATOM     11  S   UNL     1      35.785 -24.424 -11.161  0.00  0.00    -0.005 S 
ATOM     12  O   UNL     1      36.270 -25.664 -11.732  0.00  0.00    -0.072 OA
ATOM     13  O   UNL     1      35.378 -24.325  -9.773  0.00  0.00    -0.072 OA
ATOM     14  C   UNL     1      36.991 -23.161 -11.475  0.00  0.00    +0.181 C 
ENDBRANCH  10  11
ENDBRANCH   9  10
ENDBRANCH   1   9
TORSDOF 7
ENDMDL
