MODEL 1
REMARK VINA RESULT:      -7.7      0.000      0.000
REMARK  Name = 955
REMARK  7 active torsions:
REMARK  status: ('A' for Active; 'I' for Inactive)
REMARK    1  A    between atoms: C_1  and  C_8
REMARK    2  A    between atoms: C_2  and  C_16
REMARK    3  A    between atoms: C_8  and  C_9
REMARK    4  A    between atoms: C_9  and  C_10
REMARK    5  A    between atoms: C_10  and  C_12
REMARK    6  A    between atoms: C_12  and  O_13
REMARK    7  A    between atoms: C_16  and  O_17
REMARK                            x       y       z     vdW  Elec       q    Type
REMARK                         _______ _______ _______ _____ _____    ______ ____
ROOT
ATOM      1  C   UNL     1      34.831 -17.991 -22.482  0.00  0.00    +0.041 C 
ATOM      2  C   UNL     1      34.361 -16.702 -22.373  0.00  0.00    +0.078 C 
ATOM      3  C   UNL     1      35.072 -18.592 -23.699  0.00  0.00    +0.003 C 
ATOM      4  C   UNL     1      34.118 -15.976 -23.538  0.00  0.00    +0.007 C 
ATOM      5  C   UNL     1      34.829 -17.866 -24.864  0.00  0.00    +0.000 C 
ATOM      6  C   UNL     1      34.351 -16.558 -24.784  0.00  0.00    +0.000 C 
ENDROOT
BRANCH   1   8
ATOM      7  O   UNL     1      36.152 -18.622 -20.642  0.00  0.00    -0.291 OA
ATOM      8  C   UNL     1      35.101 -18.795 -21.253  0.00  0.00    +0.174 C 
BRANCH   8   9
ATOM      9  C   UNL     1      34.060 -19.806 -20.798  0.00  0.00    +0.081 C 
BRANCH   9  10
ATOM     10  C   UNL     1      34.674 -20.934 -19.977  0.00  0.00    +0.117 C 
BRANCH  10  12
ATOM     11  O   UNL     1      32.540 -21.439 -18.965  0.00  0.00    -0.250 OA
ATOM     12  C   UNL     1      33.606 -21.838 -19.419  0.00  0.00    +0.314 C 
BRANCH  12  13
ATOM     13  O   UNL     1      33.958 -23.148 -19.459  0.00  0.00    -0.480 OA
ATOM     14  H   UNL     1      33.856 -23.635 -20.254  0.00  0.00    +0.295 HD
ENDBRANCH  12  13
ENDBRANCH  10  12
ENDBRANCH   9  10
ENDBRANCH   8   9
ENDBRANCH   1   8
BRANCH   2  16
ATOM     15  O   UNL     1      34.966 -15.561 -20.359  0.00  0.00    -0.245 OA
ATOM     16  C   UNL     1      34.107 -16.066 -21.086  0.00  0.00    +0.338 C 
BRANCH  16  17
ATOM     17  O   UNL     1      32.789 -16.082 -20.752  0.00  0.00    -0.477 OA
ATOM     18  H   UNL     1      32.532 -15.980 -19.856  0.00  0.00    +0.295 HD
ENDBRANCH  16  17
ENDBRANCH   2  16
TORSDOF 7
ENDMDL
MODEL 2
REMARK VINA RESULT:      -7.7      7.491      9.259
REMARK  Name = 955
REMARK  7 active torsions:
REMARK  status: ('A' for Active; 'I' for Inactive)
REMARK    1  A    between atoms: C_1  and  C_8
REMARK    2  A    between atoms: C_2  and  C_16
REMARK    3  A    between atoms: C_8  and  C_9
REMARK    4  A    between atoms: C_9  and  C_10
REMARK    5  A    between atoms: C_10  and  C_12
REMARK    6  A    between atoms: C_12  and  O_13
REMARK    7  A    between atoms: C_16  and  O_17
REMARK                            x       y       z     vdW  Elec       q    Type
REMARK                         _______ _______ _______ _____ _____    ______ ____
ROOT
ATOM      1  C   UNL     1      31.871 -23.476 -16.022  0.00  0.00    +0.041 C 
ATOM      2  C   UNL     1      32.729 -23.627 -14.956  0.00  0.00    +0.078 C 
ATOM      3  C   UNL     1      32.310 -23.154 -17.288  0.00  0.00    +0.003 C 
ATOM      4  C   UNL     1      34.096 -23.446 -15.165  0.00  0.00    +0.007 C 
ATOM      5  C   UNL     1      33.677 -22.973 -17.497  0.00  0.00    +0.000 C 
ATOM      6  C   UNL     1      34.570 -23.119 -16.435  0.00  0.00    +0.000 C 
ENDROOT
BRANCH   1   8
ATOM      7  O   UNL     1      29.919 -24.786 -15.953  0.00  0.00    -0.291 OA
ATOM      8  C   UNL     1      30.402 -23.664 -15.831  0.00  0.00    +0.174 C 
BRANCH   8   9
ATOM      9  C   UNL     1      29.549 -22.451 -15.490  0.00  0.00    +0.081 C 
BRANCH   9  10
ATOM     10  C   UNL     1      28.058 -22.747 -15.600  0.00  0.00    +0.117 C 
BRANCH  10  12
ATOM     11  O   UNL     1      27.137 -21.416 -17.392  0.00  0.00    -0.250 OA
ATOM     12  C   UNL     1      27.561 -22.496 -17.000  0.00  0.00    +0.314 C 
BRANCH  12  13
ATOM     13  O   UNL     1      27.620 -23.604 -17.781  0.00  0.00    -0.480 OA
ATOM     14  H   UNL     1      28.240 -23.648 -18.483  0.00  0.00    +0.295 HD
ENDBRANCH  12  13
ENDBRANCH  10  12
ENDBRANCH   9  10
ENDBRANCH   8   9
ENDBRANCH   1   8
BRANCH   2  16
ATOM     15  O   UNL     1      31.977 -25.104 -13.231  0.00  0.00    -0.245 OA
ATOM     16  C   UNL     1      32.265 -23.969 -13.617  0.00  0.00    +0.338 C 
BRANCH  16  17
ATOM     17  O   UNL     1      32.178 -22.881 -12.807  0.00  0.00    -0.477 OA
ATOM     18  H   UNL     1      31.791 -22.089 -13.125  0.00  0.00    +0.295 HD
ENDBRANCH  16  17
ENDBRANCH   2  16
TORSDOF 7
ENDMDL
MODEL 3
REMARK VINA RESULT:      -7.6      9.007     10.837
REMARK  Name = 955
REMARK  7 active torsions:
REMARK  status: ('A' for Active; 'I' for Inactive)
REMARK    1  A    between atoms: C_1  and  C_8
REMARK    2  A    between atoms: C_2  and  C_16
REMARK    3  A    between atoms: C_8  and  C_9
REMARK    4  A    between atoms: C_9  and  C_10
REMARK    5  A    between atoms: C_10  and  C_12
REMARK    6  A    between atoms: C_12  and  O_13
REMARK    7  A    between atoms: C_16  and  O_17
REMARK                            x       y       z     vdW  Elec       q    Type
REMARK                         _______ _______ _______ _____ _____    ______ ____
ROOT
ATOM      1  C   UNL     1      37.433 -25.013 -14.782  0.00  0.00    +0.041 C 
ATOM      2  C   UNL     1      38.569 -24.396 -15.254  0.00  0.00    +0.078 C 
ATOM      3  C   UNL     1      36.172 -24.493 -14.979  0.00  0.00    +0.003 C 
ATOM      4  C   UNL     1      38.441 -23.200 -15.958  0.00  0.00    +0.007 C 
ATOM      5  C   UNL     1      36.043 -23.296 -15.683  0.00  0.00    +0.000 C 
ATOM      6  C   UNL     1      37.177 -22.649 -16.172  0.00  0.00    +0.000 C 
ENDROOT
BRANCH   1   8
ATOM      7  O   UNL     1      37.870 -27.317 -14.619  0.00  0.00    -0.291 OA
ATOM      8  C   UNL     1      37.537 -26.295 -14.025  0.00  0.00    +0.174 C 
BRANCH   8   9
ATOM      9  C   UNL     1      37.226 -26.292 -12.536  0.00  0.00    +0.081 C 
BRANCH   9  10
ATOM     10  C   UNL     1      37.287 -24.892 -11.937  0.00  0.00    +0.117 C 
BRANCH  10  12
ATOM     11  O   UNL     1      36.111 -24.136  -9.969  0.00  0.00    -0.250 OA
ATOM     12  C   UNL     1      36.070 -24.612 -11.096  0.00  0.00    +0.314 C 
BRANCH  12  13
ATOM     13  O   UNL     1      34.915 -24.959 -11.719  0.00  0.00    -0.480 OA
ATOM     14  H   UNL     1      34.273 -24.304 -11.912  0.00  0.00    +0.295 HD
ENDBRANCH  12  13
ENDBRANCH  10  12
ENDBRANCH   9  10
ENDBRANCH   8   9
ENDBRANCH   1   8
BRANCH   2  16
ATOM     15  O   UNL     1      40.648 -24.674 -14.101  0.00  0.00    -0.245 OA
ATOM     16  C   UNL     1      39.904 -24.946 -15.047  0.00  0.00    +0.338 C 
BRANCH  16  17
ATOM     17  O   UNL     1      40.263 -25.817 -16.027  0.00  0.00    -0.477 OA
ATOM     18  H   UNL     1      40.083 -26.732 -15.930  0.00  0.00    +0.295 HD
ENDBRANCH  16  17
ENDBRANCH   2  16
TORSDOF 7
ENDMDL
MODEL 4
REMARK VINA RESULT:      -7.5      1.853      5.206
REMARK  Name = 955
REMARK  7 active torsions:
REMARK  status: ('A' for Active; 'I' for Inactive)
REMARK    1  A    between atoms: C_1  and  C_8
REMARK    2  A    between atoms: C_2  and  C_16
REMARK    3  A    between atoms: C_8  and  C_9
REMARK    4  A    between atoms: C_9  and  C_10
REMARK    5  A    between atoms: C_10  and  C_12
REMARK    6  A    between atoms: C_12  and  O_13
REMARK    7  A    between atoms: C_16  and  O_17
REMARK                            x       y       z     vdW  Elec       q    Type
REMARK                         _______ _______ _______ _____ _____    ______ ____
ROOT
ATOM      1  C   UNL     1      34.455 -17.179 -22.375  0.00  0.00    +0.041 C 
ATOM      2  C   UNL     1      34.518 -18.552 -22.316  0.00  0.00    +0.078 C 
ATOM      3  C   UNL     1      34.599 -16.480 -23.554  0.00  0.00    +0.003 C 
ATOM      4  C   UNL     1      34.736 -19.265 -23.495  0.00  0.00    +0.007 C 
ATOM      5  C   UNL     1      34.818 -17.192 -24.732  0.00  0.00    +0.000 C 
ATOM      6  C   UNL     1      34.887 -18.585 -24.703  0.00  0.00    +0.000 C 
ENDROOT
BRANCH   1   8
ATOM      7  O   UNL     1      35.107 -16.330 -20.281  0.00  0.00    -0.291 OA
ATOM      8  C   UNL     1      34.222 -16.387 -21.131  0.00  0.00    +0.174 C 
BRANCH   8   9
ATOM      9  C   UNL     1      32.890 -15.673 -20.958  0.00  0.00    +0.081 C 
BRANCH   9  10
ATOM     10  C   UNL     1      33.048 -14.157 -20.933  0.00  0.00    +0.117 C 
BRANCH  10  12
ATOM     11  O   UNL     1      32.514 -13.812 -23.263  0.00  0.00    -0.250 OA
ATOM     12  C   UNL     1      32.322 -13.521 -22.089  0.00  0.00    +0.314 C 
BRANCH  12  13
ATOM     13  O   UNL     1      31.434 -12.576 -21.690  0.00  0.00    -0.480 OA
ATOM     14  H   UNL     1      30.951 -12.693 -20.895  0.00  0.00    +0.295 HD
ENDBRANCH  12  13
ENDBRANCH  10  12
ENDBRANCH   9  10
ENDBRANCH   8   9
ENDBRANCH   1   8
BRANCH   2  16
ATOM     15  O   UNL     1      33.302 -19.745 -20.635  0.00  0.00    -0.245 OA
ATOM     16  C   UNL     1      34.365 -19.292 -21.069  0.00  0.00    +0.338 C 
BRANCH  16  17
ATOM     17  O   UNL     1      35.543 -19.441 -20.408  0.00  0.00    -0.477 OA
ATOM     18  H   UNL     1      35.641 -20.126 -19.775  0.00  0.00    +0.295 HD
ENDBRANCH  16  17
ENDBRANCH   2  16
TORSDOF 7
ENDMDL
MODEL 5
REMARK VINA RESULT:      -7.5      9.881     11.442
REMARK  Name = 955
REMARK  7 active torsions:
REMARK  status: ('A' for Active; 'I' for Inactive)
REMARK    1  A    between atoms: C_1  and  C_8
REMARK    2  A    between atoms: C_2  and  C_16
REMARK    3  A    between atoms: C_8  and  C_9
REMARK    4  A    between atoms: C_9  and  C_10
REMARK    5  A    between atoms: C_10  and  C_12
REMARK    6  A    between atoms: C_12  and  O_13
REMARK    7  A    between atoms: C_16  and  O_17
REMARK                            x       y       z     vdW  Elec       q    Type
REMARK                         _______ _______ _______ _____ _____    ______ ____
ROOT
ATOM      1  C   UNL     1      36.146 -25.097 -13.600  0.00  0.00    +0.041 C 
ATOM      2  C   UNL     1      35.402 -24.432 -12.653  0.00  0.00    +0.078 C 
ATOM      3  C   UNL     1      35.834 -25.067 -14.943  0.00  0.00    +0.003 C 
ATOM      4  C   UNL     1      34.290 -23.700 -13.065  0.00  0.00    +0.007 C 
ATOM      5  C   UNL     1      34.722 -24.335 -15.355  0.00  0.00    +0.000 C 
ATOM      6  C   UNL     1      33.949 -23.651 -14.417  0.00  0.00    +0.000 C 
ENDROOT
BRANCH   1   8
ATOM      7  O   UNL     1      37.216 -27.087 -12.947  0.00  0.00    -0.291 OA
ATOM      8  C   UNL     1      37.343 -25.889 -13.191  0.00  0.00    +0.174 C 
BRANCH   8   9
ATOM      9  C   UNL     1      38.687 -25.184 -13.090  0.00  0.00    +0.081 C 
BRANCH   9  10
ATOM     10  C   UNL     1      39.293 -24.900 -14.459  0.00  0.00    +0.117 C 
BRANCH  10  12
ATOM     11  O   UNL     1      40.997 -26.533 -13.948  0.00  0.00    -0.250 OA
ATOM     12  C   UNL     1      40.372 -25.898 -14.788  0.00  0.00    +0.314 C 
BRANCH  12  13
ATOM     13  O   UNL     1      40.590 -26.008 -16.123  0.00  0.00    -0.480 OA
ATOM     14  H   UNL     1      40.068 -26.594 -16.635  0.00  0.00    +0.295 HD
ENDBRANCH  12  13
ENDBRANCH  10  12
ENDBRANCH   9  10
ENDBRANCH   8   9
ENDBRANCH   1   8
BRANCH   2  16
ATOM     15  O   UNL     1      35.262 -25.251 -10.409  0.00  0.00    -0.245 OA
ATOM     16  C   UNL     1      35.732 -24.463 -11.233  0.00  0.00    +0.338 C 
BRANCH  16  17
ATOM     17  O   UNL     1      36.638 -23.509 -10.891  0.00  0.00    -0.477 OA
ATOM     18  H   UNL     1      36.438 -22.893 -10.213  0.00  0.00    +0.295 HD
ENDBRANCH  16  17
ENDBRANCH   2  16
TORSDOF 7
ENDMDL
MODEL 6
REMARK VINA RESULT:      -7.4      1.758      2.850
REMARK  Name = 955
REMARK  7 active torsions:
REMARK  status: ('A' for Active; 'I' for Inactive)
REMARK    1  A    between atoms: C_1  and  C_8
REMARK    2  A    between atoms: C_2  and  C_16
REMARK    3  A    between atoms: C_8  and  C_9
REMARK    4  A    between atoms: C_9  and  C_10
REMARK    5  A    between atoms: C_10  and  C_12
REMARK    6  A    between atoms: C_12  and  O_13
REMARK    7  A    between atoms: C_16  and  O_17
REMARK                            x       y       z     vdW  Elec       q    Type
REMARK                         _______ _______ _______ _____ _____    ______ ____
ROOT
ATOM      1  C   UNL     1      34.683 -17.044 -21.607  0.00  0.00    +0.041 C 
ATOM      2  C   UNL     1      34.776 -16.710 -22.939  0.00  0.00    +0.078 C 
ATOM      3  C   UNL     1      34.419 -16.112 -20.626  0.00  0.00    +0.003 C 
ATOM      4  C   UNL     1      34.596 -15.379 -23.311  0.00  0.00    +0.007 C 
ATOM      5  C   UNL     1      34.239 -14.781 -20.998  0.00  0.00    +0.000 C 
ATOM      6  C   UNL     1      34.328 -14.413 -22.341  0.00  0.00    +0.000 C 
ENDROOT
BRANCH   1   8
ATOM      7  O   UNL     1      35.899 -18.777 -20.583  0.00  0.00    -0.291 OA
ATOM      8  C   UNL     1      34.870 -18.460 -21.176  0.00  0.00    +0.174 C 
BRANCH   8   9
ATOM      9  C   UNL     1      33.775 -19.470 -21.486  0.00  0.00    +0.081 C 
BRANCH   9  10
ATOM     10  C   UNL     1      33.048 -19.934 -20.229  0.00  0.00    +0.117 C 
BRANCH  10  12
ATOM     11  O   UNL     1      32.867 -22.299 -19.775  0.00  0.00    -0.250 OA
ATOM     12  C   UNL     1      33.550 -21.282 -19.783  0.00  0.00    +0.314 C 
BRANCH  12  13
ATOM     13  O   UNL     1      34.844 -21.248 -19.376  0.00  0.00    -0.480 OA
ATOM     14  H   UNL     1      35.305 -22.048 -19.218  0.00  0.00    +0.295 HD
ENDBRANCH  12  13
ENDBRANCH  10  12
ENDBRANCH   9  10
ENDBRANCH   8   9
ENDBRANCH   1   8
BRANCH   2  16
ATOM     15  O   UNL     1      34.368 -17.883 -24.984  0.00  0.00    -0.245 OA
ATOM     16  C   UNL     1      35.054 -17.696 -23.977  0.00  0.00    +0.338 C 
BRANCH  16  17
ATOM     17  O   UNL     1      36.181 -18.413 -23.721  0.00  0.00    -0.477 OA
ATOM     18  H   UNL     1      36.874 -18.032 -23.217  0.00  0.00    +0.295 HD
ENDBRANCH  16  17
ENDBRANCH   2  16
TORSDOF 7
ENDMDL
MODEL 7
REMARK VINA RESULT:      -7.3      2.162      5.485
REMARK  Name = 955
REMARK  7 active torsions:
REMARK  status: ('A' for Active; 'I' for Inactive)
REMARK    1  A    between atoms: C_1  and  C_8
REMARK    2  A    between atoms: C_2  and  C_16
REMARK    3  A    between atoms: C_8  and  C_9
REMARK    4  A    between atoms: C_9  and  C_10
REMARK    5  A    between atoms: C_10  and  C_12
REMARK    6  A    between atoms: C_12  and  O_13
REMARK    7  A    between atoms: C_16  and  O_17
REMARK                            x       y       z     vdW  Elec       q    Type
REMARK                         _______ _______ _______ _____ _____    ______ ____
ROOT
ATOM      1  C   UNL     1      35.526 -19.716 -20.687  0.00  0.00    +0.041 C 
ATOM      2  C   UNL     1      34.321 -20.284 -20.345  0.00  0.00    +0.078 C 
ATOM      3  C   UNL     1      36.732 -20.206 -20.234  0.00  0.00    +0.003 C 
ATOM      4  C   UNL     1      34.318 -21.398 -19.507  0.00  0.00    +0.007 C 
ATOM      5  C   UNL     1      36.730 -21.319 -19.395  0.00  0.00    +0.000 C 
ATOM      6  C   UNL     1      35.523 -21.916 -19.031  0.00  0.00    +0.000 C 
ENDROOT
BRANCH   1   8
ATOM      7  O   UNL     1      35.411 -17.404 -21.100  0.00  0.00    -0.291 OA
ATOM      8  C   UNL     1      35.563 -18.523 -21.583  0.00  0.00    +0.174 C 
BRANCH   8   9
ATOM      9  C   UNL     1      35.790 -18.733 -23.073  0.00  0.00    +0.081 C 
BRANCH   9  10
ATOM     10  C   UNL     1      34.616 -18.239 -23.910  0.00  0.00    +0.117 C 
BRANCH  10  12
ATOM     11  O   UNL     1      34.748 -16.761 -25.815  0.00  0.00    -0.250 OA
ATOM     12  C   UNL     1      34.965 -16.961 -24.626  0.00  0.00    +0.314 C 
BRANCH  12  13
ATOM     13  O   UNL     1      35.562 -16.054 -23.813  0.00  0.00    -0.480 OA
ATOM     14  H   UNL     1      35.330 -15.147 -23.874  0.00  0.00    +0.295 HD
ENDBRANCH  12  13
ENDBRANCH  10  12
ENDBRANCH   9  10
ENDBRANCH   8   9
ENDBRANCH   1   8
BRANCH   2  16
ATOM     15  O   UNL     1      32.144 -20.445 -21.327  0.00  0.00    -0.245 OA
ATOM     16  C   UNL     1      33.045 -19.767 -20.826  0.00  0.00    +0.338 C 
BRANCH  16  17
ATOM     17  O   UNL     1      32.938 -18.422 -20.663  0.00  0.00    -0.477 OA
ATOM     18  H   UNL     1      33.695 -17.915 -20.442  0.00  0.00    +0.295 HD
ENDBRANCH  16  17
ENDBRANCH   2  16
TORSDOF 7
ENDMDL
MODEL 8
REMARK VINA RESULT:      -7.2      4.819      8.117
REMARK  Name = 955
REMARK  7 active torsions:
REMARK  status: ('A' for Active; 'I' for Inactive)
REMARK    1  A    between atoms: C_1  and  C_8
REMARK    2  A    between atoms: C_2  and  C_16
REMARK    3  A    between atoms: C_8  and  C_9
REMARK    4  A    between atoms: C_9  and  C_10
REMARK    5  A    between atoms: C_10  and  C_12
REMARK    6  A    between atoms: C_12  and  O_13
REMARK    7  A    between atoms: C_16  and  O_17
REMARK                            x       y       z     vdW  Elec       q    Type
REMARK                         _______ _______ _______ _____ _____    ______ ____
ROOT
ATOM      1  C   UNL     1      32.795 -23.165 -16.812  0.00  0.00    +0.041 C 
ATOM      2  C   UNL     1      33.526 -23.372 -15.664  0.00  0.00    +0.078 C 
ATOM      3  C   UNL     1      31.435 -22.939 -16.793  0.00  0.00    +0.003 C 
ATOM      4  C   UNL     1      32.867 -23.354 -14.436  0.00  0.00    +0.007 C 
ATOM      5  C   UNL     1      30.776 -22.921 -15.565  0.00  0.00    +0.000 C 
ATOM      6  C   UNL     1      31.492 -23.129 -14.386  0.00  0.00    +0.000 C 
ENDROOT
BRANCH   1   8
ATOM      7  O   UNL     1      33.696 -24.253 -18.691  0.00  0.00    -0.291 OA
ATOM      8  C   UNL     1      33.471 -23.178 -18.142  0.00  0.00    +0.174 C 
BRANCH   8   9
ATOM      9  C   UNL     1      33.860 -21.851 -18.778  0.00  0.00    +0.081 C 
BRANCH   9  10
ATOM     10  C   UNL     1      35.107 -21.972 -19.645  0.00  0.00    +0.117 C 
BRANCH  10  12
ATOM     11  O   UNL     1      36.883 -21.834 -18.014  0.00  0.00    -0.250 OA
ATOM     12  C   UNL     1      36.297 -21.341 -18.970  0.00  0.00    +0.314 C 
BRANCH  12  13
ATOM     13  O   UNL     1      36.644 -20.154 -19.527  0.00  0.00    -0.480 OA
ATOM     14  H   UNL     1      36.544 -20.024 -20.450  0.00  0.00    +0.295 HD
ENDBRANCH  12  13
ENDBRANCH  10  12
ENDBRANCH   9  10
ENDBRANCH   8   9
ENDBRANCH   1   8
BRANCH   2  16
ATOM     15  O   UNL     1      35.504 -24.708 -15.843  0.00  0.00    -0.245 OA
ATOM     16  C   UNL     1      34.965 -23.610 -15.683  0.00  0.00    +0.338 C 
BRANCH  16  17
ATOM     17  O   UNL     1      35.681 -22.468 -15.503  0.00  0.00    -0.477 OA
ATOM     18  H   UNL     1      36.617 -22.493 -15.530  0.00  0.00    +0.295 HD
ENDBRANCH  16  17
ENDBRANCH   2  16
TORSDOF 7
ENDMDL
MODEL 9
REMARK VINA RESULT:      -7.2      7.658      9.555
REMARK  Name = 955
REMARK  7 active torsions:
REMARK  status: ('A' for Active; 'I' for Inactive)
REMARK    1  A    between atoms: C_1  and  C_8
REMARK    2  A    between atoms: C_2  and  C_16
REMARK    3  A    between atoms: C_8  and  C_9
REMARK    4  A    between atoms: C_9  and  C_10
REMARK    5  A    between atoms: C_10  and  C_12
REMARK    6  A    between atoms: C_12  and  O_13
REMARK    7  A    between atoms: C_16  and  O_17
REMARK                            x       y       z     vdW  Elec       q    Type
REMARK                         _______ _______ _______ _____ _____    ______ ____
ROOT
ATOM      1  C   UNL     1      33.919 -23.731 -15.547  0.00  0.00    +0.041 C 
ATOM      2  C   UNL     1      32.668 -23.638 -14.981  0.00  0.00    +0.078 C 
ATOM      3  C   UNL     1      34.173 -23.359 -16.850  0.00  0.00    +0.003 C 
ATOM      4  C   UNL     1      31.617 -23.149 -15.755  0.00  0.00    +0.007 C 
ATOM      5  C   UNL     1      33.122 -22.870 -17.624  0.00  0.00    +0.000 C 
ATOM      6  C   UNL     1      31.843 -22.765 -17.077  0.00  0.00    +0.000 C 
ENDROOT
BRANCH   1   8
ATOM      7  O   UNL     1      35.401 -25.426 -14.868  0.00  0.00    -0.291 OA
ATOM      8  C   UNL     1      35.066 -24.250 -14.745  0.00  0.00    +0.174 C 
BRANCH   8   9
ATOM      9  C   UNL     1      35.786 -23.301 -13.799  0.00  0.00    +0.081 C 
BRANCH   9  10
ATOM     10  C   UNL     1      36.706 -24.039 -12.833  0.00  0.00    +0.117 C 
BRANCH  10  12
ATOM     11  O   UNL     1      36.447 -24.015 -10.432  0.00  0.00    -0.250 OA
ATOM     12  C   UNL     1      36.003 -24.323 -11.532  0.00  0.00    +0.314 C 
BRANCH  12  13
ATOM     13  O   UNL     1      34.825 -24.974 -11.706  0.00  0.00    -0.480 OA
ATOM     14  H   UNL     1      34.365 -25.314 -10.964  0.00  0.00    +0.295 HD
ENDBRANCH  12  13
ENDBRANCH  10  12
ENDBRANCH   9  10
ENDBRANCH   8   9
ENDBRANCH   1   8
BRANCH   2  16
ATOM     15  O   UNL     1      32.104 -25.169 -13.231  0.00  0.00    -0.245 OA
ATOM     16  C   UNL     1      32.400 -24.031 -13.603  0.00  0.00    +0.338 C 
BRANCH  16  17
ATOM     17  O   UNL     1      32.510 -22.988 -12.737  0.00  0.00    -0.477 OA
ATOM     18  H   UNL     1      32.230 -23.086 -11.848  0.00  0.00    +0.295 HD
ENDBRANCH  16  17
ENDBRANCH   2  16
TORSDOF 7
ENDMDL
