MODEL 1
REMARK VINA RESULT:      -8.9      0.000      0.000
REMARK  Name = 14357
REMARK  4 active torsions:
REMARK  status: ('A' for Active; 'I' for Inactive)
REMARK    1  A    between atoms: C_7  and  C_12
REMARK    2  A    between atoms: C_8  and  C_16
REMARK    3  A    between atoms: C_12  and  O_13
REMARK    4  A    between atoms: C_16  and  O_17
REMARK                            x       y       z     vdW  Elec       q    Type
REMARK                         _______ _______ _______ _____ _____    ______ ____
ROOT
ATOM      1  C   UNL     1      34.153 -19.385 -21.048  0.00  0.00    +0.000 C 
ATOM      2  C   UNL     1      35.413 -19.910 -20.672  0.00  0.00    +0.000 C 
ATOM      3  C   UNL     1      34.099 -18.275 -21.907  0.00  0.00    +0.006 C 
ATOM      4  C   UNL     1      35.466 -21.020 -19.813  0.00  0.00    +0.006 C 
ATOM      5  C   UNL     1      36.582 -19.309 -21.168  0.00  0.00    +0.000 C 
ATOM      6  C   UNL     1      32.984 -19.987 -20.553  0.00  0.00    +0.000 C 
ATOM      7  C   UNL     1      35.271 -17.691 -22.388  0.00  0.00    +0.075 C 
ATOM      8  C   UNL     1      34.294 -21.604 -19.332  0.00  0.00    +0.075 C 
ATOM      9  C   UNL     1      36.510 -18.207 -22.019  0.00  0.00    +0.006 C 
ATOM     10  C   UNL     1      33.056 -21.089 -19.701  0.00  0.00    +0.006 C 
ENDROOT
BRANCH   7  12
ATOM     11  O   UNL     1      35.052 -15.368 -22.919  0.00  0.00    -0.245 OA
ATOM     12  C   UNL     1      35.198 -16.543 -23.277  0.00  0.00    +0.338 C 
BRANCH  12  13
ATOM     13  O   UNL     1      35.310 -16.891 -24.588  0.00  0.00    -0.477 OA
ATOM     14  H   UNL     1      35.555 -17.764 -24.821  0.00  0.00    +0.295 HD
ENDBRANCH  12  13
ENDBRANCH   7  12
BRANCH   8  16
ATOM     15  O   UNL     1      34.914 -22.769 -17.335  0.00  0.00    -0.245 OA
ATOM     16  C   UNL     1      34.367 -22.753 -18.443  0.00  0.00    +0.338 C 
BRANCH  16  17
ATOM     17  O   UNL     1      33.754 -23.852 -18.962  0.00  0.00    -0.477 OA
ATOM     18  H   UNL     1      33.733 -23.983 -19.889  0.00  0.00    +0.295 HD
ENDBRANCH  16  17
ENDBRANCH   8  16
TORSDOF 4
ENDMDL
MODEL 2
REMARK VINA RESULT:      -8.9      0.100      6.245
REMARK  Name = 14357
REMARK  4 active torsions:
REMARK  status: ('A' for Active; 'I' for Inactive)
REMARK    1  A    between atoms: C_7  and  C_12
REMARK    2  A    between atoms: C_8  and  C_16
REMARK    3  A    between atoms: C_12  and  O_13
REMARK    4  A    between atoms: C_16  and  O_17
REMARK                            x       y       z     vdW  Elec       q    Type
REMARK                         _______ _______ _______ _____ _____    ______ ____
ROOT
ATOM      1  C   UNL     1      35.414 -19.862 -20.760  0.00  0.00    +0.000 C 
ATOM      2  C   UNL     1      34.153 -19.318 -21.102  0.00  0.00    +0.000 C 
ATOM      3  C   UNL     1      35.473 -20.983 -19.916  0.00  0.00    +0.006 C 
ATOM      4  C   UNL     1      34.093 -18.197 -21.946  0.00  0.00    +0.006 C 
ATOM      5  C   UNL     1      32.987 -19.913 -20.590  0.00  0.00    +0.000 C 
ATOM      6  C   UNL     1      36.579 -19.268 -21.272  0.00  0.00    +0.000 C 
ATOM      7  C   UNL     1      34.304 -21.560 -19.416  0.00  0.00    +0.075 C 
ATOM      8  C   UNL     1      35.262 -17.621 -22.445  0.00  0.00    +0.075 C 
ATOM      9  C   UNL     1      33.065 -21.025 -19.752  0.00  0.00    +0.006 C 
ATOM     10  C   UNL     1      36.502 -18.155 -22.109  0.00  0.00    +0.006 C 
ENDROOT
BRANCH   7  12
ATOM     11  O   UNL     1      34.929 -22.747 -17.435  0.00  0.00    -0.245 OA
ATOM     12  C   UNL     1      34.383 -22.720 -18.544  0.00  0.00    +0.338 C 
BRANCH  12  13
ATOM     13  O   UNL     1      33.777 -23.815 -19.078  0.00  0.00    -0.477 OA
ATOM     14  H   UNL     1      33.055 -24.215 -18.635  0.00  0.00    +0.295 HD
ENDBRANCH  12  13
ENDBRANCH   7  12
BRANCH   8  16
ATOM     15  O   UNL     1      35.005 -15.295 -22.948  0.00  0.00    -0.245 OA
ATOM     16  C   UNL     1      35.183 -16.460 -23.318  0.00  0.00    +0.338 C 
BRANCH  16  17
ATOM     17  O   UNL     1      35.331 -16.786 -24.631  0.00  0.00    -0.477 OA
ATOM     18  H   UNL     1      34.650 -16.587 -25.243  0.00  0.00    +0.295 HD
ENDBRANCH  16  17
ENDBRANCH   8  16
TORSDOF 4
ENDMDL
MODEL 3
REMARK VINA RESULT:      -8.6      0.628      6.299
REMARK  Name = 14357
REMARK  4 active torsions:
REMARK  status: ('A' for Active; 'I' for Inactive)
REMARK    1  A    between atoms: C_7  and  C_12
REMARK    2  A    between atoms: C_8  and  C_16
REMARK    3  A    between atoms: C_12  and  O_13
REMARK    4  A    between atoms: C_16  and  O_17
REMARK                            x       y       z     vdW  Elec       q    Type
REMARK                         _______ _______ _______ _____ _____    ______ ____
ROOT
ATOM      1  C   UNL     1      35.439 -20.102 -20.550  0.00  0.00    +0.000 C 
ATOM      2  C   UNL     1      34.169 -19.793 -21.091  0.00  0.00    +0.000 C 
ATOM      3  C   UNL     1      35.535 -21.049 -19.517  0.00  0.00    +0.006 C 
ATOM      4  C   UNL     1      34.073 -18.846 -22.124  0.00  0.00    +0.006 C 
ATOM      5  C   UNL     1      33.030 -20.442 -20.584  0.00  0.00    +0.000 C 
ATOM      6  C   UNL     1      36.577 -19.455 -21.058  0.00  0.00    +0.000 C 
ATOM      7  C   UNL     1      34.393 -21.682 -19.025  0.00  0.00    +0.075 C 
ATOM      8  C   UNL     1      35.215 -18.213 -22.616  0.00  0.00    +0.075 C 
ATOM      9  C   UNL     1      33.144 -21.379 -19.557  0.00  0.00    +0.006 C 
ATOM     10  C   UNL     1      36.464 -18.516 -22.084  0.00  0.00    +0.006 C 
ENDROOT
BRANCH   7  12
ATOM     11  O   UNL     1      35.500 -22.820 -17.235  0.00  0.00    -0.245 OA
ATOM     12  C   UNL     1      34.509 -22.660 -17.955  0.00  0.00    +0.338 C 
BRANCH  12  13
ATOM     13  O   UNL     1      33.383 -23.413 -17.814  0.00  0.00    -0.477 OA
ATOM     14  H   UNL     1      33.339 -24.266 -18.197  0.00  0.00    +0.295 HD
ENDBRANCH  12  13
ENDBRANCH   7  12
BRANCH   8  16
ATOM     15  O   UNL     1      34.587 -17.439 -24.791  0.00  0.00    -0.245 OA
ATOM     16  C   UNL     1      35.099 -17.235 -23.686  0.00  0.00    +0.338 C 
BRANCH  16  17
ATOM     17  O   UNL     1      35.625 -16.027 -23.345  0.00  0.00    -0.477 OA
ATOM     18  H   UNL     1      35.250 -15.239 -23.686  0.00  0.00    +0.295 HD
ENDBRANCH  16  17
ENDBRANCH   8  16
TORSDOF 4
ENDMDL
MODEL 4
REMARK VINA RESULT:      -8.5      1.317      2.550
REMARK  Name = 14357
REMARK  4 active torsions:
REMARK  status: ('A' for Active; 'I' for Inactive)
REMARK    1  A    between atoms: C_7  and  C_12
REMARK    2  A    between atoms: C_8  and  C_16
REMARK    3  A    between atoms: C_12  and  O_13
REMARK    4  A    between atoms: C_16  and  O_17
REMARK                            x       y       z     vdW  Elec       q    Type
REMARK                         _______ _______ _______ _____ _____    ______ ____
ROOT
ATOM      1  C   UNL     1      35.212 -20.679 -20.002  0.00  0.00    +0.000 C 
ATOM      2  C   UNL     1      33.815 -20.882 -19.901  0.00  0.00    +0.000 C 
ATOM      3  C   UNL     1      35.709 -19.787 -20.967  0.00  0.00    +0.006 C 
ATOM      4  C   UNL     1      33.319 -21.775 -18.937  0.00  0.00    +0.006 C 
ATOM      5  C   UNL     1      32.955 -20.186 -20.766  0.00  0.00    +0.000 C 
ATOM      6  C   UNL     1      36.071 -21.375 -19.136  0.00  0.00    +0.000 C 
ATOM      7  C   UNL     1      34.839 -19.104 -21.818  0.00  0.00    +0.075 C 
ATOM      8  C   UNL     1      34.188 -22.457 -18.085  0.00  0.00    +0.075 C 
ATOM      9  C   UNL     1      33.466 -19.304 -21.719  0.00  0.00    +0.006 C 
ATOM     10  C   UNL     1      35.561 -22.258 -18.184  0.00  0.00    +0.006 C 
ENDROOT
BRANCH   7  12
ATOM     11  O   UNL     1      34.693 -17.487 -23.576  0.00  0.00    -0.245 OA
ATOM     12  C   UNL     1      35.370 -18.184 -22.811  0.00  0.00    +0.338 C 
BRANCH  12  13
ATOM     13  O   UNL     1      36.730 -18.157 -22.822  0.00  0.00    -0.477 OA
ATOM     14  H   UNL     1      37.210 -18.385 -22.050  0.00  0.00    +0.295 HD
ENDBRANCH  12  13
ENDBRANCH   7  12
BRANCH   8  16
ATOM     15  O   UNL     1      32.461 -23.546 -16.836  0.00  0.00    -0.245 OA
ATOM     16  C   UNL     1      33.658 -23.378 -17.092  0.00  0.00    +0.338 C 
BRANCH  16  17
ATOM     17  O   UNL     1      34.638 -24.066 -16.444  0.00  0.00    -0.477 OA
ATOM     18  H   UNL     1      35.298 -23.603 -15.968  0.00  0.00    +0.295 HD
ENDBRANCH  16  17
ENDBRANCH   8  16
TORSDOF 4
ENDMDL
MODEL 5
REMARK VINA RESULT:      -8.5      1.326      6.192
REMARK  Name = 14357
REMARK  4 active torsions:
REMARK  status: ('A' for Active; 'I' for Inactive)
REMARK    1  A    between atoms: C_7  and  C_12
REMARK    2  A    between atoms: C_8  and  C_16
REMARK    3  A    between atoms: C_12  and  O_13
REMARK    4  A    between atoms: C_16  and  O_17
REMARK                            x       y       z     vdW  Elec       q    Type
REMARK                         _______ _______ _______ _____ _____    ______ ____
ROOT
ATOM      1  C   UNL     1      33.811 -20.902 -19.898  0.00  0.00    +0.000 C 
ATOM      2  C   UNL     1      35.208 -20.699 -20.007  0.00  0.00    +0.000 C 
ATOM      3  C   UNL     1      33.319 -21.786 -18.925  0.00  0.00    +0.006 C 
ATOM      4  C   UNL     1      35.701 -19.814 -20.980  0.00  0.00    +0.006 C 
ATOM      5  C   UNL     1      36.071 -21.388 -19.138  0.00  0.00    +0.000 C 
ATOM      6  C   UNL     1      32.949 -20.212 -20.766  0.00  0.00    +0.000 C 
ATOM      7  C   UNL     1      34.191 -22.462 -18.071  0.00  0.00    +0.075 C 
ATOM      8  C   UNL     1      34.828 -19.139 -21.834  0.00  0.00    +0.075 C 
ATOM      9  C   UNL     1      35.564 -22.263 -18.177  0.00  0.00    +0.006 C 
ATOM     10  C   UNL     1      33.455 -19.337 -21.727  0.00  0.00    +0.006 C 
ENDROOT
BRANCH   7  12
ATOM     11  O   UNL     1      32.469 -23.527 -16.796  0.00  0.00    -0.245 OA
ATOM     12  C   UNL     1      33.665 -23.375 -17.069  0.00  0.00    +0.338 C 
BRANCH  12  13
ATOM     13  O   UNL     1      34.646 -24.073 -16.434  0.00  0.00    -0.477 OA
ATOM     14  H   UNL     1      35.481 -23.676 -16.284  0.00  0.00    +0.295 HD
ENDBRANCH  12  13
ENDBRANCH   7  12
BRANCH   8  16
ATOM     15  O   UNL     1      34.679 -17.583 -23.646  0.00  0.00    -0.245 OA
ATOM     16  C   UNL     1      35.354 -18.226 -22.836  0.00  0.00    +0.338 C 
BRANCH  16  17
ATOM     17  O   UNL     1      36.712 -18.140 -22.799  0.00  0.00    -0.477 OA
ATOM     18  H   UNL     1      37.124 -17.394 -22.409  0.00  0.00    +0.295 HD
ENDBRANCH  16  17
ENDBRANCH   8  16
TORSDOF 4
ENDMDL
MODEL 6
REMARK VINA RESULT:      -8.2      7.141      8.590
REMARK  Name = 14357
REMARK  4 active torsions:
REMARK  status: ('A' for Active; 'I' for Inactive)
REMARK    1  A    between atoms: C_7  and  C_12
REMARK    2  A    between atoms: C_8  and  C_16
REMARK    3  A    between atoms: C_12  and  O_13
REMARK    4  A    between atoms: C_16  and  O_17
REMARK                            x       y       z     vdW  Elec       q    Type
REMARK                         _______ _______ _______ _____ _____    ______ ____
ROOT
ATOM      1  C   UNL     1      31.939 -23.395 -15.783  0.00  0.00    +0.000 C 
ATOM      2  C   UNL     1      31.762 -24.028 -14.530  0.00  0.00    +0.000 C 
ATOM      3  C   UNL     1      30.811 -23.040 -16.540  0.00  0.00    +0.006 C 
ATOM      4  C   UNL     1      32.891 -24.383 -13.773  0.00  0.00    +0.006 C 
ATOM      5  C   UNL     1      30.460 -24.287 -14.070  0.00  0.00    +0.000 C 
ATOM      6  C   UNL     1      33.241 -23.136 -16.243  0.00  0.00    +0.000 C 
ATOM      7  C   UNL     1      29.525 -23.306 -16.067  0.00  0.00    +0.075 C 
ATOM      8  C   UNL     1      34.176 -24.117 -14.246  0.00  0.00    +0.075 C 
ATOM      9  C   UNL     1      29.350 -23.928 -14.836  0.00  0.00    +0.006 C 
ATOM     10  C   UNL     1      34.351 -23.495 -15.478  0.00  0.00    +0.006 C 
ENDROOT
BRANCH   7  12
ATOM     11  O   UNL     1      27.947 -21.780 -17.020  0.00  0.00    -0.245 OA
ATOM     12  C   UNL     1      28.367 -22.932 -16.863  0.00  0.00    +0.338 C 
BRANCH  12  13
ATOM     13  O   UNL     1      27.765 -24.006 -17.443  0.00  0.00    -0.477 OA
ATOM     14  H   UNL     1      27.622 -24.021 -18.368  0.00  0.00    +0.295 HD
ENDBRANCH  12  13
ENDBRANCH   7  12
BRANCH   8  16
ATOM     15  O   UNL     1      36.512 -24.401 -13.811  0.00  0.00    -0.245 OA
ATOM     16  C   UNL     1      35.334 -24.491 -13.450  0.00  0.00    +0.338 C 
BRANCH  16  17
ATOM     17  O   UNL     1      34.990 -24.969 -12.223  0.00  0.00    -0.477 OA
ATOM     18  H   UNL     1      35.518 -24.765 -11.476  0.00  0.00    +0.295 HD
ENDBRANCH  16  17
ENDBRANCH   8  16
TORSDOF 4
ENDMDL
MODEL 7
REMARK VINA RESULT:      -8.2      2.564      4.060
REMARK  Name = 14357
REMARK  4 active torsions:
REMARK  status: ('A' for Active; 'I' for Inactive)
REMARK    1  A    between atoms: C_7  and  C_12
REMARK    2  A    between atoms: C_8  and  C_16
REMARK    3  A    between atoms: C_12  and  O_13
REMARK    4  A    between atoms: C_16  and  O_17
REMARK                            x       y       z     vdW  Elec       q    Type
REMARK                         _______ _______ _______ _____ _____    ______ ____
ROOT
ATOM      1  C   UNL     1      34.629 -16.735 -23.243  0.00  0.00    +0.000 C 
ATOM      2  C   UNL     1      34.736 -16.506 -21.850  0.00  0.00    +0.000 C 
ATOM      3  C   UNL     1      34.306 -15.664 -24.093  0.00  0.00    +0.006 C 
ATOM      4  C   UNL     1      35.058 -17.576 -21.001  0.00  0.00    +0.006 C 
ATOM      5  C   UNL     1      34.517 -15.212 -21.349  0.00  0.00    +0.000 C 
ATOM      6  C   UNL     1      34.849 -18.028 -23.744  0.00  0.00    +0.000 C 
ATOM      7  C   UNL     1      34.091 -14.386 -23.577  0.00  0.00    +0.075 C 
ATOM      8  C   UNL     1      35.273 -18.855 -21.517  0.00  0.00    +0.075 C 
ATOM      9  C   UNL     1      34.196 -14.161 -22.208  0.00  0.00    +0.006 C 
ATOM     10  C   UNL     1      35.169 -19.080 -22.886  0.00  0.00    +0.006 C 
ENDROOT
BRANCH   7  12
ATOM     11  O   UNL     1      33.148 -13.396 -25.540  0.00  0.00    -0.245 OA
ATOM     12  C   UNL     1      33.758 -13.289 -24.470  0.00  0.00    +0.338 C 
BRANCH  12  13
ATOM     13  O   UNL     1      34.193 -12.087 -24.003  0.00  0.00    -0.477 OA
ATOM     14  H   UNL     1      35.076 -11.816 -24.159  0.00  0.00    +0.295 HD
ENDBRANCH  12  13
ENDBRANCH   7  12
BRANCH   8  16
ATOM     15  O   UNL     1      34.899 -20.941 -20.407  0.00  0.00    -0.245 OA
ATOM     16  C   UNL     1      35.607 -19.952 -20.624  0.00  0.00    +0.338 C 
BRANCH  16  17
ATOM     17  O   UNL     1      36.818 -19.786 -20.024  0.00  0.00    -0.477 OA
ATOM     18  H   UNL     1      37.112 -20.402 -19.384  0.00  0.00    +0.295 HD
ENDBRANCH  16  17
ENDBRANCH   8  16
TORSDOF 4
ENDMDL
MODEL 8
REMARK VINA RESULT:      -8.1      2.563      6.991
REMARK  Name = 14357
REMARK  4 active torsions:
REMARK  status: ('A' for Active; 'I' for Inactive)
REMARK    1  A    between atoms: C_7  and  C_12
REMARK    2  A    between atoms: C_8  and  C_16
REMARK    3  A    between atoms: C_12  and  O_13
REMARK    4  A    between atoms: C_16  and  O_17
REMARK                            x       y       z     vdW  Elec       q    Type
REMARK                         _______ _______ _______ _____ _____    ______ ____
ROOT
ATOM      1  C   UNL     1      34.738 -16.505 -21.852  0.00  0.00    +0.000 C 
ATOM      2  C   UNL     1      34.643 -16.732 -23.246  0.00  0.00    +0.000 C 
ATOM      3  C   UNL     1      35.057 -17.575 -21.001  0.00  0.00    +0.006 C 
ATOM      4  C   UNL     1      34.323 -15.662 -24.097  0.00  0.00    +0.006 C 
ATOM      5  C   UNL     1      34.871 -18.025 -23.747  0.00  0.00    +0.000 C 
ATOM      6  C   UNL     1      34.510 -15.213 -21.351  0.00  0.00    +0.000 C 
ATOM      7  C   UNL     1      35.279 -18.852 -21.517  0.00  0.00    +0.075 C 
ATOM      8  C   UNL     1      34.101 -14.385 -23.580  0.00  0.00    +0.075 C 
ATOM      9  C   UNL     1      35.186 -19.077 -22.887  0.00  0.00    +0.006 C 
ATOM     10  C   UNL     1      34.194 -14.161 -22.211  0.00  0.00    +0.006 C 
ENDROOT
BRANCH   7  12
ATOM     11  O   UNL     1      34.897 -20.937 -20.406  0.00  0.00    -0.245 OA
ATOM     12  C   UNL     1      35.609 -19.950 -20.622  0.00  0.00    +0.338 C 
BRANCH  12  13
ATOM     13  O   UNL     1      36.819 -19.786 -20.021  0.00  0.00    -0.477 OA
ATOM     14  H   UNL     1      37.599 -20.075 -20.451  0.00  0.00    +0.295 HD
ENDBRANCH  12  13
ENDBRANCH   7  12
BRANCH   8  16
ATOM     15  O   UNL     1      33.175 -13.394 -25.552  0.00  0.00    -0.245 OA
ATOM     16  C   UNL     1      33.771 -13.287 -24.475  0.00  0.00    +0.338 C 
BRANCH  16  17
ATOM     17  O   UNL     1      34.194 -12.084 -24.001  0.00  0.00    -0.477 OA
ATOM     18  H   UNL     1      34.317 -11.960 -23.080  0.00  0.00    +0.295 HD
ENDBRANCH  16  17
ENDBRANCH   8  16
TORSDOF 4
ENDMDL
MODEL 9
REMARK VINA RESULT:      -8.0      2.596      6.954
REMARK  Name = 14357
REMARK  4 active torsions:
REMARK  status: ('A' for Active; 'I' for Inactive)
REMARK    1  A    between atoms: C_7  and  C_12
REMARK    2  A    between atoms: C_8  and  C_16
REMARK    3  A    between atoms: C_12  and  O_13
REMARK    4  A    between atoms: C_16  and  O_17
REMARK                            x       y       z     vdW  Elec       q    Type
REMARK                         _______ _______ _______ _____ _____    ______ ____
ROOT
ATOM      1  C   UNL     1      34.622 -16.752 -22.574  0.00  0.00    +0.000 C 
ATOM      2  C   UNL     1      34.494 -17.308 -23.870  0.00  0.00    +0.000 C 
ATOM      3  C   UNL     1      34.996 -17.582 -21.504  0.00  0.00    +0.006 C 
ATOM      4  C   UNL     1      34.121 -16.479 -24.940  0.00  0.00    +0.006 C 
ATOM      5  C   UNL     1      34.745 -18.678 -24.057  0.00  0.00    +0.000 C 
ATOM      6  C   UNL     1      34.373 -15.383 -22.388  0.00  0.00    +0.000 C 
ATOM      7  C   UNL     1      35.239 -18.940 -21.708  0.00  0.00    +0.075 C 
ATOM      8  C   UNL     1      33.877 -15.120 -24.735  0.00  0.00    +0.075 C 
ATOM      9  C   UNL     1      35.114 -19.487 -22.981  0.00  0.00    +0.006 C 
ATOM     10  C   UNL     1      34.003 -14.574 -23.462  0.00  0.00    +0.006 C 
ENDROOT
BRANCH   7  12
ATOM     11  O   UNL     1      36.740 -19.804 -20.057  0.00  0.00    -0.245 OA
ATOM     12  C   UNL     1      35.625 -19.785 -20.590  0.00  0.00    +0.338 C 
BRANCH  12  13
ATOM     13  O   UNL     1      34.608 -20.584 -20.166  0.00  0.00    -0.477 OA
ATOM     14  H   UNL     1      33.880 -20.212 -19.708  0.00  0.00    +0.295 HD
ENDBRANCH  12  13
ENDBRANCH   7  12
BRANCH   8  16
ATOM     15  O   UNL     1      33.294 -13.057 -25.798  0.00  0.00    -0.245 OA
ATOM     16  C   UNL     1      33.491 -14.276 -25.854  0.00  0.00    +0.338 C 
BRANCH  16  17
ATOM     17  O   UNL     1      33.363 -14.975 -27.014  0.00  0.00    -0.477 OA
ATOM     18  H   UNL     1      33.778 -15.810 -27.106  0.00  0.00    +0.295 HD
ENDBRANCH  16  17
ENDBRANCH   8  16
TORSDOF 4
ENDMDL
