MODEL 1
REMARK VINA RESULT:     -12.0      0.000      0.000
REMARK  Name = 56949517
REMARK  6 active torsions:
REMARK  status: ('A' for Active; 'I' for Inactive)
REMARK    1  A    between atoms: N_1  and  C_21
REMARK    2  A    between atoms: C_4  and  N_12
REMARK    3  A    between atoms: C_8  and  C_18
REMARK    4  A    between atoms: C_18  and  O_19
REMARK    5  A    between atoms: C_21  and  C_22
REMARK    6  A    between atoms: C_25  and  C_32
REMARK                            x       y       z     vdW  Elec       q    Type
REMARK                         _______ _______ _______ _____ _____    ______ ____
ROOT
ATOM      1  N   UNL     1      34.692 -16.776 -22.770  0.00  0.00    -0.260 N 
ATOM      2  N   UNL     1      34.449 -16.869 -24.977  0.00  0.00    -0.393 NA
ATOM      3  C   UNL     1      34.013 -15.635 -23.112  0.00  0.00    +0.081 C 
ATOM      4  C   UNL     1      32.866 -13.550 -23.051  0.00  0.00    +0.046 C 
ATOM      5  C   UNL     1      33.874 -15.717 -24.495  0.00  0.00    +0.138 C 
ATOM      6  C   UNL     1      33.525 -14.570 -22.354  0.00  0.00    +0.031 C 
ATOM      7  C   UNL     1      34.929 -17.481 -23.917  0.00  0.00    +0.164 C 
ATOM      8  C   UNL     1      33.210 -14.684 -25.178  0.00  0.00    +0.175 C 
ATOM      9  C   UNL     1      32.711 -13.605 -24.438  0.00  0.00    +0.006 C 
ATOM     10  C   UNL     1      35.645 -18.772 -23.913  0.00  0.00    +0.084 C 
ENDROOT
BRANCH   4  12
ATOM     11  O   UNL     1      31.595 -10.191 -20.867  0.00  0.00    -0.350 OA
ATOM     12  N   UNL     1      32.356 -12.457 -22.343  0.00  0.00    -0.303 N 
ATOM     13  C   UNL     1      32.176 -12.547 -20.891  0.00  0.00    +0.123 C 
ATOM     14  C   UNL     1      32.630 -11.110 -22.858  0.00  0.00    +0.123 C 
ATOM     15  C   UNL     1      31.183 -11.485 -20.428  0.00  0.00    +0.164 C 
ATOM     16  C   UNL     1      31.612 -10.125 -22.292  0.00  0.00    +0.164 C 
ENDBRANCH   4  12
BRANCH   8  18
ATOM     17  O   UNL     1      33.513 -13.921 -27.425  0.00  0.00    -0.249 OA
ATOM     18  C   UNL     1      33.042 -14.732 -26.620  0.00  0.00    +0.324 C 
BRANCH  18  19
ATOM     19  O   UNL     1      32.288 -15.793 -27.024  0.00  0.00    -0.480 OA
ATOM     20  H   UNL     1      32.246 -16.020 -27.933  0.00  0.00    +0.295 HD
ENDBRANCH  18  19
ENDBRANCH   8  18
BRANCH   1  21
ATOM     21  C   UNL     1      35.084 -17.161 -21.433  0.00  0.00    +0.124 C 
BRANCH  21  22
ATOM     22  C   UNL     1      34.456 -18.454 -20.975  0.00  0.00    -0.006 C 
ATOM     23  C   UNL     1      35.242 -19.527 -20.558  0.00  0.00    -0.020 C 
ATOM     24  C   UNL     1      33.066 -18.566 -20.974  0.00  0.00    -0.003 C 
ATOM     25  C   UNL     1      34.638 -20.713 -20.139  0.00  0.00    +0.067 C 
ATOM     26  C   UNL     1      36.734 -19.407 -20.560  0.00  0.00    +0.031 C 
ATOM     27  C   UNL     1      32.462 -19.752 -20.555  0.00  0.00    -0.000 C 
ATOM     28  C   UNL     1      33.248 -20.825 -20.137  0.00  0.00    +0.004 C 
BRANCH  25  32
ATOM     29  F   UNL     1      34.715 -23.011 -19.532  0.00  0.00    -0.166 F 
ATOM     30  F   UNL     1      36.459 -22.210 -20.553  0.00  0.00    -0.166 F 
ATOM     31  F   UNL     1      36.076 -21.676 -18.486  0.00  0.00    -0.166 F 
ATOM     32  C   UNL     1      35.459 -21.878 -19.687  0.00  0.00    +0.418 C 
ENDBRANCH  25  32
ENDBRANCH  21  22
ENDBRANCH   1  21
TORSDOF 6
ENDMDL
MODEL 2
REMARK VINA RESULT:      -9.8      1.016      1.810
REMARK  Name = 56949517
REMARK  6 active torsions:
REMARK  status: ('A' for Active; 'I' for Inactive)
REMARK    1  A    between atoms: N_1  and  C_21
REMARK    2  A    between atoms: C_4  and  N_12
REMARK    3  A    between atoms: C_8  and  C_18
REMARK    4  A    between atoms: C_18  and  O_19
REMARK    5  A    between atoms: C_21  and  C_22
REMARK    6  A    between atoms: C_25  and  C_32
REMARK                            x       y       z     vdW  Elec       q    Type
REMARK                         _______ _______ _______ _____ _____    ______ ____
ROOT
ATOM      1  N   UNL     1      34.826 -16.501 -22.615  0.00  0.00    -0.260 N 
ATOM      2  N   UNL     1      34.547 -16.801 -24.800  0.00  0.00    -0.393 NA
ATOM      3  C   UNL     1      34.087 -15.427 -23.041  0.00  0.00    +0.081 C 
ATOM      4  C   UNL     1      32.844 -13.400 -23.138  0.00  0.00    +0.046 C 
ATOM      5  C   UNL     1      33.926 -15.638 -24.408  0.00  0.00    +0.138 C 
ATOM      6  C   UNL     1      33.562 -14.322 -22.369  0.00  0.00    +0.031 C 
ATOM      7  C   UNL     1      35.074 -17.293 -23.701  0.00  0.00    +0.164 C 
ATOM      8  C   UNL     1      33.202 -14.701 -25.164  0.00  0.00    +0.175 C 
ATOM      9  C   UNL     1      32.666 -13.584 -24.511  0.00  0.00    +0.006 C 
ATOM     10  C   UNL     1      35.851 -18.546 -23.599  0.00  0.00    +0.084 C 
ENDROOT
BRANCH   4  12
ATOM     11  O   UNL     1      31.450  -9.952 -21.178  0.00  0.00    -0.350 OA
ATOM     12  N   UNL     1      32.296 -12.272 -22.518  0.00  0.00    -0.303 N 
ATOM     13  C   UNL     1      31.890 -12.337 -21.110  0.00  0.00    +0.123 C 
ATOM     14  C   UNL     1      32.722 -10.948 -22.986  0.00  0.00    +0.123 C 
ATOM     15  C   UNL     1      30.902 -11.216 -20.806  0.00  0.00    +0.164 C 
ATOM     16  C   UNL     1      31.689  -9.901 -22.584  0.00  0.00    +0.164 C 
ENDBRANCH   4  12
BRANCH   8  18
ATOM     17  O   UNL     1      33.455 -14.145 -27.477  0.00  0.00    -0.249 OA
ATOM     18  C   UNL     1      33.010 -14.885 -26.592  0.00  0.00    +0.324 C 
BRANCH  18  19
ATOM     19  O   UNL     1      32.266 -15.989 -26.883  0.00  0.00    -0.480 OA
ATOM     20  H   UNL     1      31.565 -15.932 -27.502  0.00  0.00    +0.295 HD
ENDBRANCH  18  19
ENDBRANCH   8  18
BRANCH   1  21
ATOM     21  C   UNL     1      35.260 -16.748 -21.259  0.00  0.00    +0.124 C 
BRANCH  21  22
ATOM     22  C   UNL     1      35.335 -18.214 -20.913  0.00  0.00    -0.006 C 
ATOM     23  C   UNL     1      34.179 -18.960 -20.686  0.00  0.00    -0.020 C 
ATOM     24  C   UNL     1      36.587 -18.823 -20.821  0.00  0.00    -0.003 C 
ATOM     25  C   UNL     1      34.274 -20.315 -20.368  0.00  0.00    +0.067 C 
ATOM     26  C   UNL     1      32.836 -18.306 -20.785  0.00  0.00    +0.031 C 
ATOM     27  C   UNL     1      36.682 -20.178 -20.502  0.00  0.00    -0.000 C 
ATOM     28  C   UNL     1      35.525 -20.923 -20.276  0.00  0.00    +0.004 C 
BRANCH  25  32
ATOM     29  F   UNL     1      32.160 -21.070 -21.153  0.00  0.00    -0.166 F 
ATOM     30  F   UNL     1      33.310 -22.463 -19.942  0.00  0.00    -0.166 F 
ATOM     31  F   UNL     1      32.353 -20.754 -19.010  0.00  0.00    -0.166 F 
ATOM     32  C   UNL     1      33.049 -21.136 -20.121  0.00  0.00    +0.418 C 
ENDBRANCH  25  32
ENDBRANCH  21  22
ENDBRANCH   1  21
TORSDOF 6
ENDMDL
