MODEL 1
REMARK VINA RESULT:     -10.3      0.000      0.000
REMARK  Name = 46937071
REMARK  11 active torsions:
REMARK  status: ('A' for Active; 'I' for Inactive)
REMARK    1  A    between atoms: C_1  and  O_2
REMARK    2  A    between atoms: C_1  and  N_4
REMARK    3  A    between atoms: C_1  and  C_18
REMARK    4  A    between atoms: N_4  and  C_6
REMARK    5  A    between atoms: C_9  and  C_15
REMARK    6  A    between atoms: C_11  and  C_17
REMARK    7  A    between atoms: C_18  and  O_20
REMARK    8  A    between atoms: C_18  and  C_22
REMARK    9  A    between atoms: C_22  and  O_23
REMARK   10  A    between atoms: O_23  and  C_24
REMARK   11  A    between atoms: C_29  and  N_32
REMARK                            x       y       z     vdW  Elec       q    Type
REMARK                         _______ _______ _______ _____ _____    ______ ____
ROOT
ATOM      1  C   UNL     1      34.840 -15.313 -22.882  0.00  0.00    +0.214 C 
ENDROOT
BRANCH   1   2
ATOM      2  O   UNL     1      35.490 -16.179 -23.810  0.00  0.00    -0.365 OA
ATOM      3  H   UNL     1      35.104 -16.058 -24.691  0.00  0.00    +0.212 HD
ENDBRANCH   1   2
BRANCH   1   4
ATOM      4  N   UNL     1      33.661 -14.715 -23.492  0.00  0.00    -0.310 N 
ATOM      5  H   UNL     1      33.103 -15.286 -24.067  0.00  0.00    +0.149 HD
BRANCH   4   6
ATOM      6  C   UNL     1      33.272 -13.395 -23.317  0.00  0.00    +0.046 C 
ATOM      7  C   UNL     1      32.530 -13.027 -22.195  0.00  0.00    +0.019 C 
ATOM      8  C   UNL     1      33.623 -12.434 -24.267  0.00  0.00    +0.015 C 
ATOM      9  C   UNL     1      32.139 -11.700 -22.021  0.00  0.00    +0.082 C 
ATOM     10  C   UNL     1      33.231 -11.106 -24.093  0.00  0.00    +0.011 C 
ATOM     11  C   UNL     1      32.490 -10.739 -22.970  0.00  0.00    +0.072 C 
BRANCH   9  15
ATOM     12  F   UNL     1      31.513 -12.236 -19.791  0.00  0.00    -0.166 F 
ATOM     13  F   UNL     1      31.666 -10.124 -20.285  0.00  0.00    -0.166 F 
ATOM     14  F   UNL     1      29.999 -11.292 -21.033  0.00  0.00    -0.166 F 
ATOM     15  C   UNL     1      31.343 -11.342 -20.806  0.00  0.00    +0.419 C 
ENDBRANCH   9  15
BRANCH  11  17
ATOM     16  N   UNL     1      31.784  -8.261 -22.687  0.00  0.00    -0.191 NA
ATOM     17  C   UNL     1      32.100  -9.371 -22.814  0.00  0.00    +0.100 C 
ENDBRANCH  11  17
ENDBRANCH   4   6
ENDBRANCH   1   4
BRANCH   1  18
ATOM     18  C   UNL     1      34.468 -16.109 -21.602  0.00  0.00    +0.171 C 
ATOM     19  C   UNL     1      34.662 -15.229 -20.358  0.00  0.00    +0.038 C 
BRANCH  18  20
ATOM     20  O   UNL     1      33.077 -16.447 -21.637  0.00  0.00    -0.379 OA
ATOM     21  H   UNL     1      32.547 -15.635 -21.604  0.00  0.00    +0.211 HD
ENDBRANCH  18  20
BRANCH  18  22
ATOM     22  C   UNL     1      35.275 -17.410 -21.451  0.00  0.00    +0.236 C 
BRANCH  22  23
ATOM     23  O   UNL     1      34.512 -18.534 -21.863  0.00  0.00    -0.473 OA
BRANCH  23  24
ATOM     24  C   UNL     1      34.470 -19.603 -21.005  0.00  0.00    +0.139 C 
ATOM     25  C   UNL     1      33.243 -20.078 -20.543  0.00  0.00    +0.039 C 
ATOM     26  C   UNL     1      35.654 -20.214 -20.593  0.00  0.00    +0.039 C 
ATOM     27  C   UNL     1      33.200 -21.165 -19.669  0.00  0.00    +0.027 C 
ATOM     28  C   UNL     1      35.612 -21.300 -19.720  0.00  0.00    +0.027 C 
ATOM     29  C   UNL     1      34.385 -21.776 -19.257  0.00  0.00    +0.143 C 
BRANCH  29  32
ATOM     30  O   UNL     1      34.980 -22.824 -17.291  0.00  0.00    -0.126 OA
ATOM     31  O   UNL     1      33.664 -23.891 -18.687  0.00  0.00    -0.126 OA
ATOM     32  N   UNL     1      34.341 -22.883 -18.369  0.00  0.00    +0.058 N 
ENDBRANCH  29  32
ENDBRANCH  23  24
ENDBRANCH  22  23
ENDBRANCH  18  22
ENDBRANCH   1  18
TORSDOF 11
ENDMDL
MODEL 2
REMARK VINA RESULT:     -10.1      5.260     10.363
REMARK  Name = 46937071
REMARK  11 active torsions:
REMARK  status: ('A' for Active; 'I' for Inactive)
REMARK    1  A    between atoms: C_1  and  O_2
REMARK    2  A    between atoms: C_1  and  N_4
REMARK    3  A    between atoms: C_1  and  C_18
REMARK    4  A    between atoms: N_4  and  C_6
REMARK    5  A    between atoms: C_9  and  C_15
REMARK    6  A    between atoms: C_11  and  C_17
REMARK    7  A    between atoms: C_18  and  O_20
REMARK    8  A    between atoms: C_18  and  C_22
REMARK    9  A    between atoms: C_22  and  O_23
REMARK   10  A    between atoms: O_23  and  C_24
REMARK   11  A    between atoms: C_29  and  N_32
REMARK                            x       y       z     vdW  Elec       q    Type
REMARK                         _______ _______ _______ _____ _____    ______ ____
ROOT
ATOM      1  C   UNL     1      33.696 -21.483 -19.120  0.00  0.00    +0.214 C 
ENDROOT
BRANCH   1   2
ATOM      2  O   UNL     1      32.997 -20.898 -20.217  0.00  0.00    -0.365 OA
ATOM      3  H   UNL     1      33.608 -20.771 -20.959  0.00  0.00    +0.212 HD
ENDBRANCH   1   2
BRANCH   1   4
ATOM      4  N   UNL     1      33.034 -22.708 -18.695  0.00  0.00    -0.310 N 
ATOM      5  H   UNL     1      32.941 -23.431 -19.356  0.00  0.00    +0.149 HD
BRANCH   4   6
ATOM      6  C   UNL     1      32.526 -22.925 -17.423  0.00  0.00    +0.046 C 
ATOM      7  C   UNL     1      31.166 -22.740 -17.173  0.00  0.00    +0.019 C 
ATOM      8  C   UNL     1      33.376 -23.329 -16.393  0.00  0.00    +0.015 C 
ATOM      9  C   UNL     1      30.656 -22.958 -15.894  0.00  0.00    +0.082 C 
ATOM     10  C   UNL     1      32.865 -23.547 -15.113  0.00  0.00    +0.011 C 
ATOM     11  C   UNL     1      31.506 -23.362 -14.863  0.00  0.00    +0.072 C 
BRANCH   9  15
ATOM     12  F   UNL     1      28.547 -22.311 -16.779  0.00  0.00    -0.166 F 
ATOM     13  F   UNL     1      28.538 -23.878 -15.273  0.00  0.00    -0.166 F 
ATOM     14  F   UNL     1      28.924 -21.824 -14.695  0.00  0.00    -0.166 F 
ATOM     15  C   UNL     1      29.194 -22.748 -15.662  0.00  0.00    +0.419 C 
ENDBRANCH   9  15
BRANCH  11  17
ATOM     16  N   UNL     1      30.601 -23.778 -12.470  0.00  0.00    -0.191 NA
ATOM     17  C   UNL     1      31.006 -23.592 -13.542  0.00  0.00    +0.100 C 
ENDBRANCH  11  17
ENDBRANCH   4   6
ENDBRANCH   1   4
BRANCH   1  18
ATOM     18  C   UNL     1      35.170 -21.752 -19.528  0.00  0.00    +0.171 C 
ATOM     19  C   UNL     1      36.084 -21.663 -18.297  0.00  0.00    +0.038 C 
BRANCH  18  20
ATOM     20  O   UNL     1      35.292 -23.092 -20.018  0.00  0.00    -0.379 OA
ATOM     21  H   UNL     1      35.469 -23.073 -20.971  0.00  0.00    +0.211 HD
ENDBRANCH  18  20
BRANCH  18  22
ATOM     22  C   UNL     1      35.672 -20.793 -20.621  0.00  0.00    +0.236 C 
BRANCH  22  23
ATOM     23  O   UNL     1      35.293 -19.454 -20.337  0.00  0.00    -0.473 OA
BRANCH  23  24
ATOM     24  C   UNL     1      35.065 -18.634 -21.412  0.00  0.00    +0.139 C 
ATOM     25  C   UNL     1      34.927 -17.258 -21.223  0.00  0.00    +0.039 C 
ATOM     26  C   UNL     1      34.969 -19.173 -22.695  0.00  0.00    +0.039 C 
ATOM     27  C   UNL     1      34.694 -16.423 -22.315  0.00  0.00    +0.027 C 
ATOM     28  C   UNL     1      34.735 -18.339 -23.787  0.00  0.00    +0.027 C 
ATOM     29  C   UNL     1      34.598 -16.964 -23.598  0.00  0.00    +0.143 C 
BRANCH  29  32
ATOM     30  O   UNL     1      34.660 -16.519 -25.860  0.00  0.00    -0.126 OA
ATOM     31  O   UNL     1      33.861 -14.980 -24.514  0.00  0.00    -0.126 OA
ATOM     32  N   UNL     1      34.362 -16.114 -24.710  0.00  0.00    +0.058 N 
ENDBRANCH  29  32
ENDBRANCH  23  24
ENDBRANCH  22  23
ENDBRANCH  18  22
ENDBRANCH   1  18
TORSDOF 11
ENDMDL
MODEL 3
REMARK VINA RESULT:     -10.1      0.932      1.791
REMARK  Name = 46937071
REMARK  11 active torsions:
REMARK  status: ('A' for Active; 'I' for Inactive)
REMARK    1  A    between atoms: C_1  and  O_2
REMARK    2  A    between atoms: C_1  and  N_4
REMARK    3  A    between atoms: C_1  and  C_18
REMARK    4  A    between atoms: N_4  and  C_6
REMARK    5  A    between atoms: C_9  and  C_15
REMARK    6  A    between atoms: C_11  and  C_17
REMARK    7  A    between atoms: C_18  and  O_20
REMARK    8  A    between atoms: C_18  and  C_22
REMARK    9  A    between atoms: C_22  and  O_23
REMARK   10  A    between atoms: O_23  and  C_24
REMARK   11  A    between atoms: C_29  and  N_32
REMARK                            x       y       z     vdW  Elec       q    Type
REMARK                         _______ _______ _______ _____ _____    ______ ____
ROOT
ATOM      1  C   UNL     1      33.807 -15.554 -23.076  0.00  0.00    +0.214 C 
ENDROOT
BRANCH   1   2
ATOM      2  O   UNL     1      34.591 -15.010 -22.015  0.00  0.00    -0.365 OA
ATOM      3  H   UNL     1      34.400 -15.490 -21.194  0.00  0.00    +0.212 HD
ENDBRANCH   1   2
BRANCH   1   4
ATOM      4  N   UNL     1      33.393 -14.498 -23.989  0.00  0.00    -0.310 N 
ATOM      5  H   UNL     1      33.301 -14.727 -24.942  0.00  0.00    +0.149 HD
BRANCH   4   6
ATOM      6  C   UNL     1      33.120 -13.193 -23.608  0.00  0.00    +0.046 C 
ATOM      7  C   UNL     1      32.397 -12.942 -22.442  0.00  0.00    +0.019 C 
ATOM      8  C   UNL     1      33.570 -12.130 -24.393  0.00  0.00    +0.015 C 
ATOM      9  C   UNL     1      32.123 -11.629 -22.060  0.00  0.00    +0.082 C 
ATOM     10  C   UNL     1      33.295 -10.817 -24.010  0.00  0.00    +0.011 C 
ATOM     11  C   UNL     1      32.572 -10.566 -22.844  0.00  0.00    +0.072 C 
BRANCH   9  15
ATOM     12  F   UNL     1      31.479 -12.419 -19.912  0.00  0.00    -0.166 F 
ATOM     13  F   UNL     1      31.715 -10.269 -20.135  0.00  0.00    -0.166 F 
ATOM     14  F   UNL     1      30.002 -11.268 -21.014  0.00  0.00    -0.166 F 
ATOM     15  C   UNL     1      31.343 -11.398 -20.805  0.00  0.00    +0.419 C 
ENDBRANCH   9  15
BRANCH  11  17
ATOM     16  N   UNL     1      32.085  -8.111 -22.173  0.00  0.00    -0.191 NA
ATOM     17  C   UNL     1      32.303  -9.211 -22.473  0.00  0.00    +0.100 C 
ENDBRANCH  11  17
ENDBRANCH   4   6
ENDBRANCH   1   4
BRANCH   1  18
ATOM     18  C   UNL     1      34.622 -16.650 -23.814  0.00  0.00    +0.171 C 
ATOM     19  C   UNL     1      34.222 -16.696 -25.297  0.00  0.00    +0.038 C 
BRANCH  18  20
ATOM     20  O   UNL     1      36.013 -16.308 -23.788  0.00  0.00    -0.379 OA
ATOM     21  H   UNL     1      36.525 -17.065 -23.465  0.00  0.00    +0.211 HD
ENDBRANCH  18  20
BRANCH  18  22
ATOM     22  C   UNL     1      34.457 -18.043 -23.185  0.00  0.00    +0.236 C 
BRANCH  22  23
ATOM     23  O   UNL     1      34.238 -17.948 -21.786  0.00  0.00    -0.473 OA
BRANCH  23  24
ATOM     24  C   UNL     1      34.281 -19.117 -21.070  0.00  0.00    +0.139 C 
ATOM     25  C   UNL     1      35.509 -19.716 -20.786  0.00  0.00    +0.039 C 
ATOM     26  C   UNL     1      33.098 -19.709 -20.627  0.00  0.00    +0.039 C 
ATOM     27  C   UNL     1      35.554 -20.905 -20.059  0.00  0.00    +0.027 C 
ATOM     28  C   UNL     1      33.142 -20.898 -19.901  0.00  0.00    +0.027 C 
ATOM     29  C   UNL     1      34.370 -21.497 -19.617  0.00  0.00    +0.143 C 
BRANCH  29  32
ATOM     30  O   UNL     1      33.891 -23.739 -19.362  0.00  0.00    -0.126 OA
ATOM     31  O   UNL     1      34.978 -22.713 -17.754  0.00  0.00    -0.126 OA
ATOM     32  N   UNL     1      34.415 -22.707 -18.876  0.00  0.00    +0.058 N 
ENDBRANCH  29  32
ENDBRANCH  23  24
ENDBRANCH  22  23
ENDBRANCH  18  22
ENDBRANCH   1  18
TORSDOF 11
ENDMDL
MODEL 4
REMARK VINA RESULT:     -10.0      8.284     10.972
REMARK  Name = 46937071
REMARK  11 active torsions:
REMARK  status: ('A' for Active; 'I' for Inactive)
REMARK    1  A    between atoms: C_1  and  O_2
REMARK    2  A    between atoms: C_1  and  N_4
REMARK    3  A    between atoms: C_1  and  C_18
REMARK    4  A    between atoms: N_4  and  C_6
REMARK    5  A    between atoms: C_9  and  C_15
REMARK    6  A    between atoms: C_11  and  C_17
REMARK    7  A    between atoms: C_18  and  O_20
REMARK    8  A    between atoms: C_18  and  C_22
REMARK    9  A    between atoms: C_22  and  O_23
REMARK   10  A    between atoms: O_23  and  C_24
REMARK   11  A    between atoms: C_29  and  N_32
REMARK                            x       y       z     vdW  Elec       q    Type
REMARK                         _______ _______ _______ _____ _____    ______ ____
ROOT
ATOM      1  C   UNL     1      35.714 -23.246 -13.429  0.00  0.00    +0.214 C 
ENDROOT
BRANCH   1   2
ATOM      2  O   UNL     1      36.260 -22.766 -12.201  0.00  0.00    -0.365 OA
ATOM      3  H   UNL     1      35.603 -22.215 -11.749  0.00  0.00    +0.212 HD
ENDBRANCH   1   2
BRANCH   1   4
ATOM      4  N   UNL     1      36.709 -23.167 -14.489  0.00  0.00    -0.310 N 
ATOM      5  H   UNL     1      37.614 -23.499 -14.293  0.00  0.00    +0.149 HD
BRANCH   4   6
ATOM      6  C   UNL     1      36.467 -22.655 -15.755  0.00  0.00    +0.046 C 
ATOM      7  C   UNL     1      35.297 -22.993 -16.434  0.00  0.00    +0.019 C 
ATOM      8  C   UNL     1      37.396 -21.800 -16.349  0.00  0.00    +0.015 C 
ATOM      9  C   UNL     1      35.055 -22.477 -17.707  0.00  0.00    +0.082 C 
ATOM     10  C   UNL     1      37.154 -21.284 -17.623  0.00  0.00    +0.011 C 
ATOM     11  C   UNL     1      35.984 -21.623 -18.302  0.00  0.00    +0.072 C 
BRANCH   9  15
ATOM     12  F   UNL     1      33.121 -23.860 -17.760  0.00  0.00    -0.166 F 
ATOM     13  F   UNL     1      32.901 -21.837 -18.525  0.00  0.00    -0.166 F 
ATOM     14  F   UNL     1      33.989 -23.317 -19.677  0.00  0.00    -0.166 F 
ATOM     15  C   UNL     1      33.790 -22.863 -18.406  0.00  0.00    +0.419 C 
ENDBRANCH   9  15
BRANCH  11  17
ATOM     16  N   UNL     1      35.576 -20.642 -20.666  0.00  0.00    -0.191 NA
ATOM     17  C   UNL     1      35.758 -21.081 -19.607  0.00  0.00    +0.100 C 
ENDBRANCH  11  17
ENDBRANCH   4   6
ENDBRANCH   1   4
BRANCH   1  18
ATOM     18  C   UNL     1      35.210 -24.703 -13.237  0.00  0.00    +0.171 C 
ATOM     19  C   UNL     1      36.337 -25.697 -13.557  0.00  0.00    +0.038 C 
BRANCH  18  20
ATOM     20  O   UNL     1      34.871 -24.913 -11.862  0.00  0.00    -0.379 OA
ATOM     21  H   UNL     1      35.646 -25.251 -11.387  0.00  0.00    +0.211 HD
ENDBRANCH  18  20
BRANCH  18  22
ATOM     22  C   UNL     1      33.973 -25.024 -14.093  0.00  0.00    +0.236 C 
BRANCH  22  23
ATOM     23  O   UNL     1      32.782 -24.607 -13.443  0.00  0.00    -0.473 OA
BRANCH  23  24
ATOM     24  C   UNL     1      31.728 -24.254 -14.247  0.00  0.00    +0.139 C 
ATOM     25  C   UNL     1      31.775 -23.065 -14.975  0.00  0.00    +0.039 C 
ATOM     26  C   UNL     1      30.610 -25.082 -14.336  0.00  0.00    +0.039 C 
ATOM     27  C   UNL     1      30.703 -22.705 -15.793  0.00  0.00    +0.027 C 
ATOM     28  C   UNL     1      29.538 -24.723 -15.153  0.00  0.00    +0.027 C 
ATOM     29  C   UNL     1      29.584 -23.534 -15.881  0.00  0.00    +0.143 C 
BRANCH  29  32
ATOM     30  O   UNL     1      27.899 -24.061 -17.364  0.00  0.00    -0.126 OA
ATOM     31  O   UNL     1      28.155 -21.961 -16.777  0.00  0.00    -0.126 OA
ATOM     32  N   UNL     1      28.494 -23.168 -16.713  0.00  0.00    +0.058 N 
ENDBRANCH  29  32
ENDBRANCH  23  24
ENDBRANCH  22  23
ENDBRANCH  18  22
ENDBRANCH   1  18
TORSDOF 11
ENDMDL
MODEL 5
REMARK VINA RESULT:      -9.9      1.762      2.305
REMARK  Name = 46937071
REMARK  11 active torsions:
REMARK  status: ('A' for Active; 'I' for Inactive)
REMARK    1  A    between atoms: C_1  and  O_2
REMARK    2  A    between atoms: C_1  and  N_4
REMARK    3  A    between atoms: C_1  and  C_18
REMARK    4  A    between atoms: N_4  and  C_6
REMARK    5  A    between atoms: C_9  and  C_15
REMARK    6  A    between atoms: C_11  and  C_17
REMARK    7  A    between atoms: C_18  and  O_20
REMARK    8  A    between atoms: C_18  and  C_22
REMARK    9  A    between atoms: C_22  and  O_23
REMARK   10  A    between atoms: O_23  and  C_24
REMARK   11  A    between atoms: C_29  and  N_32
REMARK                            x       y       z     vdW  Elec       q    Type
REMARK                         _______ _______ _______ _____ _____    ______ ____
ROOT
ATOM      1  C   UNL     1      33.536 -14.705 -22.611  0.00  0.00    +0.214 C 
ENDROOT
BRANCH   1   2
ATOM      2  O   UNL     1      33.468 -15.393 -23.859  0.00  0.00    -0.365 OA
ATOM      3  H   UNL     1      34.364 -15.622 -24.151  0.00  0.00    +0.212 HD
ENDBRANCH   1   2
BRANCH   1   4
ATOM      4  N   UNL     1      32.272 -14.039 -22.332  0.00  0.00    -0.310 N 
ATOM      5  H   UNL     1      31.443 -14.512 -22.570  0.00  0.00    +0.149 HD
BRANCH   4   6
ATOM      6  C   UNL     1      32.158 -12.783 -21.755  0.00  0.00    +0.046 C 
ATOM      7  C   UNL     1      32.275 -11.638 -22.544  0.00  0.00    +0.019 C 
ATOM      8  C   UNL     1      31.925 -12.664 -20.384  0.00  0.00    +0.015 C 
ATOM      9  C   UNL     1      32.161 -10.375 -21.963  0.00  0.00    +0.082 C 
ATOM     10  C   UNL     1      31.810 -11.401 -19.803  0.00  0.00    +0.011 C 
ATOM     11  C   UNL     1      31.928 -10.257 -20.592  0.00  0.00    +0.072 C 
BRANCH   9  15
ATOM     12  F   UNL     1      31.117  -8.497 -22.980  0.00  0.00    -0.166 F 
ATOM     13  F   UNL     1      33.190  -8.256 -22.370  0.00  0.00    -0.166 F 
ATOM     14  F   UNL     1      32.707  -9.463 -24.105  0.00  0.00    -0.166 F 
ATOM     15  C   UNL     1      32.294  -9.171 -22.839  0.00  0.00    +0.419 C 
ENDBRANCH   9  15
BRANCH  11  17
ATOM     16  N   UNL     1      31.708  -7.931 -19.470  0.00  0.00    -0.191 NA
ATOM     17  C   UNL     1      31.807  -8.973 -19.973  0.00  0.00    +0.100 C 
ENDBRANCH  11  17
ENDBRANCH   4   6
ENDBRANCH   1   4
BRANCH   1  18
ATOM     18  C   UNL     1      33.902 -15.710 -21.485  0.00  0.00    +0.171 C 
ATOM     19  C   UNL     1      34.660 -14.988 -20.360  0.00  0.00    +0.038 C 
BRANCH  18  20
ATOM     20  O   UNL     1      32.703 -16.220 -20.893  0.00  0.00    -0.379 OA
ATOM     21  H   UNL     1      32.521 -15.743 -20.068  0.00  0.00    +0.211 HD
ENDBRANCH  18  20
BRANCH  18  22
ATOM     22  C   UNL     1      34.733 -16.901 -21.993  0.00  0.00    +0.236 C 
BRANCH  22  23
ATOM     23  O   UNL     1      33.910 -18.034 -22.223  0.00  0.00    -0.473 OA
BRANCH  23  24
ATOM     24  C   UNL     1      34.085 -19.107 -21.386  0.00  0.00    +0.139 C 
ATOM     25  C   UNL     1      32.977 -19.730 -20.810  0.00  0.00    +0.039 C 
ATOM     26  C   UNL     1      35.369 -19.574 -21.110  0.00  0.00    +0.039 C 
ATOM     27  C   UNL     1      33.154 -20.820 -19.959  0.00  0.00    +0.027 C 
ATOM     28  C   UNL     1      35.547 -20.664 -20.258  0.00  0.00    +0.027 C 
ATOM     29  C   UNL     1      34.439 -21.287 -19.682  0.00  0.00    +0.143 C 
BRANCH  29  32
ATOM     30  O   UNL     1      35.588 -22.396 -18.017  0.00  0.00    -0.126 OA
ATOM     31  O   UNL     1      33.806 -23.352 -18.872  0.00  0.00    -0.126 OA
ATOM     32  N   UNL     1      34.620 -22.397 -18.816  0.00  0.00    +0.058 N 
ENDBRANCH  29  32
ENDBRANCH  23  24
ENDBRANCH  22  23
ENDBRANCH  18  22
ENDBRANCH   1  18
TORSDOF 11
ENDMDL
MODEL 6
REMARK VINA RESULT:      -9.8      2.074      2.872
REMARK  Name = 46937071
REMARK  11 active torsions:
REMARK  status: ('A' for Active; 'I' for Inactive)
REMARK    1  A    between atoms: C_1  and  O_2
REMARK    2  A    between atoms: C_1  and  N_4
REMARK    3  A    between atoms: C_1  and  C_18
REMARK    4  A    between atoms: N_4  and  C_6
REMARK    5  A    between atoms: C_9  and  C_15
REMARK    6  A    between atoms: C_11  and  C_17
REMARK    7  A    between atoms: C_18  and  O_20
REMARK    8  A    between atoms: C_18  and  C_22
REMARK    9  A    between atoms: C_22  and  O_23
REMARK   10  A    between atoms: O_23  and  C_24
REMARK   11  A    between atoms: C_29  and  N_32
REMARK                            x       y       z     vdW  Elec       q    Type
REMARK                         _______ _______ _______ _____ _____    ______ ____
ROOT
ATOM      1  C   UNL     1      32.943 -14.890 -21.818  0.00  0.00    +0.214 C 
ENDROOT
BRANCH   1   2
ATOM      2  O   UNL     1      33.715 -14.530 -20.674  0.00  0.00    -0.365 OA
ATOM      3  H   UNL     1      34.164 -13.685 -20.839  0.00  0.00    +0.212 HD
ENDBRANCH   1   2
BRANCH   1   4
ATOM      4  N   UNL     1      31.920 -13.886 -22.072  0.00  0.00    -0.310 N 
ATOM      5  H   UNL     1      31.155 -14.144 -22.634  0.00  0.00    +0.149 HD
BRANCH   4   6
ATOM      6  C   UNL     1      31.950 -12.591 -21.576  0.00  0.00    +0.046 C 
ATOM      7  C   UNL     1      32.153 -11.516 -22.441  0.00  0.00    +0.019 C 
ATOM      8  C   UNL     1      31.778 -12.365 -20.209  0.00  0.00    +0.015 C 
ATOM      9  C   UNL     1      32.184 -10.214 -21.941  0.00  0.00    +0.082 C 
ATOM     10  C   UNL     1      31.809 -11.063 -19.709  0.00  0.00    +0.011 C 
ATOM     11  C   UNL     1      32.012  -9.988 -20.574  0.00  0.00    +0.072 C 
BRANCH   9  15
ATOM     12  F   UNL     1      33.482  -8.320 -22.559  0.00  0.00    -0.166 F 
ATOM     13  F   UNL     1      32.632  -9.497 -24.178  0.00  0.00    -0.166 F 
ATOM     14  F   UNL     1      31.350  -8.226 -22.975  0.00  0.00    -0.166 F 
ATOM     15  C   UNL     1      32.405  -9.086 -22.897  0.00  0.00    +0.419 C 
ENDBRANCH   9  15
BRANCH  11  17
ATOM     16  N   UNL     1      32.063  -7.586 -19.602  0.00  0.00    -0.191 NA
ATOM     17  C   UNL     1      32.040  -8.662 -20.037  0.00  0.00    +0.100 C 
ENDBRANCH  11  17
ENDBRANCH   4   6
ENDBRANCH   1   4
BRANCH   1  18
ATOM     18  C   UNL     1      33.881 -15.060 -23.044  0.00  0.00    +0.171 C 
ATOM     19  C   UNL     1      33.143 -14.662 -24.331  0.00  0.00    +0.038 C 
BRANCH  18  20
ATOM     20  O   UNL     1      34.988 -14.161 -22.925  0.00  0.00    -0.379 OA
ATOM     21  H   UNL     1      35.276 -14.124 -22.000  0.00  0.00    +0.211 HD
ENDBRANCH  18  20
BRANCH  18  22
ATOM     22  C   UNL     1      34.433 -16.489 -23.180  0.00  0.00    +0.236 C 
BRANCH  22  23
ATOM     23  O   UNL     1      35.234 -16.835 -22.060  0.00  0.00    -0.473 OA
BRANCH  23  24
ATOM     24  C   UNL     1      34.990 -18.051 -21.475  0.00  0.00    +0.139 C 
ATOM     25  C   UNL     1      33.677 -18.478 -21.273  0.00  0.00    +0.039 C 
ATOM     26  C   UNL     1      36.055 -18.862 -21.081  0.00  0.00    +0.039 C 
ATOM     27  C   UNL     1      33.429 -19.715 -20.679  0.00  0.00    +0.027 C 
ATOM     28  C   UNL     1      35.807 -20.098 -20.485  0.00  0.00    +0.027 C 
ATOM     29  C   UNL     1      34.494 -20.525 -20.284  0.00  0.00    +0.143 C 
BRANCH  29  32
ATOM     30  O   UNL     1      35.213 -22.477 -19.288  0.00  0.00    -0.126 OA
ATOM     31  O   UNL     1      33.055 -22.171 -19.551  0.00  0.00    -0.126 OA
ATOM     32  N   UNL     1      34.242 -21.784 -19.679  0.00  0.00    +0.058 N 
ENDBRANCH  29  32
ENDBRANCH  23  24
ENDBRANCH  22  23
ENDBRANCH  18  22
ENDBRANCH   1  18
TORSDOF 11
ENDMDL
MODEL 7
REMARK VINA RESULT:      -9.8      2.134      2.832
REMARK  Name = 46937071
REMARK  11 active torsions:
REMARK  status: ('A' for Active; 'I' for Inactive)
REMARK    1  A    between atoms: C_1  and  O_2
REMARK    2  A    between atoms: C_1  and  N_4
REMARK    3  A    between atoms: C_1  and  C_18
REMARK    4  A    between atoms: N_4  and  C_6
REMARK    5  A    between atoms: C_9  and  C_15
REMARK    6  A    between atoms: C_11  and  C_17
REMARK    7  A    between atoms: C_18  and  O_20
REMARK    8  A    between atoms: C_18  and  C_22
REMARK    9  A    between atoms: C_22  and  O_23
REMARK   10  A    between atoms: O_23  and  C_24
REMARK   11  A    between atoms: C_29  and  N_32
REMARK                            x       y       z     vdW  Elec       q    Type
REMARK                         _______ _______ _______ _____ _____    ______ ____
ROOT
ATOM      1  C   UNL     1      34.377 -16.844 -22.516  0.00  0.00    +0.214 C 
ENDROOT
BRANCH   1   2
ATOM      2  O   UNL     1      35.152 -16.502 -21.368  0.00  0.00    -0.365 OA
ATOM      3  H   UNL     1      35.969 -16.061 -21.650  0.00  0.00    +0.212 HD
ENDBRANCH   1   2
BRANCH   1   4
ATOM      4  N   UNL     1      34.321 -15.721 -23.440  0.00  0.00    -0.310 N 
ATOM      5  H   UNL     1      34.741 -15.834 -24.323  0.00  0.00    +0.149 HD
BRANCH   4   6
ATOM      6  C   UNL     1      33.717 -14.504 -23.161  0.00  0.00    +0.046 C 
ATOM      7  C   UNL     1      34.080 -13.364 -23.878  0.00  0.00    +0.019 C 
ATOM      8  C   UNL     1      32.746 -14.421 -22.162  0.00  0.00    +0.015 C 
ATOM      9  C   UNL     1      33.472 -12.140 -23.596  0.00  0.00    +0.082 C 
ATOM     10  C   UNL     1      32.139 -13.197 -21.881  0.00  0.00    +0.011 C 
ATOM     11  C   UNL     1      32.501 -12.057 -22.597  0.00  0.00    +0.072 C 
BRANCH   9  15
ATOM     12  F   UNL     1      32.821 -10.222 -24.841  0.00  0.00    -0.166 F 
ATOM     13  F   UNL     1      34.645 -10.057 -23.669  0.00  0.00    -0.166 F 
ATOM     14  F   UNL     1      34.629 -11.241 -25.487  0.00  0.00    -0.166 F 
ATOM     15  C   UNL     1      33.887 -10.938 -24.383  0.00  0.00    +0.419 C 
ENDBRANCH   9  15
BRANCH  11  17
ATOM     16  N   UNL     1      31.346  -9.805 -22.040  0.00  0.00    -0.191 NA
ATOM     17  C   UNL     1      31.864 -10.814 -22.290  0.00  0.00    +0.100 C 
ENDBRANCH  11  17
ENDBRANCH   4   6
ENDBRANCH   1   4
BRANCH   1  18
ATOM     18  C   UNL     1      34.982 -18.103 -23.194  0.00  0.00    +0.171 C 
ATOM     19  C   UNL     1      34.516 -18.190 -24.656  0.00  0.00    +0.038 C 
BRANCH  18  20
ATOM     20  O   UNL     1      36.408 -17.981 -23.238  0.00  0.00    -0.379 OA
ATOM     21  H   UNL     1      36.801 -18.849 -23.420  0.00  0.00    +0.211 HD
ENDBRANCH  18  20
BRANCH  18  22
ATOM     22  C   UNL     1      34.633 -19.406 -22.456  0.00  0.00    +0.236 C 
BRANCH  22  23
ATOM     23  O   UNL     1      35.491 -19.608 -21.344  0.00  0.00    -0.473 OA
BRANCH  23  24
ATOM     24  C   UNL     1      35.058 -20.478 -20.377  0.00  0.00    +0.139 C 
ATOM     25  C   UNL     1      33.692 -20.682 -20.183  0.00  0.00    +0.039 C 
ATOM     26  C   UNL     1      35.984 -21.159 -19.586  0.00  0.00    +0.039 C 
ATOM     27  C   UNL     1      33.251 -21.567 -19.199  0.00  0.00    +0.027 C 
ATOM     28  C   UNL     1      35.543 -22.043 -18.601  0.00  0.00    +0.027 C 
ATOM     29  C   UNL     1      34.177 -22.247 -18.407  0.00  0.00    +0.143 C 
BRANCH  29  32
ATOM     30  O   UNL     1      34.577 -23.767 -16.720  0.00  0.00    -0.126 OA
ATOM     31  O   UNL     1      32.494 -23.302 -17.234  0.00  0.00    -0.126 OA
ATOM     32  N   UNL     1      33.728 -23.148 -17.406  0.00  0.00    +0.058 N 
ENDBRANCH  29  32
ENDBRANCH  23  24
ENDBRANCH  22  23
ENDBRANCH  18  22
ENDBRANCH   1  18
TORSDOF 11
ENDMDL
MODEL 8
REMARK VINA RESULT:      -9.7      4.705      9.944
REMARK  Name = 46937071
REMARK  11 active torsions:
REMARK  status: ('A' for Active; 'I' for Inactive)
REMARK    1  A    between atoms: C_1  and  O_2
REMARK    2  A    between atoms: C_1  and  N_4
REMARK    3  A    between atoms: C_1  and  C_18
REMARK    4  A    between atoms: N_4  and  C_6
REMARK    5  A    between atoms: C_9  and  C_15
REMARK    6  A    between atoms: C_11  and  C_17
REMARK    7  A    between atoms: C_18  and  O_20
REMARK    8  A    between atoms: C_18  and  C_22
REMARK    9  A    between atoms: C_22  and  O_23
REMARK   10  A    between atoms: O_23  and  C_24
REMARK   11  A    between atoms: C_29  and  N_32
REMARK                            x       y       z     vdW  Elec       q    Type
REMARK                         _______ _______ _______ _____ _____    ______ ____
ROOT
ATOM      1  C   UNL     1      33.761 -16.138 -22.789  0.00  0.00    +0.214 C 
ENDROOT
BRANCH   1   2
ATOM      2  O   UNL     1      34.093 -15.963 -24.165  0.00  0.00    -0.365 OA
ATOM      3  H   UNL     1      34.048 -16.819 -24.620  0.00  0.00    +0.212 HD
ENDBRANCH   1   2
BRANCH   1   4
ATOM      4  N   UNL     1      34.740 -16.998 -22.139  0.00  0.00    -0.310 N 
ATOM      5  H   UNL     1      35.684 -16.726 -22.175  0.00  0.00    +0.149 HD
BRANCH   4   6
ATOM      6  C   UNL     1      34.430 -18.176 -21.474  0.00  0.00    +0.046 C 
ATOM      7  C   UNL     1      35.450 -19.021 -21.039  0.00  0.00    +0.019 C 
ATOM      8  C   UNL     1      33.096 -18.514 -21.242  0.00  0.00    +0.015 C 
ATOM      9  C   UNL     1      35.138 -20.205 -20.370  0.00  0.00    +0.082 C 
ATOM     10  C   UNL     1      32.784 -19.699 -20.574  0.00  0.00    +0.011 C 
ATOM     11  C   UNL     1      33.804 -20.544 -20.138  0.00  0.00    +0.072 C 
BRANCH   9  15
ATOM     12  F   UNL     1      37.474 -20.648 -20.350  0.00  0.00    -0.166 F 
ATOM     13  F   UNL     1      36.358 -21.186 -18.563  0.00  0.00    -0.166 F 
ATOM     14  F   UNL     1      36.150 -22.372 -20.366  0.00  0.00    -0.166 F 
ATOM     15  C   UNL     1      36.257 -21.088 -19.919  0.00  0.00    +0.419 C 
ENDBRANCH   9  15
BRANCH  11  17
ATOM     16  N   UNL     1      33.179 -22.734 -18.901  0.00  0.00    -0.191 NA
ATOM     17  C   UNL     1      33.459 -21.752 -19.455  0.00  0.00    +0.100 C 
ENDBRANCH  11  17
ENDBRANCH   4   6
ENDBRANCH   1   4
BRANCH   1  18
ATOM     18  C   UNL     1      33.683 -14.751 -22.094  0.00  0.00    +0.171 C 
ATOM     19  C   UNL     1      33.439 -14.929 -20.588  0.00  0.00    +0.038 C 
BRANCH  18  20
ATOM     20  O   UNL     1      34.944 -14.084 -22.218  0.00  0.00    -0.379 OA
ATOM     21  H   UNL     1      34.830 -13.273 -22.738  0.00  0.00    +0.211 HD
ENDBRANCH  18  20
BRANCH  18  22
ATOM     22  C   UNL     1      32.596 -13.843 -22.695  0.00  0.00    +0.236 C 
BRANCH  22  23
ATOM     23  O   UNL     1      31.741 -13.333 -21.683  0.00  0.00    -0.473 OA
BRANCH  23  24
ATOM     24  C   UNL     1      31.824 -11.989 -21.420  0.00  0.00    +0.139 C 
ATOM     25  C   UNL     1      32.089 -11.092 -22.455  0.00  0.00    +0.039 C 
ATOM     26  C   UNL     1      31.644 -11.520 -20.119  0.00  0.00    +0.039 C 
ATOM     27  C   UNL     1      32.173  -9.725 -22.188  0.00  0.00    +0.027 C 
ATOM     28  C   UNL     1      31.729 -10.154 -19.852  0.00  0.00    +0.027 C 
ATOM     29  C   UNL     1      31.994  -9.256 -20.886  0.00  0.00    +0.143 C 
BRANCH  29  32
ATOM     30  O   UNL     1      32.576  -7.487 -19.527  0.00  0.00    -0.126 OA
ATOM     31  O   UNL     1      31.653  -7.051 -21.470  0.00  0.00    -0.126 OA
ATOM     32  N   UNL     1      32.079  -7.865 -20.615  0.00  0.00    +0.058 N 
ENDBRANCH  29  32
ENDBRANCH  23  24
ENDBRANCH  22  23
ENDBRANCH  18  22
ENDBRANCH   1  18
TORSDOF 11
ENDMDL
MODEL 9
REMARK VINA RESULT:      -9.7      4.157      9.624
REMARK  Name = 46937071
REMARK  11 active torsions:
REMARK  status: ('A' for Active; 'I' for Inactive)
REMARK    1  A    between atoms: C_1  and  O_2
REMARK    2  A    between atoms: C_1  and  N_4
REMARK    3  A    between atoms: C_1  and  C_18
REMARK    4  A    between atoms: N_4  and  C_6
REMARK    5  A    between atoms: C_9  and  C_15
REMARK    6  A    between atoms: C_11  and  C_17
REMARK    7  A    between atoms: C_18  and  O_20
REMARK    8  A    between atoms: C_18  and  C_22
REMARK    9  A    between atoms: C_22  and  O_23
REMARK   10  A    between atoms: O_23  and  C_24
REMARK   11  A    between atoms: C_29  and  N_32
REMARK                            x       y       z     vdW  Elec       q    Type
REMARK                         _______ _______ _______ _____ _____    ______ ____
ROOT
ATOM      1  C   UNL     1      33.943 -16.273 -23.283  0.00  0.00    +0.214 C 
ENDROOT
BRANCH   1   2
ATOM      2  O   UNL     1      33.919 -15.856 -24.647  0.00  0.00    -0.365 OA
ATOM      3  H   UNL     1      34.432 -16.480 -25.185  0.00  0.00    +0.212 HD
ENDBRANCH   1   2
BRANCH   1   4
ATOM      4  N   UNL     1      35.180 -16.985 -22.995  0.00  0.00    -0.310 N 
ATOM      5  H   UNL     1      35.998 -16.685 -23.451  0.00  0.00    +0.149 HD
BRANCH   4   6
ATOM      6  C   UNL     1      35.282 -18.058 -22.121  0.00  0.00    +0.046 C 
ATOM      7  C   UNL     1      34.141 -18.767 -21.750  0.00  0.00    +0.019 C 
ATOM      8  C   UNL     1      36.529 -18.426 -21.614  0.00  0.00    +0.015 C 
ATOM      9  C   UNL     1      34.245 -19.846 -20.871  0.00  0.00    +0.082 C 
ATOM     10  C   UNL     1      36.633 -19.504 -20.735  0.00  0.00    +0.011 C 
ATOM     11  C   UNL     1      35.491 -20.214 -20.364  0.00  0.00    +0.072 C 
BRANCH   9  15
ATOM     12  F   UNL     1      31.976 -20.357 -21.365  0.00  0.00    -0.166 F 
ATOM     13  F   UNL     1      33.161 -21.936 -20.454  0.00  0.00    -0.166 F 
ATOM     14  F   UNL     1      32.518 -20.241 -19.263  0.00  0.00    -0.166 F 
ATOM     15  C   UNL     1      33.000 -20.583 -20.493  0.00  0.00    +0.419 C 
ENDBRANCH   9  15
BRANCH  11  17
ATOM     16  N   UNL     1      35.731 -22.211 -18.729  0.00  0.00    -0.191 NA
ATOM     17  C   UNL     1      35.624 -21.316 -19.461  0.00  0.00    +0.100 C 
ENDBRANCH  11  17
ENDBRANCH   4   6
ENDBRANCH   1   4
BRANCH   1  18
ATOM     18  C   UNL     1      33.778 -15.035 -22.360  0.00  0.00    +0.171 C 
ATOM     19  C   UNL     1      32.937 -15.404 -21.129  0.00  0.00    +0.038 C 
BRANCH  18  20
ATOM     20  O   UNL     1      35.061 -14.638 -21.861  0.00  0.00    -0.379 OA
ATOM     21  H   UNL     1      35.725 -15.296 -22.120  0.00  0.00    +0.211 HD
ENDBRANCH  18  20
BRANCH  18  22
ATOM     22  C   UNL     1      33.149 -13.831 -23.081  0.00  0.00    +0.236 C 
BRANCH  22  23
ATOM     23  O   UNL     1      31.984 -13.384 -22.404  0.00  0.00    -0.473 OA
BRANCH  23  24
ATOM     24  C   UNL     1      31.974 -12.078 -21.984  0.00  0.00    +0.139 C 
ATOM     25  C   UNL     1      32.409 -11.067 -22.842  0.00  0.00    +0.039 C 
ATOM     26  C   UNL     1      31.531 -11.761 -20.700  0.00  0.00    +0.039 C 
ATOM     27  C   UNL     1      32.399  -9.739 -22.415  0.00  0.00    +0.027 C 
ATOM     28  C   UNL     1      31.522 -10.433 -20.273  0.00  0.00    +0.027 C 
ATOM     29  C   UNL     1      31.956  -9.422 -21.130  0.00  0.00    +0.143 C 
BRANCH  29  32
ATOM     30  O   UNL     1      31.625  -7.172 -21.512  0.00  0.00    -0.126 OA
ATOM     31  O   UNL     1      32.257  -7.810 -19.509  0.00  0.00    -0.126 OA
ATOM     32  N   UNL     1      31.945  -8.070 -20.697  0.00  0.00    +0.058 N 
ENDBRANCH  29  32
ENDBRANCH  23  24
ENDBRANCH  22  23
ENDBRANCH  18  22
ENDBRANCH   1  18
TORSDOF 11
ENDMDL
