MODEL 1
REMARK VINA RESULT:      -8.1      0.000      0.000
REMARK  Name = 4906
REMARK  5 active torsions:
REMARK  status: ('A' for Active; 'I' for Inactive)
REMARK    1  A    between atoms: N_2  and  C_5
REMARK    2  A    between atoms: C_3  and  C_12
REMARK    3  A    between atoms: C_12  and  N_14
REMARK    4  A    between atoms: N_14  and  C_17
REMARK    5  A    between atoms: C_17  and  C_18
REMARK                            x       y       z     vdW  Elec       q    Type
REMARK                         _______ _______ _______ _____ _____    ______ ____
ROOT
ATOM      1  O   UNL     1      35.349 -16.942 -20.388  0.00  0.00    -0.277 OA
ATOM      2  N   UNL     1      35.250 -18.868 -21.726  0.00  0.00    -0.286 N 
ATOM      3  C   UNL     1      35.322 -17.499 -21.483  0.00  0.00    +0.206 C 
ATOM      4  H   UNL     1      35.227 -19.141 -22.673  0.00  0.00    +0.155 HD
ENDROOT
BRANCH   2   5
ATOM      5  C   UNL     1      35.206 -19.914 -20.774  0.00  0.00    +0.046 C 
ATOM      6  C   UNL     1      33.988 -20.422 -20.351  0.00  0.00    -0.008 C 
ATOM      7  C   UNL     1      36.403 -20.409 -20.280  0.00  0.00    +0.014 C 
ATOM      8  C   UNL     1      33.966 -21.452 -19.412  0.00  0.00    -0.003 C 
ATOM      9  C   UNL     1      32.691 -19.897 -20.876  0.00  0.00    +0.032 C 
ATOM     10  C   UNL     1      36.381 -21.439 -19.339  0.00  0.00    +0.001 C 
ATOM     11  C   UNL     1      35.162 -21.961 -18.905  0.00  0.00    -0.000 C 
ENDBRANCH   2   5
BRANCH   3  12
ATOM     12  C   UNL     1      35.350 -16.704 -22.786  0.00  0.00    +0.017 C 
ATOM     13  C   UNL     1      34.517 -17.371 -23.873  0.00  0.00    -0.014 C 
BRANCH  12  14
ATOM     14  N   UNL     1      34.798 -15.385 -22.486  0.00  0.00    +0.391 N 
ATOM     15  H   UNL     1      35.364 -14.673 -22.949  0.00  0.00    -0.084 HD
ATOM     16  H   UNL     1      34.811 -15.248 -21.476  0.00  0.00    -0.084 HD
BRANCH  14  17
ATOM     17  C   UNL     1      33.424 -15.282 -22.953  0.00  0.00    -0.081 C 
BRANCH  17  18
ATOM     18  C   UNL     1      32.626 -14.348 -22.047  0.00  0.00    -0.023 C 
ATOM     19  C   UNL     1      32.698 -14.791 -20.593  0.00  0.00    -0.002 C 
ENDBRANCH  17  18
ENDBRANCH  14  17
ENDBRANCH  12  14
ENDBRANCH   3  12
TORSDOF 5
ENDMDL
MODEL 2
REMARK VINA RESULT:      -8.0      1.122      2.368
REMARK  Name = 4906
REMARK  5 active torsions:
REMARK  status: ('A' for Active; 'I' for Inactive)
REMARK    1  A    between atoms: N_2  and  C_5
REMARK    2  A    between atoms: C_3  and  C_12
REMARK    3  A    between atoms: C_12  and  N_14
REMARK    4  A    between atoms: N_14  and  C_17
REMARK    5  A    between atoms: C_17  and  C_18
REMARK                            x       y       z     vdW  Elec       q    Type
REMARK                         _______ _______ _______ _____ _____    ______ ____
ROOT
ATOM      1  O   UNL     1      35.289 -16.754 -20.346  0.00  0.00    -0.277 OA
ATOM      2  N   UNL     1      34.771 -18.625 -21.666  0.00  0.00    -0.286 N 
ATOM      3  C   UNL     1      34.915 -17.267 -21.398  0.00  0.00    +0.206 C 
ATOM      4  H   UNL     1      34.448 -18.859 -22.566  0.00  0.00    +0.155 HD
ENDROOT
BRANCH   2   5
ATOM      5  C   UNL     1      35.034 -19.710 -20.795  0.00  0.00    +0.046 C 
ATOM      6  C   UNL     1      33.988 -20.438 -20.251  0.00  0.00    -0.008 C 
ATOM      7  C   UNL     1      36.353 -20.019 -20.504  0.00  0.00    +0.014 C 
ATOM      8  C   UNL     1      34.267 -21.502 -19.395  0.00  0.00    -0.003 C 
ATOM      9  C   UNL     1      32.560 -20.114 -20.557  0.00  0.00    +0.032 C 
ATOM     10  C   UNL     1      36.633 -21.084 -19.647  0.00  0.00    +0.001 C 
ATOM     11  C   UNL     1      35.590 -21.825 -19.092  0.00  0.00    -0.000 C 
ENDBRANCH   2   5
BRANCH   3  12
ATOM     12  C   UNL     1      34.526 -16.419 -22.607  0.00  0.00    +0.017 C 
ATOM     13  C   UNL     1      34.559 -14.929 -22.287  0.00  0.00    -0.014 C 
BRANCH  12  14
ATOM     14  N   UNL     1      35.496 -16.715 -23.659  0.00  0.00    +0.391 N 
ATOM     15  H   UNL     1      35.898 -17.638 -23.492  0.00  0.00    -0.084 HD
ATOM     16  H   UNL     1      36.225 -16.001 -23.641  0.00  0.00    -0.084 HD
BRANCH  14  17
ATOM     17  C   UNL     1      34.861 -16.699 -24.967  0.00  0.00    -0.081 C 
BRANCH  17  18
ATOM     18  C   UNL     1      34.025 -17.961 -25.165  0.00  0.00    -0.023 C 
ATOM     19  C   UNL     1      34.832 -19.214 -24.860  0.00  0.00    -0.002 C 
ENDBRANCH  17  18
ENDBRANCH  14  17
ENDBRANCH  12  14
ENDBRANCH   3  12
TORSDOF 5
ENDMDL
MODEL 3
REMARK VINA RESULT:      -7.8      1.375      2.173
REMARK  Name = 4906
REMARK  5 active torsions:
REMARK  status: ('A' for Active; 'I' for Inactive)
REMARK    1  A    between atoms: N_2  and  C_5
REMARK    2  A    between atoms: C_3  and  C_12
REMARK    3  A    between atoms: C_12  and  N_14
REMARK    4  A    between atoms: N_14  and  C_17
REMARK    5  A    between atoms: C_17  and  C_18
REMARK                            x       y       z     vdW  Elec       q    Type
REMARK                         _______ _______ _______ _____ _____    ______ ____
ROOT
ATOM      1  O   UNL     1      34.946 -19.121 -23.991  0.00  0.00    -0.277 OA
ATOM      2  N   UNL     1      34.637 -18.212 -21.849  0.00  0.00    -0.286 N 
ATOM      3  C   UNL     1      34.859 -18.166 -23.223  0.00  0.00    +0.206 C 
ATOM      4  H   UNL     1      34.606 -17.344 -21.385  0.00  0.00    +0.155 HD
ENDROOT
BRANCH   2   5
ATOM      5  C   UNL     1      34.452 -19.360 -21.042  0.00  0.00    +0.046 C 
ATOM      6  C   UNL     1      35.545 -20.018 -20.502  0.00  0.00    -0.008 C 
ATOM      7  C   UNL     1      33.159 -19.802 -20.810  0.00  0.00    +0.014 C 
ATOM      8  C   UNL     1      35.342 -21.147 -19.710  0.00  0.00    -0.003 C 
ATOM      9  C   UNL     1      36.945 -19.550 -20.745  0.00  0.00    +0.032 C 
ATOM     10  C   UNL     1      32.955 -20.933 -20.017  0.00  0.00    +0.001 C 
ATOM     11  C   UNL     1      34.046 -21.605 -19.468  0.00  0.00    -0.000 C 
ENDBRANCH   2   5
BRANCH   3  12
ATOM     12  C   UNL     1      35.008 -16.728 -23.713  0.00  0.00    +0.017 C 
ATOM     13  C   UNL     1      34.214 -16.480 -24.990  0.00  0.00    -0.014 C 
BRANCH  12  14
ATOM     14  N   UNL     1      34.503 -15.865 -22.647  0.00  0.00    +0.391 N 
ATOM     15  H   UNL     1      35.267 -15.288 -22.294  0.00  0.00    -0.084 HD
ATOM     16  H   UNL     1      34.127 -16.453 -21.903  0.00  0.00    -0.084 HD
BRANCH  14  17
ATOM     17  C   UNL     1      33.441 -15.002 -23.141  0.00  0.00    -0.081 C 
BRANCH  17  18
ATOM     18  C   UNL     1      32.599 -14.480 -21.979  0.00  0.00    -0.023 C 
ATOM     19  C   UNL     1      32.713 -15.385 -20.762  0.00  0.00    -0.002 C 
ENDBRANCH  17  18
ENDBRANCH  14  17
ENDBRANCH  12  14
ENDBRANCH   3  12
TORSDOF 5
ENDMDL
MODEL 4
REMARK VINA RESULT:      -7.8      0.847      1.872
REMARK  Name = 4906
REMARK  5 active torsions:
REMARK  status: ('A' for Active; 'I' for Inactive)
REMARK    1  A    between atoms: N_2  and  C_5
REMARK    2  A    between atoms: C_3  and  C_12
REMARK    3  A    between atoms: C_12  and  N_14
REMARK    4  A    between atoms: N_14  and  C_17
REMARK    5  A    between atoms: C_17  and  C_18
REMARK                            x       y       z     vdW  Elec       q    Type
REMARK                         _______ _______ _______ _____ _____    ______ ____
ROOT
ATOM      1  O   UNL     1      34.997 -16.387 -20.584  0.00  0.00    -0.277 OA
ATOM      2  N   UNL     1      34.730 -18.196 -22.057  0.00  0.00    -0.286 N 
ATOM      3  C   UNL     1      34.948 -16.864 -21.715  0.00  0.00    +0.206 C 
ATOM      4  H   UNL     1      34.712 -18.401 -23.020  0.00  0.00    +0.155 HD
ENDROOT
BRANCH   2   5
ATOM      5  C   UNL     1      34.530 -19.290 -21.181  0.00  0.00    +0.046 C 
ATOM      6  C   UNL     1      35.616 -19.934 -20.611  0.00  0.00    -0.008 C 
ATOM      7  C   UNL     1      33.232 -19.695 -20.914  0.00  0.00    +0.014 C 
ATOM      8  C   UNL     1      35.399 -21.010 -19.751  0.00  0.00    -0.003 C 
ATOM      9  C   UNL     1      37.022 -19.507 -20.891  0.00  0.00    +0.032 C 
ATOM     10  C   UNL     1      33.014 -20.772 -20.054  0.00  0.00    +0.001 C 
ATOM     11  C   UNL     1      34.098 -21.430 -19.473  0.00  0.00    -0.000 C 
ENDBRANCH   2   5
BRANCH   3  12
ATOM     12  C   UNL     1      35.117 -15.993 -22.958  0.00  0.00    +0.017 C 
ATOM     13  C   UNL     1      34.408 -16.590 -24.167  0.00  0.00    -0.014 C 
BRANCH  12  14
ATOM     14  N   UNL     1      34.534 -14.691 -22.642  0.00  0.00    +0.391 N 
ATOM     15  H   UNL     1      35.104 -13.958 -23.066  0.00  0.00    -0.084 HD
ATOM     16  H   UNL     1      34.510 -14.582 -21.629  0.00  0.00    -0.084 HD
BRANCH  14  17
ATOM     17  C   UNL     1      33.176 -14.596 -23.154  0.00  0.00    -0.081 C 
BRANCH  17  18
ATOM     18  C   UNL     1      32.348 -13.652 -22.285  0.00  0.00    -0.023 C 
ATOM     19  C   UNL     1      32.607 -13.891 -20.805  0.00  0.00    -0.002 C 
ENDBRANCH  17  18
ENDBRANCH  14  17
ENDBRANCH  12  14
ENDBRANCH   3  12
TORSDOF 5
ENDMDL
MODEL 5
REMARK VINA RESULT:      -7.8      1.395      2.289
REMARK  Name = 4906
REMARK  5 active torsions:
REMARK  status: ('A' for Active; 'I' for Inactive)
REMARK    1  A    between atoms: N_2  and  C_5
REMARK    2  A    between atoms: C_3  and  C_12
REMARK    3  A    between atoms: C_12  and  N_14
REMARK    4  A    between atoms: N_14  and  C_17
REMARK    5  A    between atoms: C_17  and  C_18
REMARK                            x       y       z     vdW  Elec       q    Type
REMARK                         _______ _______ _______ _____ _____    ______ ____
ROOT
ATOM      1  O   UNL     1      34.962 -16.061 -20.155  0.00  0.00    -0.277 OA
ATOM      2  N   UNL     1      34.344 -17.804 -21.602  0.00  0.00    -0.286 N 
ATOM      3  C   UNL     1      34.382 -16.487 -21.151  0.00  0.00    +0.206 C 
ATOM      4  H   UNL     1      33.818 -17.969 -22.418  0.00  0.00    +0.155 HD
ENDROOT
BRANCH   2   5
ATOM      5  C   UNL     1      34.974 -18.932 -21.024  0.00  0.00    +0.046 C 
ATOM      6  C   UNL     1      34.212 -19.982 -20.535  0.00  0.00    -0.008 C 
ATOM      7  C   UNL     1      36.358 -18.958 -20.963  0.00  0.00    +0.014 C 
ATOM      8  C   UNL     1      34.850 -21.085 -19.969  0.00  0.00    -0.003 C 
ATOM      9  C   UNL     1      32.718 -19.966 -20.595  0.00  0.00    +0.032 C 
ATOM     10  C   UNL     1      36.997 -20.062 -20.397  0.00  0.00    +0.001 C 
ATOM     11  C   UNL     1      36.243 -21.125 -19.900  0.00  0.00    -0.000 C 
ENDBRANCH   2   5
BRANCH   3  12
ATOM     12  C   UNL     1      33.569 -15.566 -22.059  0.00  0.00    +0.017 C 
ATOM     13  C   UNL     1      32.645 -14.656 -21.259  0.00  0.00    -0.014 C 
BRANCH  12  14
ATOM     14  N   UNL     1      34.530 -14.756 -22.804  0.00  0.00    +0.391 N 
ATOM     15  H   UNL     1      35.271 -15.360 -23.161  0.00  0.00    -0.084 HD
ATOM     16  H   UNL     1      34.916 -14.050 -22.178  0.00  0.00    -0.084 HD
BRANCH  14  17
ATOM     17  C   UNL     1      33.883 -14.084 -23.920  0.00  0.00    -0.081 C 
BRANCH  17  18
ATOM     18  C   UNL     1      33.498 -15.096 -24.997  0.00  0.00    -0.023 C 
ATOM     19  C   UNL     1      32.850 -14.414 -26.191  0.00  0.00    -0.002 C 
ENDBRANCH  17  18
ENDBRANCH  14  17
ENDBRANCH  12  14
ENDBRANCH   3  12
TORSDOF 5
ENDMDL
MODEL 6
REMARK VINA RESULT:      -7.7      1.462      2.371
REMARK  Name = 4906
REMARK  5 active torsions:
REMARK  status: ('A' for Active; 'I' for Inactive)
REMARK    1  A    between atoms: N_2  and  C_5
REMARK    2  A    between atoms: C_3  and  C_12
REMARK    3  A    between atoms: C_12  and  N_14
REMARK    4  A    between atoms: N_14  and  C_17
REMARK    5  A    between atoms: C_17  and  C_18
REMARK                            x       y       z     vdW  Elec       q    Type
REMARK                         _______ _______ _______ _____ _____    ______ ____
ROOT
ATOM      1  O   UNL     1      34.991 -16.368 -20.300  0.00  0.00    -0.277 OA
ATOM      2  N   UNL     1      34.467 -18.045 -21.857  0.00  0.00    -0.286 N 
ATOM      3  C   UNL     1      34.760 -16.747 -21.445  0.00  0.00    +0.206 C 
ATOM      4  H   UNL     1      34.298 -18.167 -22.820  0.00  0.00    +0.155 HD
ENDROOT
BRANCH   2   5
ATOM      5  C   UNL     1      34.385 -19.208 -21.055  0.00  0.00    +0.046 C 
ATOM      6  C   UNL     1      35.539 -19.843 -20.626  0.00  0.00    -0.008 C 
ATOM      7  C   UNL     1      33.130 -19.688 -20.714  0.00  0.00    +0.014 C 
ATOM      8  C   UNL     1      35.438 -20.987 -19.837  0.00  0.00    -0.003 C 
ATOM      9  C   UNL     1      36.898 -19.335 -20.988  0.00  0.00    +0.032 C 
ATOM     10  C   UNL     1      33.028 -20.834 -19.924  0.00  0.00    +0.001 C 
ATOM     11  C   UNL     1      34.181 -21.484 -19.486  0.00  0.00    -0.000 C 
ENDBRANCH   2   5
BRANCH   3  12
ATOM     12  C   UNL     1      34.752 -15.776 -22.623  0.00  0.00    +0.017 C 
ATOM     13  C   UNL     1      34.996 -16.490 -23.947  0.00  0.00    -0.014 C 
BRANCH  12  14
ATOM     14  N   UNL     1      33.432 -15.149 -22.642  0.00  0.00    +0.391 N 
ATOM     15  H   UNL     1      33.325 -14.570 -21.808  0.00  0.00    -0.084 HD
ATOM     16  H   UNL     1      32.723 -15.882 -22.660  0.00  0.00    -0.084 HD
BRANCH  14  17
ATOM     17  C   UNL     1      33.272 -14.317 -23.824  0.00  0.00    -0.081 C 
BRANCH  17  18
ATOM     18  C   UNL     1      33.693 -12.881 -23.523  0.00  0.00    -0.023 C 
ATOM     19  C   UNL     1      33.794 -12.054 -24.795  0.00  0.00    -0.002 C 
ENDBRANCH  17  18
ENDBRANCH  14  17
ENDBRANCH  12  14
ENDBRANCH   3  12
TORSDOF 5
ENDMDL
MODEL 7
REMARK VINA RESULT:      -7.5      2.641      4.323
REMARK  Name = 4906
REMARK  5 active torsions:
REMARK  status: ('A' for Active; 'I' for Inactive)
REMARK    1  A    between atoms: N_2  and  C_5
REMARK    2  A    between atoms: C_3  and  C_12
REMARK    3  A    between atoms: C_12  and  N_14
REMARK    4  A    between atoms: N_14  and  C_17
REMARK    5  A    between atoms: C_17  and  C_18
REMARK                            x       y       z     vdW  Elec       q    Type
REMARK                         _______ _______ _______ _____ _____    ______ ____
ROOT
ATOM      1  O   UNL     1      32.178 -15.089 -21.684  0.00  0.00    -0.277 OA
ATOM      2  N   UNL     1      34.277 -15.121 -22.734  0.00  0.00    -0.286 N 
ATOM      3  C   UNL     1      33.098 -14.535 -22.281  0.00  0.00    +0.206 C 
ATOM      4  H   UNL     1      34.904 -14.526 -23.205  0.00  0.00    +0.155 HD
ENDROOT
BRANCH   2   5
ATOM      5  C   UNL     1      34.679 -16.471 -22.596  0.00  0.00    +0.046 C 
ATOM      6  C   UNL     1      34.788 -17.284 -23.713  0.00  0.00    -0.008 C 
ATOM      7  C   UNL     1      34.959 -16.951 -21.326  0.00  0.00    +0.014 C 
ATOM      8  C   UNL     1      35.185 -18.611 -23.557  0.00  0.00    -0.003 C 
ATOM      9  C   UNL     1      34.489 -16.778 -25.088  0.00  0.00    +0.032 C 
ATOM     10  C   UNL     1      35.356 -18.280 -21.169  0.00  0.00    +0.001 C 
ATOM     11  C   UNL     1      35.469 -19.110 -22.285  0.00  0.00    -0.000 C 
ENDBRANCH   2   5
BRANCH   3  12
ATOM     12  C   UNL     1      33.046 -13.050 -22.631  0.00  0.00    +0.017 C 
ATOM     13  C   UNL     1      33.490 -12.792 -24.065  0.00  0.00    -0.014 C 
BRANCH  12  14
ATOM     14  N   UNL     1      31.656 -12.627 -22.465  0.00  0.00    +0.391 N 
ATOM     15  H   UNL     1      31.126 -13.385 -22.034  0.00  0.00    -0.084 HD
ATOM     16  H   UNL     1      31.273 -12.402 -23.383  0.00  0.00    -0.084 HD
BRANCH  14  17
ATOM     17  C   UNL     1      31.573 -11.446 -21.621  0.00  0.00    -0.081 C 
BRANCH  17  18
ATOM     18  C   UNL     1      31.635 -11.841 -20.148  0.00  0.00    -0.023 C 
ATOM     19  C   UNL     1      31.447 -10.634 -19.242  0.00  0.00    -0.002 C 
ENDBRANCH  17  18
ENDBRANCH  14  17
ENDBRANCH  12  14
ENDBRANCH   3  12
TORSDOF 5
ENDMDL
MODEL 8
REMARK VINA RESULT:      -7.4      2.692      4.654
REMARK  Name = 4906
REMARK  5 active torsions:
REMARK  status: ('A' for Active; 'I' for Inactive)
REMARK    1  A    between atoms: N_2  and  C_5
REMARK    2  A    between atoms: C_3  and  C_12
REMARK    3  A    between atoms: C_12  and  N_14
REMARK    4  A    between atoms: N_14  and  C_17
REMARK    5  A    between atoms: C_17  and  C_18
REMARK                            x       y       z     vdW  Elec       q    Type
REMARK                         _______ _______ _______ _____ _____    ______ ____
ROOT
ATOM      1  O   UNL     1      32.179 -15.076 -21.640  0.00  0.00    -0.277 OA
ATOM      2  N   UNL     1      34.070 -15.200 -23.026  0.00  0.00    -0.286 N 
ATOM      3  C   UNL     1      32.932 -14.604 -22.488  0.00  0.00    +0.206 C 
ATOM      4  H   UNL     1      34.552 -14.679 -23.708  0.00  0.00    +0.155 HD
ENDROOT
BRANCH   2   5
ATOM      5  C   UNL     1      34.615 -16.467 -22.706  0.00  0.00    +0.046 C 
ATOM      6  C   UNL     1      34.872 -17.389 -23.707  0.00  0.00    -0.008 C 
ATOM      7  C   UNL     1      34.880 -16.755 -21.376  0.00  0.00    +0.014 C 
ATOM      8  C   UNL     1      35.408 -18.632 -23.372  0.00  0.00    -0.003 C 
ATOM      9  C   UNL     1      34.589 -17.090 -25.145  0.00  0.00    +0.032 C 
ATOM     10  C   UNL     1      35.417 -17.999 -21.040  0.00  0.00    +0.001 C 
ATOM     11  C   UNL     1      35.680 -18.937 -22.038  0.00  0.00    -0.000 C 
ENDBRANCH   2   5
BRANCH   3  12
ATOM     12  C   UNL     1      32.683 -13.229 -23.103  0.00  0.00    +0.017 C 
ATOM     13  C   UNL     1      32.076 -12.261 -22.095  0.00  0.00    -0.014 C 
BRANCH  12  14
ATOM     14  N   UNL     1      33.982 -12.724 -23.545  0.00  0.00    +0.391 N 
ATOM     15  H   UNL     1      34.621 -13.510 -23.666  0.00  0.00    -0.084 HD
ATOM     16  H   UNL     1      34.338 -12.080 -22.839  0.00  0.00    -0.084 HD
BRANCH  14  17
ATOM     17  C   UNL     1      33.856 -12.011 -24.806  0.00  0.00    -0.081 C 
BRANCH  17  18
ATOM     18  C   UNL     1      34.354 -10.576 -24.655  0.00  0.00    -0.023 C 
ATOM     19  C   UNL     1      35.458 -10.264 -25.654  0.00  0.00    -0.002 C 
ENDBRANCH  17  18
ENDBRANCH  14  17
ENDBRANCH  12  14
ENDBRANCH   3  12
TORSDOF 5
ENDMDL
MODEL 9
REMARK VINA RESULT:      -7.2      3.961      7.230
REMARK  Name = 4906
REMARK  5 active torsions:
REMARK  status: ('A' for Active; 'I' for Inactive)
REMARK    1  A    between atoms: N_2  and  C_5
REMARK    2  A    between atoms: C_3  and  C_12
REMARK    3  A    between atoms: C_12  and  N_14
REMARK    4  A    between atoms: N_14  and  C_17
REMARK    5  A    between atoms: C_17  and  C_18
REMARK                            x       y       z     vdW  Elec       q    Type
REMARK                         _______ _______ _______ _____ _____    ______ ____
ROOT
ATOM      1  O   UNL     1      33.929 -23.858 -19.581  0.00  0.00    -0.277 OA
ATOM      2  N   UNL     1      33.716 -21.686 -18.715  0.00  0.00    -0.286 N 
ATOM      3  C   UNL     1      33.646 -23.076 -18.676  0.00  0.00    +0.206 C 
ATOM      4  H   UNL     1      33.439 -21.215 -17.896  0.00  0.00    +0.155 HD
ENDROOT
BRANCH   2   5
ATOM      5  C   UNL     1      34.137 -20.872 -19.793  0.00  0.00    +0.046 C 
ATOM      6  C   UNL     1      35.488 -20.683 -20.038  0.00  0.00    -0.008 C 
ATOM      7  C   UNL     1      33.171 -20.277 -20.589  0.00  0.00    +0.014 C 
ATOM      8  C   UNL     1      35.883 -19.877 -21.105  0.00  0.00    -0.003 C 
ATOM      9  C   UNL     1      36.539 -21.320 -19.187  0.00  0.00    +0.032 C 
ATOM     10  C   UNL     1      33.566 -19.470 -21.657  0.00  0.00    +0.001 C 
ATOM     11  C   UNL     1      34.922 -19.270 -21.915  0.00  0.00    -0.000 C 
ENDBRANCH   2   5
BRANCH   3  12
ATOM     12  C   UNL     1      33.139 -23.569 -17.323  0.00  0.00    +0.017 C 
ATOM     13  C   UNL     1      34.133 -23.275 -16.206  0.00  0.00    -0.014 C 
BRANCH  12  14
ATOM     14  N   UNL     1      31.886 -22.864 -17.061  0.00  0.00    +0.391 N 
ATOM     15  H   UNL     1      31.381 -22.745 -17.939  0.00  0.00    -0.084 HD
ATOM     16  H   UNL     1      32.102 -21.958 -16.648  0.00  0.00    -0.084 HD
BRANCH  14  17
ATOM     17  C   UNL     1      31.056 -23.614 -16.131  0.00  0.00    -0.081 C 
BRANCH  17  18
ATOM     18  C   UNL     1      30.779 -22.784 -14.880  0.00  0.00    -0.023 C 
ATOM     19  C   UNL     1      30.958 -23.611 -13.616  0.00  0.00    -0.002 C 
ENDBRANCH  17  18
ENDBRANCH  14  17
ENDBRANCH  12  14
ENDBRANCH   3  12
TORSDOF 5
ENDMDL
