MODEL 1
REMARK VINA RESULT:      -9.0      0.000      0.000
REMARK  Name = 54688261
REMARK  5 active torsions:
REMARK  status: ('A' for Active; 'I' for Inactive)
REMARK    1  A    between atoms: C_3  and  C_14
REMARK    2  A    between atoms: C_4  and  O_12
REMARK    3  A    between atoms: C_14  and  C_15
REMARK    4  A    between atoms: C_14  and  C_21
REMARK    5  A    between atoms: C_21  and  C_23
REMARK                            x       y       z     vdW  Elec       q    Type
REMARK                         _______ _______ _______ _____ _____    ______ ____
ROOT
ATOM      1  O   UNL     1      36.430 -20.805 -19.201  0.00  0.00    -0.421 OA
ATOM      2  O   UNL     1      37.188 -19.221 -20.649  0.00  0.00    -0.245 OA
ATOM      3  C   UNL     1      34.865 -19.731 -20.769  0.00  0.00    +0.092 A 
ATOM      4  C   UNL     1      33.853 -20.468 -20.272  0.00  0.00    +0.139 A 
ATOM      5  C   UNL     1      34.083 -21.432 -19.194  0.00  0.00    +0.068 A 
ATOM      6  C   UNL     1      36.244 -19.881 -20.222  0.00  0.00    +0.345 A 
ATOM      7  C   UNL     1      35.372 -21.573 -18.690  0.00  0.00    +0.152 A 
ATOM      8  C   UNL     1      33.072 -22.228 -18.639  0.00  0.00    +0.006 C 
ATOM      9  C   UNL     1      35.676 -22.468 -17.664  0.00  0.00    +0.038 C 
ATOM     10  C   UNL     1      33.360 -23.132 -17.611  0.00  0.00    +0.000 C 
ATOM     11  C   UNL     1      34.661 -23.252 -17.124  0.00  0.00    +0.003 C 
ENDROOT
BRANCH   4  12
ATOM     12  O   UNL     1      32.546 -20.395 -20.705  0.00  0.00    -0.506 OA
ATOM     13  H   UNL     1      31.975 -19.735 -20.364  0.00  0.00    +0.292 HD
ENDBRANCH   4  12
BRANCH   3  14
ATOM     14  C   UNL     1      34.750 -18.721 -21.879  0.00  0.00    +0.061 C 
BRANCH  14  15
ATOM     15  C   UNL     1      34.189 -17.403 -21.367  0.00  0.00    -0.018 C 
ATOM     16  C   UNL     1      32.811 -17.232 -21.246  0.00  0.00    -0.004 C 
ATOM     17  C   UNL     1      35.054 -16.366 -21.020  0.00  0.00    -0.004 C 
ATOM     18  C   UNL     1      32.296 -16.023 -20.776  0.00  0.00    -0.000 C 
ATOM     19  C   UNL     1      34.540 -15.156 -20.550  0.00  0.00    -0.000 C 
ATOM     20  C   UNL     1      33.161 -14.985 -20.429  0.00  0.00    -0.000 C 
ENDBRANCH  14  15
BRANCH  14  21
ATOM     21  C   UNL     1      33.933 -19.305 -23.047  0.00  0.00    +0.074 C 
BRANCH  21  23
ATOM     22  O   UNL     1      35.030 -20.074 -25.066  0.00  0.00    -0.296 OA
ATOM     23  C   UNL     1      34.596 -19.130 -24.407  0.00  0.00    +0.152 C 
ATOM     24  C   UNL     1      34.740 -17.713 -24.897  0.00  0.00    +0.072 C 
ENDBRANCH  21  23
ENDBRANCH  14  21
ENDBRANCH   3  14
TORSDOF 5
ENDMDL
MODEL 2
REMARK VINA RESULT:      -8.4      1.479      2.064
REMARK  Name = 54688261
REMARK  5 active torsions:
REMARK  status: ('A' for Active; 'I' for Inactive)
REMARK    1  A    between atoms: C_3  and  C_14
REMARK    2  A    between atoms: C_4  and  O_12
REMARK    3  A    between atoms: C_14  and  C_15
REMARK    4  A    between atoms: C_14  and  C_21
REMARK    5  A    between atoms: C_21  and  C_23
REMARK                            x       y       z     vdW  Elec       q    Type
REMARK                         _______ _______ _______ _____ _____    ______ ____
ROOT
ATOM      1  O   UNL     1      36.588 -19.901 -20.847  0.00  0.00    -0.421 OA
ATOM      2  O   UNL     1      37.286 -18.231 -22.225  0.00  0.00    -0.245 OA
ATOM      3  C   UNL     1      34.936 -18.395 -21.877  0.00  0.00    +0.092 A 
ATOM      4  C   UNL     1      33.940 -19.056 -21.257  0.00  0.00    +0.139 A 
ATOM      5  C   UNL     1      34.222 -20.198 -20.385  0.00  0.00    +0.068 A 
ATOM      6  C   UNL     1      36.354 -18.815 -21.679  0.00  0.00    +0.345 A 
ATOM      7  C   UNL     1      35.545 -20.589 -20.206  0.00  0.00    +0.152 A 
ATOM      8  C   UNL     1      33.228 -20.925 -19.716  0.00  0.00    +0.006 C 
ATOM      9  C   UNL     1      35.900 -21.665 -19.392  0.00  0.00    +0.038 C 
ATOM     10  C   UNL     1      33.566 -22.008 -18.898  0.00  0.00    +0.000 C 
ATOM     11  C   UNL     1      34.901 -22.378 -18.736  0.00  0.00    +0.003 C 
ENDROOT
BRANCH   4  12
ATOM     12  O   UNL     1      32.602 -18.741 -21.372  0.00  0.00    -0.506 OA
ATOM     13  H   UNL     1      31.989 -19.392 -21.650  0.00  0.00    +0.292 HD
ENDBRANCH   4  12
BRANCH   3  14
ATOM     14  C   UNL     1      34.766 -17.220 -22.801  0.00  0.00    +0.061 C 
BRANCH  14  15
ATOM     15  C   UNL     1      34.126 -16.043 -22.082  0.00  0.00    -0.018 C 
ATOM     16  C   UNL     1      34.553 -15.692 -20.801  0.00  0.00    -0.004 C 
ATOM     17  C   UNL     1      33.113 -15.313 -22.703  0.00  0.00    -0.004 C 
ATOM     18  C   UNL     1      33.966 -14.612 -20.141  0.00  0.00    -0.000 C 
ATOM     19  C   UNL     1      32.526 -14.233 -22.043  0.00  0.00    -0.000 C 
ATOM     20  C   UNL     1      32.953 -13.883 -20.762  0.00  0.00    -0.000 C 
ENDBRANCH  14  15
BRANCH  14  21
ATOM     21  C   UNL     1      33.989 -17.643 -24.063  0.00  0.00    +0.074 C 
BRANCH  21  23
ATOM     22  O   UNL     1      35.413 -16.950 -25.896  0.00  0.00    -0.296 OA
ATOM     23  C   UNL     1      34.343 -16.831 -25.302  0.00  0.00    +0.152 C 
ATOM     24  C   UNL     1      33.318 -15.821 -25.748  0.00  0.00    +0.072 C 
ENDBRANCH  21  23
ENDBRANCH  14  21
ENDBRANCH   3  14
TORSDOF 5
ENDMDL
MODEL 3
REMARK VINA RESULT:      -8.3      4.962      7.774
REMARK  Name = 54688261
REMARK  5 active torsions:
REMARK  status: ('A' for Active; 'I' for Inactive)
REMARK    1  A    between atoms: C_3  and  C_14
REMARK    2  A    between atoms: C_4  and  O_12
REMARK    3  A    between atoms: C_14  and  C_15
REMARK    4  A    between atoms: C_14  and  C_21
REMARK    5  A    between atoms: C_21  and  C_23
REMARK                            x       y       z     vdW  Elec       q    Type
REMARK                         _______ _______ _______ _____ _____    ______ ____
ROOT
ATOM      1  O   UNL     1      33.385 -15.837 -25.584  0.00  0.00    -0.421 OA
ATOM      2  O   UNL     1      32.316 -13.907 -26.143  0.00  0.00    -0.245 OA
ATOM      3  C   UNL     1      33.379 -13.942 -24.012  0.00  0.00    +0.092 A 
ATOM      4  C   UNL     1      34.111 -14.658 -23.138  0.00  0.00    +0.139 A 
ATOM      5  C   UNL     1      34.524 -16.028 -23.447  0.00  0.00    +0.068 A 
ATOM      6  C   UNL     1      32.978 -14.535 -25.321  0.00  0.00    +0.345 A 
ATOM      7  C   UNL     1      34.145 -16.579 -24.667  0.00  0.00    +0.152 A 
ATOM      8  C   UNL     1      35.283 -16.823 -22.577  0.00  0.00    +0.006 C 
ATOM      9  C   UNL     1      34.497 -17.877 -25.038  0.00  0.00    +0.038 C 
ATOM     10  C   UNL     1      35.643 -18.127 -22.933  0.00  0.00    +0.000 C 
ATOM     11  C   UNL     1      35.251 -18.654 -24.163  0.00  0.00    +0.003 C 
ENDROOT
BRANCH   4  12
ATOM     12  O   UNL     1      34.534 -14.196 -21.910  0.00  0.00    -0.506 OA
ATOM     13  H   UNL     1      35.450 -14.130 -21.724  0.00  0.00    +0.292 HD
ENDBRANCH   4  12
BRANCH   3  14
ATOM     14  C   UNL     1      32.889 -12.535 -23.800  0.00  0.00    +0.061 C 
BRANCH  14  15
ATOM     15  C   UNL     1      33.830 -11.523 -24.438  0.00  0.00    -0.018 C 
ATOM     16  C   UNL     1      34.363 -11.767 -25.703  0.00  0.00    -0.004 C 
ATOM     17  C   UNL     1      34.159 -10.352 -23.756  0.00  0.00    -0.004 C 
ATOM     18  C   UNL     1      35.225 -10.840 -26.288  0.00  0.00    -0.000 C 
ATOM     19  C   UNL     1      35.022  -9.424 -24.340  0.00  0.00    -0.000 C 
ATOM     20  C   UNL     1      35.555  -9.668 -25.606  0.00  0.00    -0.000 C 
ENDBRANCH  14  15
BRANCH  14  21
ATOM     21  C   UNL     1      32.658 -12.273 -22.299  0.00  0.00    +0.074 C 
BRANCH  21  23
ATOM     22  O   UNL     1      30.919 -10.682 -22.858  0.00  0.00    -0.296 OA
ATOM     23  C   UNL     1      31.444 -11.399 -22.009  0.00  0.00    +0.152 C 
ATOM     24  C   UNL     1      30.936 -11.419 -20.591  0.00  0.00    +0.072 C 
ENDBRANCH  21  23
ENDBRANCH  14  21
ENDBRANCH   3  14
TORSDOF 5
ENDMDL
MODEL 4
REMARK VINA RESULT:      -8.2      8.985     13.135
REMARK  Name = 54688261
REMARK  5 active torsions:
REMARK  status: ('A' for Active; 'I' for Inactive)
REMARK    1  A    between atoms: C_3  and  C_14
REMARK    2  A    between atoms: C_4  and  O_12
REMARK    3  A    between atoms: C_14  and  C_15
REMARK    4  A    between atoms: C_14  and  C_21
REMARK    5  A    between atoms: C_21  and  C_23
REMARK                            x       y       z     vdW  Elec       q    Type
REMARK                         _______ _______ _______ _____ _____    ______ ____
ROOT
ATOM      1  O   UNL     1      32.264  -5.866 -21.374  0.00  0.00    -0.421 OA
ATOM      2  O   UNL     1      33.016  -7.732 -20.312  0.00  0.00    -0.245 OA
ATOM      3  C   UNL     1      32.264  -8.027 -22.552  0.00  0.00    +0.092 A 
ATOM      4  C   UNL     1      31.756  -7.435 -23.650  0.00  0.00    +0.139 A 
ATOM      5  C   UNL     1      31.468  -5.999 -23.665  0.00  0.00    +0.068 A 
ATOM      6  C   UNL     1      32.548  -7.224 -21.328  0.00  0.00    +0.345 A 
ATOM      7  C   UNL     1      31.731  -5.254 -22.520  0.00  0.00    +0.152 A 
ATOM      8  C   UNL     1      30.938  -5.328 -24.775  0.00  0.00    +0.006 C 
ATOM      9  C   UNL     1      31.486  -3.883 -22.452  0.00  0.00    +0.038 C 
ATOM     10  C   UNL     1      30.685  -3.953 -24.723  0.00  0.00    +0.000 C 
ATOM     11  C   UNL     1      30.959  -3.231 -23.562  0.00  0.00    +0.003 C 
ENDROOT
BRANCH   4  12
ATOM     12  O   UNL     1      31.467  -8.089 -24.829  0.00  0.00    -0.506 OA
ATOM     13  H   UNL     1      30.590  -8.366 -25.008  0.00  0.00    +0.292 HD
ENDBRANCH   4  12
BRANCH   3  14
ATOM     14  C   UNL     1      32.588  -9.491 -22.416  0.00  0.00    +0.061 C 
BRANCH  14  15
ATOM     15  C   UNL     1      33.459  -9.970 -23.568  0.00  0.00    -0.018 C 
ATOM     16  C   UNL     1      33.141 -11.150 -24.238  0.00  0.00    -0.004 C 
ATOM     17  C   UNL     1      34.576  -9.228 -23.952  0.00  0.00    -0.004 C 
ATOM     18  C   UNL     1      33.940 -11.590 -25.295  0.00  0.00    -0.000 C 
ATOM     19  C   UNL     1      35.375  -9.667 -25.008  0.00  0.00    -0.000 C 
ATOM     20  C   UNL     1      35.057 -10.848 -25.679  0.00  0.00    -0.000 C 
ENDBRANCH  14  15
BRANCH  14  21
ATOM     21  C   UNL     1      31.292 -10.311 -22.266  0.00  0.00    +0.074 C 
BRANCH  21  23
ATOM     22  O   UNL     1      31.556 -12.509 -21.284  0.00  0.00    -0.296 OA
ATOM     23  C   UNL     1      31.329 -11.312 -21.118  0.00  0.00    +0.152 C 
ATOM     24  C   UNL     1      31.023 -10.763 -19.749  0.00  0.00    +0.072 C 
ENDBRANCH  21  23
ENDBRANCH  14  21
ENDBRANCH   3  14
TORSDOF 5
ENDMDL
MODEL 5
REMARK VINA RESULT:      -8.2      5.712      9.751
REMARK  Name = 54688261
REMARK  5 active torsions:
REMARK  status: ('A' for Active; 'I' for Inactive)
REMARK    1  A    between atoms: C_3  and  C_14
REMARK    2  A    between atoms: C_4  and  O_12
REMARK    3  A    between atoms: C_14  and  C_15
REMARK    4  A    between atoms: C_14  and  C_21
REMARK    5  A    between atoms: C_21  and  C_23
REMARK                            x       y       z     vdW  Elec       q    Type
REMARK                         _______ _______ _______ _____ _____    ______ ____
ROOT
ATOM      1  O   UNL     1      31.881 -10.000 -22.190  0.00  0.00    -0.421 OA
ATOM      2  O   UNL     1      31.047 -12.105 -21.972  0.00  0.00    -0.245 OA
ATOM      3  C   UNL     1      32.907 -11.857 -23.439  0.00  0.00    +0.092 A 
ATOM      4  C   UNL     1      33.803 -11.008 -23.976  0.00  0.00    +0.139 A 
ATOM      5  C   UNL     1      33.782  -9.582 -23.644  0.00  0.00    +0.068 A 
ATOM      6  C   UNL     1      31.875 -11.357 -22.484  0.00  0.00    +0.345 A 
ATOM      7  C   UNL     1      32.816  -9.119 -22.757  0.00  0.00    +0.152 A 
ATOM      8  C   UNL     1      34.686  -8.651 -24.172  0.00  0.00    +0.006 C 
ATOM      9  C   UNL     1      32.727  -7.776 -22.387  0.00  0.00    +0.038 C 
ATOM     10  C   UNL     1      34.611  -7.301 -23.814  0.00  0.00    +0.000 C 
ATOM     11  C   UNL     1      33.632  -6.864 -22.921  0.00  0.00    +0.003 C 
ENDROOT
BRANCH   4  12
ATOM     12  O   UNL     1      34.796 -11.375 -24.860  0.00  0.00    -0.506 OA
ATOM     13  H   UNL     1      34.655 -12.084 -25.456  0.00  0.00    +0.292 HD
ENDBRANCH   4  12
BRANCH   3  14
ATOM     14  C   UNL     1      32.825 -13.334 -23.714  0.00  0.00    +0.061 C 
BRANCH  14  15
ATOM     15  C   UNL     1      33.233 -14.145 -22.493  0.00  0.00    -0.018 C 
ATOM     16  C   UNL     1      34.553 -14.112 -22.045  0.00  0.00    -0.004 C 
ATOM     17  C   UNL     1      32.288 -14.920 -21.823  0.00  0.00    -0.004 C 
ATOM     18  C   UNL     1      34.929 -14.856 -20.925  0.00  0.00    -0.000 C 
ATOM     19  C   UNL     1      32.662 -15.663 -20.703  0.00  0.00    -0.000 C 
ATOM     20  C   UNL     1      33.983 -15.631 -20.255  0.00  0.00    -0.000 C 
ENDBRANCH  14  15
BRANCH  14  21
ATOM     21  C   UNL     1      33.646 -13.688 -24.969  0.00  0.00    +0.074 C 
BRANCH  21  23
ATOM     22  O   UNL     1      32.404 -15.154 -26.445  0.00  0.00    -0.296 OA
ATOM     23  C   UNL     1      33.276 -15.031 -25.586  0.00  0.00    +0.152 C 
ATOM     24  C   UNL     1      34.010 -16.232 -25.050  0.00  0.00    +0.072 C 
ENDBRANCH  21  23
ENDBRANCH  14  21
ENDBRANCH   3  14
TORSDOF 5
ENDMDL
MODEL 6
REMARK VINA RESULT:      -8.0      4.168      9.364
REMARK  Name = 54688261
REMARK  5 active torsions:
REMARK  status: ('A' for Active; 'I' for Inactive)
REMARK    1  A    between atoms: C_3  and  C_14
REMARK    2  A    between atoms: C_4  and  O_12
REMARK    3  A    between atoms: C_14  and  C_15
REMARK    4  A    between atoms: C_14  and  C_21
REMARK    5  A    between atoms: C_21  and  C_23
REMARK                            x       y       z     vdW  Elec       q    Type
REMARK                         _______ _______ _______ _____ _____    ______ ____
ROOT
ATOM      1  O   UNL     1      33.636 -23.075 -17.106  0.00  0.00    -0.421 OA
ATOM      2  O   UNL     1      33.557 -24.052 -15.053  0.00  0.00    -0.245 OA
ATOM      3  C   UNL     1      35.628 -23.045 -15.660  0.00  0.00    +0.092 A 
ATOM      4  C   UNL     1      36.308 -22.364 -16.603  0.00  0.00    +0.139 A 
ATOM      5  C   UNL     1      35.675 -21.998 -17.871  0.00  0.00    +0.068 A 
ATOM      6  C   UNL     1      34.207 -23.436 -15.893  0.00  0.00    +0.345 A 
ATOM      7  C   UNL     1      34.351 -22.368 -18.086  0.00  0.00    +0.152 A 
ATOM      8  C   UNL     1      36.331 -21.293 -18.889  0.00  0.00    +0.006 C 
ATOM      9  C   UNL     1      33.674 -22.059 -19.266  0.00  0.00    +0.038 C 
ATOM     10  C   UNL     1      35.668 -20.976 -20.079  0.00  0.00    +0.000 C 
ATOM     11  C   UNL     1      34.340 -21.359 -20.267  0.00  0.00    +0.003 C 
ENDROOT
BRANCH   4  12
ATOM     12  O   UNL     1      37.619 -21.953 -16.478  0.00  0.00    -0.506 OA
ATOM     13  H   UNL     1      38.221 -22.087 -17.183  0.00  0.00    +0.292 HD
ENDBRANCH   4  12
BRANCH   3  14
ATOM     14  C   UNL     1      36.176 -23.483 -14.329  0.00  0.00    +0.061 C 
BRANCH  14  15
ATOM     15  C   UNL     1      37.044 -24.725 -14.473  0.00  0.00    -0.018 C 
ATOM     16  C   UNL     1      36.469 -25.938 -14.851  0.00  0.00    -0.004 C 
ATOM     17  C   UNL     1      38.414 -24.649 -14.228  0.00  0.00    -0.004 C 
ATOM     18  C   UNL     1      37.264 -27.076 -14.983  0.00  0.00    -0.000 C 
ATOM     19  C   UNL     1      39.211 -25.787 -14.360  0.00  0.00    -0.000 C 
ATOM     20  C   UNL     1      38.635 -27.000 -14.737  0.00  0.00    -0.000 C 
ENDBRANCH  14  15
BRANCH  14  21
ATOM     21  C   UNL     1      35.028 -23.670 -13.318  0.00  0.00    +0.074 C 
BRANCH  21  23
ATOM     22  O   UNL     1      34.973 -24.926 -11.247  0.00  0.00    -0.296 OA
ATOM     23  C   UNL     1      35.500 -24.039 -11.917  0.00  0.00    +0.152 C 
ATOM     24  C   UNL     1      36.634 -23.218 -11.361  0.00  0.00    +0.072 C 
ENDBRANCH  21  23
ENDBRANCH  14  21
ENDBRANCH   3  14
TORSDOF 5
ENDMDL
MODEL 7
REMARK VINA RESULT:      -8.0      5.101      8.283
REMARK  Name = 54688261
REMARK  5 active torsions:
REMARK  status: ('A' for Active; 'I' for Inactive)
REMARK    1  A    between atoms: C_3  and  C_14
REMARK    2  A    between atoms: C_4  and  O_12
REMARK    3  A    between atoms: C_14  and  C_15
REMARK    4  A    between atoms: C_14  and  C_21
REMARK    5  A    between atoms: C_21  and  C_23
REMARK                            x       y       z     vdW  Elec       q    Type
REMARK                         _______ _______ _______ _____ _____    ______ ____
ROOT
ATOM      1  O   UNL     1      32.241 -23.542 -17.201  0.00  0.00    -0.421 OA
ATOM      2  O   UNL     1      34.190 -23.463 -18.371  0.00  0.00    -0.245 OA
ATOM      3  C   UNL     1      34.384 -23.405 -15.999  0.00  0.00    +0.092 A 
ATOM      4  C   UNL     1      33.730 -23.422 -14.822  0.00  0.00    +0.139 A 
ATOM      5  C   UNL     1      32.269 -23.498 -14.773  0.00  0.00    +0.068 A 
ATOM      6  C   UNL     1      33.625 -23.471 -17.281  0.00  0.00    +0.345 A 
ATOM      7  C   UNL     1      31.564 -23.556 -15.971  0.00  0.00    +0.152 A 
ATOM      8  C   UNL     1      31.534 -23.517 -13.579  0.00  0.00    +0.006 C 
ATOM      9  C   UNL     1      30.172 -23.630 -16.013  0.00  0.00    +0.038 C 
ATOM     10  C   UNL     1      30.137 -23.590 -13.603  0.00  0.00    +0.000 C 
ATOM     11  C   UNL     1      29.457 -23.647 -14.819  0.00  0.00    +0.003 C 
ENDROOT
BRANCH   4  12
ATOM     12  O   UNL     1      34.342 -23.372 -13.586  0.00  0.00    -0.506 OA
ATOM     13  H   UNL     1      33.913 -22.952 -12.867  0.00  0.00    +0.292 HD
ENDBRANCH   4  12
BRANCH   3  14
ATOM     14  C   UNL     1      35.876 -23.317 -16.172  0.00  0.00    +0.061 C 
BRANCH  14  15
ATOM     15  C   UNL     1      36.591 -24.353 -15.317  0.00  0.00    -0.018 C 
ATOM     16  C   UNL     1      37.596 -23.957 -14.435  0.00  0.00    -0.004 C 
ATOM     17  C   UNL     1      36.240 -25.699 -15.415  0.00  0.00    -0.004 C 
ATOM     18  C   UNL     1      38.251 -24.907 -13.651  0.00  0.00    -0.000 C 
ATOM     19  C   UNL     1      36.895 -26.650 -14.631  0.00  0.00    -0.000 C 
ATOM     20  C   UNL     1      37.900 -26.253 -13.749  0.00  0.00    -0.000 C 
ENDBRANCH  14  15
BRANCH  14  21
ATOM     21  C   UNL     1      36.360 -21.880 -15.898  0.00  0.00    +0.074 C 
BRANCH  21  23
ATOM     22  O   UNL     1      37.841 -20.296 -16.978  0.00  0.00    -0.296 OA
ATOM     23  C   UNL     1      37.043 -21.225 -17.091  0.00  0.00    +0.152 C 
ATOM     24  C   UNL     1      36.653 -21.749 -18.449  0.00  0.00    +0.072 C 
ENDBRANCH  21  23
ENDBRANCH  14  21
ENDBRANCH   3  14
TORSDOF 5
ENDMDL
MODEL 8
REMARK VINA RESULT:      -8.0      6.767      9.943
REMARK  Name = 54688261
REMARK  5 active torsions:
REMARK  status: ('A' for Active; 'I' for Inactive)
REMARK    1  A    between atoms: C_3  and  C_14
REMARK    2  A    between atoms: C_4  and  O_12
REMARK    3  A    between atoms: C_14  and  C_15
REMARK    4  A    between atoms: C_14  and  C_21
REMARK    5  A    between atoms: C_21  and  C_23
REMARK                            x       y       z     vdW  Elec       q    Type
REMARK                         _______ _______ _______ _____ _____    ______ ____
ROOT
ATOM      1  O   UNL     1      33.427 -22.705 -16.202  0.00  0.00    -0.421 OA
ATOM      2  O   UNL     1      35.640 -22.488 -15.723  0.00  0.00    -0.245 OA
ATOM      3  C   UNL     1      34.363 -23.818 -14.215  0.00  0.00    +0.092 A 
ATOM      4  C   UNL     1      33.150 -24.321 -13.920  0.00  0.00    +0.139 A 
ATOM      5  C   UNL     1      31.989 -24.035 -14.765  0.00  0.00    +0.068 A 
ATOM      6  C   UNL     1      34.547 -22.959 -15.421  0.00  0.00    +0.345 A 
ATOM      7  C   UNL     1      32.163 -23.230 -15.886  0.00  0.00    +0.152 A 
ATOM      8  C   UNL     1      30.703 -24.528 -14.506  0.00  0.00    +0.006 C 
ATOM      9  C   UNL     1      31.110 -22.909 -16.743  0.00  0.00    +0.038 C 
ATOM     10  C   UNL     1      29.635 -24.215 -15.355  0.00  0.00    +0.000 C 
ATOM     11  C   UNL     1      29.839 -23.406 -16.472  0.00  0.00    +0.003 C 
ENDROOT
BRANCH   4  12
ATOM     12  O   UNL     1      32.882 -25.129 -12.834  0.00  0.00    -0.506 OA
ATOM     13  H   UNL     1      33.542 -25.707 -12.506  0.00  0.00    +0.292 HD
ENDBRANCH   4  12
BRANCH   3  14
ATOM     14  C   UNL     1      35.620 -24.034 -13.418  0.00  0.00    +0.061 C 
BRANCH  14  15
ATOM     15  C   UNL     1      36.528 -25.054 -14.088  0.00  0.00    -0.018 C 
ATOM     16  C   UNL     1      35.977 -26.097 -14.831  0.00  0.00    -0.004 C 
ATOM     17  C   UNL     1      37.913 -24.945 -13.960  0.00  0.00    -0.004 C 
ATOM     18  C   UNL     1      36.809 -27.032 -15.447  0.00  0.00    -0.000 C 
ATOM     19  C   UNL     1      38.746 -25.880 -14.575  0.00  0.00    -0.000 C 
ATOM     20  C   UNL     1      38.194 -26.924 -15.318  0.00  0.00    -0.000 C 
ENDBRANCH  14  15
BRANCH  14  21
ATOM     21  C   UNL     1      35.270 -24.409 -11.964  0.00  0.00    +0.074 C 
BRANCH  21  23
ATOM     22  O   UNL     1      36.210 -24.152  -9.747  0.00  0.00    -0.296 OA
ATOM     23  C   UNL     1      36.229 -23.828 -10.933  0.00  0.00    +0.152 C 
ATOM     24  C   UNL     1      37.190 -22.783 -11.436  0.00  0.00    +0.072 C 
ENDBRANCH  21  23
ENDBRANCH  14  21
ENDBRANCH   3  14
TORSDOF 5
ENDMDL
MODEL 9
REMARK VINA RESULT:      -8.0      3.947      8.635
REMARK  Name = 54688261
REMARK  5 active torsions:
REMARK  status: ('A' for Active; 'I' for Inactive)
REMARK    1  A    between atoms: C_3  and  C_14
REMARK    2  A    between atoms: C_4  and  O_12
REMARK    3  A    between atoms: C_14  and  C_15
REMARK    4  A    between atoms: C_14  and  C_21
REMARK    5  A    between atoms: C_21  and  C_23
REMARK                            x       y       z     vdW  Elec       q    Type
REMARK                         _______ _______ _______ _____ _____    ______ ____
ROOT
ATOM      1  O   UNL     1      37.036 -21.716 -17.071  0.00  0.00    -0.421 OA
ATOM      2  O   UNL     1      37.266 -22.510 -14.951  0.00  0.00    -0.245 OA
ATOM      3  C   UNL     1      35.190 -22.966 -16.026  0.00  0.00    +0.092 A 
ATOM      4  C   UNL     1      34.455 -22.824 -17.145  0.00  0.00    +0.139 A 
ATOM      5  C   UNL     1      34.981 -22.104 -18.306  0.00  0.00    +0.068 A 
ATOM      6  C   UNL     1      36.566 -22.394 -15.953  0.00  0.00    +0.345 A 
ATOM      7  C   UNL     1      36.262 -21.568 -18.233  0.00  0.00    +0.152 A 
ATOM      8  C   UNL     1      34.262 -21.922 -19.495  0.00  0.00    +0.006 C 
ATOM      9  C   UNL     1      36.838 -20.869 -19.294  0.00  0.00    +0.038 C 
ATOM     10  C   UNL     1      34.823 -21.222 -20.568  0.00  0.00    +0.000 C 
ATOM     11  C   UNL     1      36.111 -20.696 -20.467  0.00  0.00    +0.003 C 
ENDROOT
BRANCH   4  12
ATOM     12  O   UNL     1      33.179 -23.323 -17.310  0.00  0.00    -0.506 OA
ATOM     13  H   UNL     1      32.773 -23.300 -18.154  0.00  0.00    +0.292 HD
ENDBRANCH   4  12
BRANCH   3  14
ATOM     14  C   UNL     1      34.752 -23.673 -14.772  0.00  0.00    +0.061 C 
BRANCH  14  15
ATOM     15  C   UNL     1      35.688 -24.823 -14.433  0.00  0.00    -0.018 C 
ATOM     16  C   UNL     1      36.008 -25.771 -15.405  0.00  0.00    -0.004 C 
ATOM     17  C   UNL     1      36.226 -24.930 -13.151  0.00  0.00    -0.004 C 
ATOM     18  C   UNL     1      36.867 -26.826 -15.094  0.00  0.00    -0.000 C 
ATOM     19  C   UNL     1      37.085 -25.985 -12.840  0.00  0.00    -0.000 C 
ATOM     20  C   UNL     1      37.404 -26.933 -13.812  0.00  0.00    -0.000 C 
ENDBRANCH  14  15
BRANCH  14  21
ATOM     21  C   UNL     1      33.281 -24.116 -14.897  0.00  0.00    +0.074 C 
BRANCH  21  23
ATOM     22  O   UNL     1      32.504 -23.287 -12.758  0.00  0.00    -0.296 OA
ATOM     23  C   UNL     1      32.333 -23.363 -13.974  0.00  0.00    +0.152 C 
ATOM     24  C   UNL     1      31.126 -22.742 -14.626  0.00  0.00    +0.072 C 
ENDBRANCH  21  23
ENDBRANCH  14  21
ENDBRANCH   3  14
TORSDOF 5
ENDMDL
