MODEL 1
REMARK VINA RESULT:      -9.6      0.000      0.000
REMARK  Name = 257630
REMARK  3 active torsions:
REMARK  status: ('A' for Active; 'I' for Inactive)
REMARK    1  A    between atoms: C_10  and  C_22
REMARK    2  A    between atoms: C_22  and  C_23
REMARK    3  A    between atoms: C_23  and  O_24
REMARK                            x       y       z     vdW  Elec       q    Type
REMARK                         _______ _______ _______ _____ _____    ______ ____
ROOT
ATOM      1  O   UNL     1      39.609 -26.604 -14.590  0.00  0.00    -0.296 OA
ATOM      2  C   UNL     1      34.497 -23.253 -15.138  0.00  0.00    +0.000 C 
ATOM      3  C   UNL     1      33.171 -23.594 -15.829  0.00  0.00    +0.000 C 
ATOM      4  C   UNL     1      34.896 -24.438 -14.211  0.00  0.00    +0.000 C 
ATOM      5  C   UNL     1      32.018 -23.844 -14.834  0.00  0.00    +0.007 C 
ATOM      6  C   UNL     1      36.277 -24.218 -13.484  0.00  0.00    +0.001 C 
ATOM      7  C   UNL     1      33.739 -24.838 -13.252  0.00  0.00    +0.000 C 
ATOM      8  C   UNL     1      37.383 -23.763 -14.502  0.00  0.00    +0.007 C 
ATOM      9  C   UNL     1      32.397 -25.057 -13.973  0.00  0.00    +0.000 C 
ATOM     10  C   UNL     1      30.872 -24.096 -15.838  0.00  0.00    +0.060 C 
ATOM     11  C   UNL     1      35.604 -22.984 -16.163  0.00  0.00    +0.000 C 
ATOM     12  C   UNL     1      32.574 -22.603 -16.821  0.00  0.00    +0.000 C 
ATOM     13  C   UNL     1      36.921 -22.667 -15.471  0.00  0.00    +0.000 C 
ATOM     14  C   UNL     1      31.108 -23.056 -16.953  0.00  0.00    +0.007 C 
ATOM     15  C   UNL     1      36.701 -25.561 -12.801  0.00  0.00    +0.008 C 
ATOM     16  C   UNL     1      31.702 -22.630 -13.923  0.00  0.00    +0.000 C 
ATOM     17  C   UNL     1      36.170 -23.132 -12.387  0.00  0.00    +0.000 C 
ATOM     18  C   UNL     1      37.986 -24.963 -15.245  0.00  0.00    +0.064 C 
ATOM     19  C   UNL     1      38.205 -25.810 -12.815  0.00  0.00    +0.065 C 
ATOM     20  C   UNL     1      38.687 -25.865 -14.249  0.00  0.00    +0.151 C 
ENDROOT
BRANCH  10  22
ATOM     21  O   UNL     1      29.072 -24.856 -14.478  0.00  0.00    -0.293 OA
ATOM     22  C   UNL     1      29.499 -23.997 -15.247  0.00  0.00    +0.180 C 
BRANCH  22  23
ATOM     23  C   UNL     1      28.680 -22.791 -15.653  0.00  0.00    +0.202 C 
BRANCH  23  24
ATOM     24  O   UNL     1      27.375 -23.178 -16.030  0.00  0.00    -0.375 OA
ATOM     25  H   UNL     1      27.054 -23.864 -15.424  0.00  0.00    +0.211 HD
ENDBRANCH  23  24
ENDBRANCH  22  23
ENDBRANCH  10  22
TORSDOF 3
ENDMDL
MODEL 2
REMARK VINA RESULT:      -8.7      3.620      6.753
REMARK  Name = 257630
REMARK  3 active torsions:
REMARK  status: ('A' for Active; 'I' for Inactive)
REMARK    1  A    between atoms: C_10  and  C_22
REMARK    2  A    between atoms: C_22  and  C_23
REMARK    3  A    between atoms: C_23  and  O_24
REMARK                            x       y       z     vdW  Elec       q    Type
REMARK                         _______ _______ _______ _____ _____    ______ ____
ROOT
ATOM      1  O   UNL     1      33.812 -18.345 -21.222  0.00  0.00    -0.296 OA
ATOM      2  C   UNL     1      35.929 -22.602 -17.342  0.00  0.00    +0.000 C 
ATOM      3  C   UNL     1      36.054 -22.560 -15.814  0.00  0.00    +0.000 C 
ATOM      4  C   UNL     1      34.494 -22.145 -17.737  0.00  0.00    +0.000 C 
ATOM      5  C   UNL     1      35.037 -23.474 -15.098  0.00  0.00    +0.007 C 
ATOM      6  C   UNL     1      34.266 -22.101 -19.296  0.00  0.00    +0.001 C 
ATOM      7  C   UNL     1      33.400 -22.937 -16.966  0.00  0.00    +0.000 C 
ATOM      8  C   UNL     1      35.434 -21.336 -20.015  0.00  0.00    +0.007 C 
ATOM      9  C   UNL     1      33.629 -22.968 -15.445  0.00  0.00    +0.000 C 
ATOM     10  C   UNL     1      35.470 -23.233 -13.636  0.00  0.00    +0.060 C 
ATOM     11  C   UNL     1      36.975 -21.705 -18.010  0.00  0.00    +0.000 C 
ATOM     12  C   UNL     1      37.383 -22.935 -15.167  0.00  0.00    +0.000 C 
ATOM     13  C   UNL     1      36.832 -21.735 -19.524  0.00  0.00    +0.000 C 
ATOM     14  C   UNL     1      37.011 -23.200 -13.696  0.00  0.00    +0.007 C 
ATOM     15  C   UNL     1      32.904 -21.383 -19.581  0.00  0.00    +0.008 C 
ATOM     16  C   UNL     1      35.165 -24.972 -15.476  0.00  0.00    +0.000 C 
ATOM     17  C   UNL     1      34.196 -23.525 -19.897  0.00  0.00    +0.000 C 
ATOM     18  C   UNL     1      35.224 -19.816 -19.959  0.00  0.00    +0.064 C 
ATOM     19  C   UNL     1      32.910 -20.535 -20.848  0.00  0.00    +0.065 C 
ATOM     20  C   UNL     1      33.965 -19.458 -20.723  0.00  0.00    +0.151 C 
ENDROOT
BRANCH  10  22
ATOM     21  O   UNL     1      33.771 -24.566 -12.635  0.00  0.00    -0.293 OA
ATOM     22  C   UNL     1      34.958 -24.250 -12.663  0.00  0.00    +0.180 C 
BRANCH  22  23
ATOM     23  C   UNL     1      35.982 -24.856 -11.727  0.00  0.00    +0.202 C 
BRANCH  23  24
ATOM     24  O   UNL     1      35.399 -25.155 -10.476  0.00  0.00    -0.375 OA
ATOM     25  H   UNL     1      35.126 -26.085 -10.461  0.00  0.00    +0.211 HD
ENDBRANCH  23  24
ENDBRANCH  22  23
ENDBRANCH  10  22
TORSDOF 3
ENDMDL
MODEL 3
REMARK VINA RESULT:      -8.3     10.877     13.538
REMARK  Name = 257630
REMARK  3 active torsions:
REMARK  status: ('A' for Active; 'I' for Inactive)
REMARK    1  A    between atoms: C_10  and  C_22
REMARK    2  A    between atoms: C_22  and  C_23
REMARK    3  A    between atoms: C_23  and  O_24
REMARK                            x       y       z     vdW  Elec       q    Type
REMARK                         _______ _______ _______ _____ _____    ______ ____
ROOT
ATOM      1  O   UNL     1      35.168 -10.079 -26.160  0.00  0.00    -0.296 OA
ATOM      2  C   UNL     1      33.710 -15.705 -24.189  0.00  0.00    +0.000 C 
ATOM      3  C   UNL     1      34.623 -16.883 -23.826  0.00  0.00    +0.000 C 
ATOM      4  C   UNL     1      34.233 -14.428 -23.467  0.00  0.00    +0.000 C 
ATOM      5  C   UNL     1      34.670 -17.166 -22.310  0.00  0.00    +0.007 C 
ATOM      6  C   UNL     1      33.397 -13.138 -23.809  0.00  0.00    +0.001 C 
ATOM      7  C   UNL     1      34.427 -14.664 -21.942  0.00  0.00    +0.000 C 
ATOM      8  C   UNL     1      33.192 -12.993 -25.359  0.00  0.00    +0.007 C 
ATOM      9  C   UNL     1      35.251 -15.923 -21.620  0.00  0.00    +0.000 C 
ATOM     10  C   UNL     1      35.601 -18.398 -22.314  0.00  0.00    +0.060 C 
ATOM     11  C   UNL     1      33.671 -15.479 -25.704  0.00  0.00    +0.000 C 
ATOM     12  C   UNL     1      34.343 -18.254 -24.433  0.00  0.00    +0.000 C 
ATOM     13  C   UNL     1      32.781 -14.297 -26.055  0.00  0.00    +0.000 C 
ATOM     14  C   UNL     1      35.138 -19.220 -23.535  0.00  0.00    +0.007 C 
ATOM     15  C   UNL     1      34.158 -11.888 -23.253  0.00  0.00    +0.008 C 
ATOM     16  C   UNL     1      33.291 -17.514 -21.693  0.00  0.00    +0.000 C 
ATOM     17  C   UNL     1      31.996 -13.182 -23.151  0.00  0.00    +0.000 C 
ATOM     18  C   UNL     1      34.418 -12.354 -26.027  0.00  0.00    +0.064 C 
ATOM     19  C   UNL     1      34.026 -10.647 -24.130  0.00  0.00    +0.065 C 
ATOM     20  C   UNL     1      34.594 -10.944 -25.501  0.00  0.00    +0.151 C 
ENDROOT
BRANCH  10  22
ATOM     21  O   UNL     1      36.423 -19.028 -20.170  0.00  0.00    -0.293 OA
ATOM     22  C   UNL     1      35.578 -19.196 -21.047  0.00  0.00    +0.180 C 
BRANCH  22  23
ATOM     23  C   UNL     1      34.464 -20.213 -20.916  0.00  0.00    +0.202 C 
BRANCH  23  24
ATOM     24  O   UNL     1      34.688 -21.059 -19.808  0.00  0.00    -0.375 OA
ATOM     25  H   UNL     1      35.541 -21.509 -19.913  0.00  0.00    +0.211 HD
ENDBRANCH  23  24
ENDBRANCH  22  23
ENDBRANCH  10  22
TORSDOF 3
ENDMDL
MODEL 4
REMARK VINA RESULT:      -7.5     14.774     17.504
REMARK  Name = 257630
REMARK  3 active torsions:
REMARK  status: ('A' for Active; 'I' for Inactive)
REMARK    1  A    between atoms: C_10  and  C_22
REMARK    2  A    between atoms: C_22  and  C_23
REMARK    3  A    between atoms: C_23  and  O_24
REMARK                            x       y       z     vdW  Elec       q    Type
REMARK                         _______ _______ _______ _____ _____    ______ ____
ROOT
ATOM      1  O   UNL     1      30.454  -4.512 -23.820  0.00  0.00    -0.296 OA
ATOM      2  C   UNL     1      32.764  -9.976 -22.247  0.00  0.00    +0.000 C 
ATOM      3  C   UNL     1      32.250 -11.385 -22.566  0.00  0.00    +0.000 C 
ATOM      4  C   UNL     1      32.798  -9.148 -23.566  0.00  0.00    +0.000 C 
ATOM      5  C   UNL     1      33.131 -12.133 -23.589  0.00  0.00    +0.007 C 
ATOM      6  C   UNL     1      33.265  -7.658 -23.349  0.00  0.00    +0.001 C 
ATOM      7  C   UNL     1      33.567  -9.888 -24.695  0.00  0.00    +0.000 C 
ATOM      8  C   UNL     1      32.487  -6.991 -22.159  0.00  0.00    +0.007 C 
ATOM      9  C   UNL     1      33.099 -11.339 -24.903  0.00  0.00    +0.000 C 
ATOM     10  C   UNL     1      32.379 -13.481 -23.628  0.00  0.00    +0.060 C 
ATOM     11  C   UNL     1      31.878  -9.283 -21.208  0.00  0.00    +0.000 C 
ATOM     12  C   UNL     1      32.093 -12.392 -21.432  0.00  0.00    +0.000 C 
ATOM     13  C   UNL     1      32.381  -7.879 -20.912  0.00  0.00    +0.000 C 
ATOM     14  C   UNL     1      31.999 -13.747 -22.157  0.00  0.00    +0.007 C 
ATOM     15  C   UNL     1      33.008  -6.858 -24.670  0.00  0.00    +0.008 C 
ATOM     16  C   UNL     1      34.599 -12.329 -23.128  0.00  0.00    +0.000 C 
ATOM     17  C   UNL     1      34.776  -7.582 -23.025  0.00  0.00    +0.000 C 
ATOM     18  C   UNL     1      31.112  -6.476 -22.610  0.00  0.00    +0.064 C 
ATOM     19  C   UNL     1      32.590  -5.410 -24.439  0.00  0.00    +0.065 C 
ATOM     20  C   UNL     1      31.304  -5.383 -23.642  0.00  0.00    +0.151 C 
ENDROOT
BRANCH  10  22
ATOM     21  O   UNL     1      33.753 -15.423 -23.523  0.00  0.00    -0.293 OA
ATOM     22  C   UNL     1      33.161 -14.609 -24.229  0.00  0.00    +0.180 C 
BRANCH  22  23
ATOM     23  C   UNL     1      33.177 -14.682 -25.741  0.00  0.00    +0.202 C 
BRANCH  23  24
ATOM     24  O   UNL     1      33.926 -15.797 -26.178  0.00  0.00    -0.375 OA
ATOM     25  H   UNL     1      34.829 -15.515 -26.391  0.00  0.00    +0.211 HD
ENDBRANCH  23  24
ENDBRANCH  22  23
ENDBRANCH  10  22
TORSDOF 3
ENDMDL
MODEL 5
REMARK VINA RESULT:      -7.5     13.910     16.127
REMARK  Name = 257630
REMARK  3 active torsions:
REMARK  status: ('A' for Active; 'I' for Inactive)
REMARK    1  A    between atoms: C_10  and  C_22
REMARK    2  A    between atoms: C_22  and  C_23
REMARK    3  A    between atoms: C_23  and  O_24
REMARK                            x       y       z     vdW  Elec       q    Type
REMARK                         _______ _______ _______ _____ _____    ______ ____
ROOT
ATOM      1  O   UNL     1      35.247 -16.454 -20.787  0.00  0.00    -0.296 OA
ATOM      2  C   UNL     1      32.356 -11.230 -22.206  0.00  0.00    +0.000 C 
ATOM      3  C   UNL     1      32.828  -9.778 -22.058  0.00  0.00    +0.000 C 
ATOM      4  C   UNL     1      33.478 -12.049 -22.911  0.00  0.00    +0.000 C 
ATOM      5  C   UNL     1      33.146  -9.106 -23.410  0.00  0.00    +0.007 C 
ATOM      6  C   UNL     1      33.122 -13.576 -23.071  0.00  0.00    +0.001 C 
ATOM      7  C   UNL     1      33.947 -11.373 -24.230  0.00  0.00    +0.000 C 
ATOM      8  C   UNL     1      32.603 -14.179 -21.717  0.00  0.00    +0.007 C 
ATOM      9  C   UNL     1      34.299  -9.884 -24.061  0.00  0.00    +0.000 C 
ATOM     10  C   UNL     1      33.522  -7.695 -22.906  0.00  0.00    +0.060 C 
ATOM     11  C   UNL     1      32.024 -11.848 -20.844  0.00  0.00    +0.000 C 
ATOM     12  C   UNL     1      31.918  -8.769 -21.367  0.00  0.00    +0.000 C 
ATOM     13  C   UNL     1      31.578 -13.293 -20.996  0.00  0.00    +0.000 C 
ATOM     14  C   UNL     1      32.497  -7.406 -21.789  0.00  0.00    +0.007 C 
ATOM     15  C   UNL     1      34.405 -14.341 -23.538  0.00  0.00    +0.008 C 
ATOM     16  C   UNL     1      31.939  -9.045 -24.381  0.00  0.00    +0.000 C 
ATOM     17  C   UNL     1      32.018 -13.789 -24.135  0.00  0.00    +0.000 C 
ATOM     18  C   UNL     1      33.768 -14.565 -20.795  0.00  0.00    +0.064 C 
ATOM     19  C   UNL     1      34.526 -15.748 -22.962  0.00  0.00    +0.065 C 
ATOM     20  C   UNL     1      34.580 -15.664 -21.452  0.00  0.00    +0.151 C 
ENDROOT
BRANCH  10  22
ATOM     21  O   UNL     1      34.423  -6.574 -24.802  0.00  0.00    -0.293 OA
ATOM     22  C   UNL     1      33.524  -6.638 -23.967  0.00  0.00    +0.180 C 
BRANCH  22  23
ATOM     23  C   UNL     1      32.364  -5.665 -23.945  0.00  0.00    +0.202 C 
BRANCH  23  24
ATOM     24  O   UNL     1      32.011  -5.281 -25.257  0.00  0.00    -0.375 OA
ATOM     25  H   UNL     1      32.686  -4.680 -25.610  0.00  0.00    +0.211 HD
ENDBRANCH  23  24
ENDBRANCH  22  23
ENDBRANCH  10  22
TORSDOF 3
ENDMDL
MODEL 6
REMARK VINA RESULT:      -7.1     19.968     22.321
REMARK  Name = 257630
REMARK  3 active torsions:
REMARK  status: ('A' for Active; 'I' for Inactive)
REMARK    1  A    between atoms: C_10  and  C_22
REMARK    2  A    between atoms: C_22  and  C_23
REMARK    3  A    between atoms: C_23  and  O_24
REMARK                            x       y       z     vdW  Elec       q    Type
REMARK                         _______ _______ _______ _____ _____    ______ ____
ROOT
ATOM      1  O   UNL     1      32.817  -7.207 -19.336  0.00  0.00    -0.296 OA
ATOM      2  C   UNL     1      31.987  -4.584 -24.821  0.00  0.00    +0.000 C 
ATOM      3  C   UNL     1      32.884  -3.599 -25.582  0.00  0.00    +0.000 C 
ATOM      4  C   UNL     1      32.860  -5.779 -24.336  0.00  0.00    +0.000 C 
ATOM      5  C   UNL     1      33.571  -4.232 -26.811  0.00  0.00    +0.007 C 
ATOM      6  C   UNL     1      32.048  -6.835 -23.494  0.00  0.00    +0.001 C 
ATOM      7  C   UNL     1      33.684  -6.403 -25.497  0.00  0.00    +0.000 C 
ATOM      8  C   UNL     1      31.197  -6.132 -22.377  0.00  0.00    +0.007 C 
ATOM      9  C   UNL     1      34.478  -5.364 -26.309  0.00  0.00    +0.000 C 
ATOM     10  C   UNL     1      34.319  -2.991 -27.346  0.00  0.00    +0.060 C 
ATOM     11  C   UNL     1      31.305  -3.906 -23.629  0.00  0.00    +0.000 C 
ATOM     12  C   UNL     1      32.275  -2.317 -26.138  0.00  0.00    +0.000 C 
ATOM     13  C   UNL     1      30.435  -4.893 -22.867  0.00  0.00    +0.000 C 
ATOM     14  C   UNL     1      33.314  -1.835 -27.167  0.00  0.00    +0.007 C 
ATOM     15  C   UNL     1      33.060  -7.836 -22.841  0.00  0.00    +0.008 C 
ATOM     16  C   UNL     1      32.579  -4.782 -27.869  0.00  0.00    +0.000 C 
ATOM     17  C   UNL     1      31.077  -7.644 -24.387  0.00  0.00    +0.000 C 
ATOM     18  C   UNL     1      32.048  -5.823 -21.137  0.00  0.00    +0.064 C 
ATOM     19  C   UNL     1      32.643  -8.315 -21.455  0.00  0.00    +0.065 C 
ATOM     20  C   UNL     1      32.532  -7.123 -20.529  0.00  0.00    +0.151 C 
ENDROOT
BRANCH  10  22
ATOM     21  O   UNL     1      34.175  -2.615 -29.692  0.00  0.00    -0.293 OA
ATOM     22  C   UNL     1      34.798  -3.119 -28.759  0.00  0.00    +0.180 C 
BRANCH  22  23
ATOM     23  C   UNL     1      36.078  -3.899 -28.965  0.00  0.00    +0.202 C 
BRANCH  23  24
ATOM     24  O   UNL     1      35.923  -4.848 -29.999  0.00  0.00    -0.375 OA
ATOM     25  H   UNL     1      35.236  -5.486 -29.751  0.00  0.00    +0.211 HD
ENDBRANCH  23  24
ENDBRANCH  22  23
ENDBRANCH  10  22
TORSDOF 3
ENDMDL
MODEL 7
REMARK VINA RESULT:      -7.0     11.708     14.386
REMARK  Name = 257630
REMARK  3 active torsions:
REMARK  status: ('A' for Active; 'I' for Inactive)
REMARK    1  A    between atoms: C_10  and  C_22
REMARK    2  A    between atoms: C_22  and  C_23
REMARK    3  A    between atoms: C_23  and  O_24
REMARK                            x       y       z     vdW  Elec       q    Type
REMARK                         _______ _______ _______ _____ _____    ______ ____
ROOT
ATOM      1  O   UNL     1      32.909  -7.077 -19.970  0.00  0.00    -0.296 OA
ATOM      2  C   UNL     1      32.755 -12.634 -22.568  0.00  0.00    +0.000 C 
ATOM      3  C   UNL     1      33.868 -13.680 -22.711  0.00  0.00    +0.000 C 
ATOM      4  C   UNL     1      32.712 -12.152 -21.088  0.00  0.00    +0.000 C 
ATOM      5  C   UNL     1      33.662 -14.911 -21.803  0.00  0.00    +0.007 C 
ATOM      6  C   UNL     1      31.633 -11.032 -20.833  0.00  0.00    +0.001 C 
ATOM      7  C   UNL     1      32.627 -13.343 -20.092  0.00  0.00    +0.000 C 
ATOM      8  C   UNL     1      31.741  -9.891 -21.906  0.00  0.00    +0.007 C 
ATOM      9  C   UNL     1      33.689 -14.427 -20.346  0.00  0.00    +0.000 C 
ATOM     10  C   UNL     1      34.888 -15.746 -22.231  0.00  0.00    +0.060 C 
ATOM     11  C   UNL     1      32.985 -11.447 -23.507  0.00  0.00    +0.000 C 
ATOM     12  C   UNL     1      34.140 -14.293 -24.081  0.00  0.00    +0.000 C 
ATOM     13  C   UNL     1      31.890 -10.404 -23.345  0.00  0.00    +0.000 C 
ATOM     14  C   UNL     1      34.964 -15.553 -23.760  0.00  0.00    +0.007 C 
ATOM     15  C   UNL     1      31.857 -10.440 -19.401  0.00  0.00    +0.008 C 
ATOM     16  C   UNL     1      32.343 -15.679 -22.077  0.00  0.00    +0.000 C 
ATOM     17  C   UNL     1      30.198 -11.607 -20.899  0.00  0.00    +0.000 C 
ATOM     18  C   UNL     1      32.844  -8.886 -21.544  0.00  0.00    +0.064 C 
ATOM     19  C   UNL     1      31.566  -8.947 -19.301  0.00  0.00    +0.065 C 
ATOM     20  C   UNL     1      32.482  -8.196 -20.244  0.00  0.00    +0.151 C 
ENDROOT
BRANCH  10  22
ATOM     21  O   UNL     1      34.914 -17.539 -20.665  0.00  0.00    -0.293 OA
ATOM     22  C   UNL     1      34.820 -17.190 -21.840  0.00  0.00    +0.180 C 
BRANCH  22  23
ATOM     23  C   UNL     1      34.634 -18.181 -22.969  0.00  0.00    +0.202 C 
BRANCH  23  24
ATOM     24  O   UNL     1      34.687 -19.506 -22.483  0.00  0.00    -0.375 OA
ATOM     25  H   UNL     1      34.715 -20.124 -23.231  0.00  0.00    +0.211 HD
ENDBRANCH  23  24
ENDBRANCH  22  23
ENDBRANCH  10  22
TORSDOF 3
ENDMDL
