MODEL 1
REMARK VINA RESULT:      -8.3      0.000      0.000
REMARK  Name = 6102708
REMARK  9 active torsions:
REMARK  status: ('A' for Active; 'I' for Inactive)
REMARK    1  A    between atoms: S_1  and  N_5
REMARK    2  A    between atoms: S_1  and  C_18
REMARK    3  A    between atoms: C_7  and  C_14
REMARK    4  A    between atoms: N_13  and  O_16
REMARK    5  A    between atoms: C_23  and  O_24
REMARK    6  A    between atoms: O_24  and  C_25
REMARK    7  A    between atoms: C_25  and  C_26
REMARK    8  A    between atoms: C_27  and  C_28
REMARK    9  A    between atoms: C_28  and  N_29
REMARK                            x       y       z     vdW  Elec       q    Type
REMARK                         _______ _______ _______ _____ _____    ______ ____
ROOT
ATOM      1  S   UNL     1      33.917 -24.187 -14.144  0.00  0.00    +0.064 S 
ATOM      2  O   UNL     1      33.943 -23.069 -13.225  0.00  0.00    -0.153 OA
ATOM      3  O   UNL     1      32.998 -25.289 -13.955  0.00  0.00    -0.153 OA
ENDROOT
BRANCH   1   5
ATOM      4  S   UNL     1      38.344 -26.219 -14.314  0.00  0.00    -0.139 S 
ATOM      5  N   UNL     1      35.505 -24.812 -14.305  0.00  0.00    -0.146 NA
ATOM      6  C   UNL     1      37.964 -24.477 -13.848  0.00  0.00    +0.063 C 
ATOM      7  C   UNL     1      36.518 -24.317 -13.322  0.00  0.00    +0.166 C 
ATOM      8  C   UNL     1      35.598 -26.263 -14.640  0.00  0.00    +0.108 C 
ATOM      9  C   UNL     1      36.900 -26.572 -15.357  0.00  0.00    +0.077 C 
ATOM     10  C   UNL     1      38.190 -23.575 -15.078  0.00  0.00    +0.013 C 
ATOM     11  C   UNL     1      38.987 -24.069 -12.771  0.00  0.00    +0.013 C 
BRANCH   7  14
ATOM     12  O   UNL     1      36.585 -26.132 -11.777  0.00  0.00    -0.271 OA
ATOM     13  N   UNL     1      35.628 -24.136 -11.106  0.00  0.00    -0.196 N 
ATOM     14  C   UNL     1      36.252 -24.969 -11.999  0.00  0.00    +0.261 C 
ATOM     15  H   UNL     1      35.383 -23.211 -11.337  0.00  0.00    +0.182 HD
BRANCH  13  16
ATOM     16  O   UNL     1      35.362 -24.686  -9.844  0.00  0.00    -0.295 OA
ATOM     17  H   UNL     1      35.982 -25.412  -9.671  0.00  0.00    +0.241 HD
ENDBRANCH  13  16
ENDBRANCH   7  14
ENDBRANCH   1   5
BRANCH   1  18
ATOM     18  C   UNL     1      33.674 -23.546 -15.770  0.00  0.00    +0.122 C 
ATOM     19  C   UNL     1      32.384 -23.348 -16.235  0.00  0.00    +0.023 C 
ATOM     20  C   UNL     1      34.776 -23.250 -16.555  0.00  0.00    +0.023 C 
ATOM     21  C   UNL     1      32.191 -22.842 -17.520  0.00  0.00    +0.038 C 
ATOM     22  C   UNL     1      34.583 -22.743 -17.841  0.00  0.00    +0.038 C 
ATOM     23  C   UNL     1      33.291 -22.539 -18.323  0.00  0.00    +0.140 C 
BRANCH  23  24
ATOM     24  O   UNL     1      33.102 -22.044 -19.577  0.00  0.00    -0.461 OA
BRANCH  24  25
ATOM     25  C   UNL     1      32.787 -20.657 -19.688  0.00  0.00    +0.281 C 
BRANCH  25  26
ATOM     26  C   UNL     1      33.653 -20.033 -20.687  0.00  0.00    -0.046 C 
ATOM     27  C   UNL     1      34.363 -19.521 -21.509  0.00  0.00    -0.112 C 
BRANCH  27  28
ATOM     28  C   UNL     1      35.226 -18.890 -22.513  0.00  0.00    -0.007 C 
BRANCH  28  29
ATOM     29  N   UNL     1      34.781 -19.218 -23.861  0.00  0.00    +0.388 N 
ATOM     30  H   UNL     1      35.073 -20.167 -24.094  0.00  0.00    -0.088 HD
ATOM     31  H   UNL     1      35.194 -18.564 -24.524  0.00  0.00    -0.088 HD
ATOM     32  H   UNL     1      33.764 -19.154 -23.908  0.00  0.00    -0.088 HD
ENDBRANCH  28  29
ENDBRANCH  27  28
ENDBRANCH  25  26
ENDBRANCH  24  25
ENDBRANCH  23  24
ENDBRANCH   1  18
TORSDOF 9
ENDMDL
MODEL 2
REMARK VINA RESULT:      -7.4      5.031     10.619
REMARK  Name = 6102708
REMARK  9 active torsions:
REMARK  status: ('A' for Active; 'I' for Inactive)
REMARK    1  A    between atoms: S_1  and  N_5
REMARK    2  A    between atoms: S_1  and  C_18
REMARK    3  A    between atoms: C_7  and  C_14
REMARK    4  A    between atoms: N_13  and  O_16
REMARK    5  A    between atoms: C_23  and  O_24
REMARK    6  A    between atoms: O_24  and  C_25
REMARK    7  A    between atoms: C_25  and  C_26
REMARK    8  A    between atoms: C_27  and  C_28
REMARK    9  A    between atoms: C_28  and  N_29
REMARK                            x       y       z     vdW  Elec       q    Type
REMARK                         _______ _______ _______ _____ _____    ______ ____
ROOT
ATOM      1  S   UNL     1      35.494 -18.856 -22.293  0.00  0.00    +0.064 S 
ATOM      2  O   UNL     1      36.868 -18.407 -22.239  0.00  0.00    -0.153 OA
ATOM      3  O   UNL     1      34.948 -19.448 -23.495  0.00  0.00    -0.153 OA
ENDROOT
BRANCH   1   5
ATOM      4  S   UNL     1      32.390 -15.257 -21.211  0.00  0.00    -0.139 S 
ATOM      5  N   UNL     1      34.469 -17.575 -21.792  0.00  0.00    -0.146 NA
ATOM      6  C   UNL     1      34.211 -15.090 -21.443  0.00  0.00    +0.063 C 
ATOM      7  C   UNL     1      34.790 -16.218 -22.329  0.00  0.00    +0.166 C 
ATOM      8  C   UNL     1      33.016 -17.903 -21.713  0.00  0.00    +0.108 C 
ATOM      9  C   UNL     1      32.310 -17.002 -20.717  0.00  0.00    +0.077 C 
ATOM     10  C   UNL     1      34.889 -15.095 -20.058  0.00  0.00    +0.013 C 
ATOM     11  C   UNL     1      34.456 -13.709 -22.082  0.00  0.00    +0.013 C 
BRANCH   7  14
ATOM     12  O   UNL     1      33.356 -15.572 -24.121  0.00  0.00    -0.271 OA
ATOM     13  N   UNL     1      35.237 -16.828 -24.602  0.00  0.00    -0.196 N 
ATOM     14  C   UNL     1      34.373 -16.167 -23.769  0.00  0.00    +0.261 C 
ATOM     15  H   UNL     1      36.039 -17.289 -24.265  0.00  0.00    +0.182 HD
BRANCH  13  16
ATOM     16  O   UNL     1      34.906 -16.807 -25.964  0.00  0.00    -0.295 OA
ATOM     17  H   UNL     1      35.708 -16.935 -26.494  0.00  0.00    +0.241 HD
ENDBRANCH  13  16
ENDBRANCH   7  14
ENDBRANCH   1   5
BRANCH   1  18
ATOM     18  C   UNL     1      35.241 -19.989 -20.964  0.00  0.00    +0.122 C 
ATOM     19  C   UNL     1      33.953 -20.396 -20.656  0.00  0.00    +0.023 C 
ATOM     20  C   UNL     1      36.334 -20.454 -20.251  0.00  0.00    +0.023 C 
ATOM     21  C   UNL     1      33.753 -21.291 -19.605  0.00  0.00    +0.038 C 
ATOM     22  C   UNL     1      36.134 -21.350 -19.200  0.00  0.00    +0.038 C 
ATOM     23  C   UNL     1      34.843 -21.768 -18.877  0.00  0.00    +0.140 C 
BRANCH  23  24
ATOM     24  O   UNL     1      34.647 -22.643 -17.852  0.00  0.00    -0.461 OA
BRANCH  24  25
ATOM     25  C   UNL     1      33.478 -23.457 -17.908  0.00  0.00    +0.281 C 
BRANCH  25  26
ATOM     26  C   UNL     1      32.701 -23.289 -16.680  0.00  0.00    -0.046 C 
ATOM     27  C   UNL     1      32.063 -23.154 -15.672  0.00  0.00    -0.112 C 
BRANCH  27  28
ATOM     28  C   UNL     1      31.289 -22.985 -14.438  0.00  0.00    -0.007 C 
BRANCH  28  29
ATOM     29  N   UNL     1      32.170 -22.891 -13.281  0.00  0.00    +0.388 N 
ATOM     30  H   UNL     1      31.620 -22.658 -12.454  0.00  0.00    -0.088 HD
ATOM     31  H   UNL     1      32.866 -22.164 -13.441  0.00  0.00    -0.088 HD
ATOM     32  H   UNL     1      32.639 -23.786 -13.137  0.00  0.00    -0.088 HD
ENDBRANCH  28  29
ENDBRANCH  27  28
ENDBRANCH  25  26
ENDBRANCH  24  25
ENDBRANCH  23  24
ENDBRANCH   1  18
TORSDOF 9
ENDMDL
MODEL 3
REMARK VINA RESULT:      -7.3      1.581      2.142
REMARK  Name = 6102708
REMARK  9 active torsions:
REMARK  status: ('A' for Active; 'I' for Inactive)
REMARK    1  A    between atoms: S_1  and  N_5
REMARK    2  A    between atoms: S_1  and  C_18
REMARK    3  A    between atoms: C_7  and  C_14
REMARK    4  A    between atoms: N_13  and  O_16
REMARK    5  A    between atoms: C_23  and  O_24
REMARK    6  A    between atoms: O_24  and  C_25
REMARK    7  A    between atoms: C_25  and  C_26
REMARK    8  A    between atoms: C_27  and  C_28
REMARK    9  A    between atoms: C_28  and  N_29
REMARK                            x       y       z     vdW  Elec       q    Type
REMARK                         _______ _______ _______ _____ _____    ______ ____
ROOT
ATOM      1  S   UNL     1      34.116 -23.438 -15.384  0.00  0.00    +0.064 S 
ATOM      2  O   UNL     1      33.998 -22.351 -14.436  0.00  0.00    -0.153 OA
ATOM      3  O   UNL     1      32.990 -24.295 -15.682  0.00  0.00    -0.153 OA
ENDROOT
BRANCH   1   5
ATOM      4  S   UNL     1      37.681 -26.410 -13.894  0.00  0.00    -0.139 S 
ATOM      5  N   UNL     1      35.456 -24.416 -14.946  0.00  0.00    -0.146 NA
ATOM      6  C   UNL     1      37.614 -24.584 -13.651  0.00  0.00    +0.063 C 
ATOM      7  C   UNL     1      36.164 -24.045 -13.683  0.00  0.00    +0.166 C 
ATOM      8  C   UNL     1      35.291 -25.879 -15.180  0.00  0.00    +0.108 C 
ATOM      9  C   UNL     1      36.638 -26.553 -15.373  0.00  0.00    +0.077 C 
ATOM     10  C   UNL     1      38.462 -23.906 -14.746  0.00  0.00    +0.013 C 
ATOM     11  C   UNL     1      38.279 -24.289 -12.292  0.00  0.00    +0.013 C 
BRANCH   7  14
ATOM     12  O   UNL     1      34.105 -24.662 -12.652  0.00  0.00    -0.271 OA
ATOM     13  N   UNL     1      36.019 -24.590 -11.355  0.00  0.00    -0.196 N 
ATOM     14  C   UNL     1      35.311 -24.460 -12.522  0.00  0.00    +0.261 C 
ATOM     15  H   UNL     1      36.986 -24.415 -11.308  0.00  0.00    +0.182 HD
BRANCH  13  16
ATOM     16  O   UNL     1      35.276 -24.988 -10.234  0.00  0.00    -0.295 OA
ATOM     17  H   UNL     1      34.447 -24.486 -10.202  0.00  0.00    +0.241 HD
ENDBRANCH  13  16
ENDBRANCH   7  14
ENDBRANCH   1   5
BRANCH   1  18
ATOM     18  C   UNL     1      34.710 -22.768 -16.905  0.00  0.00    +0.122 C 
ATOM     19  C   UNL     1      36.002 -22.273 -16.969  0.00  0.00    +0.023 C 
ATOM     20  C   UNL     1      33.875 -22.750 -18.010  0.00  0.00    +0.023 C 
ATOM     21  C   UNL     1      36.471 -21.743 -18.171  0.00  0.00    +0.038 C 
ATOM     22  C   UNL     1      34.345 -22.221 -19.213  0.00  0.00    +0.038 C 
ATOM     23  C   UNL     1      35.643 -21.717 -19.293  0.00  0.00    +0.140 C 
BRANCH  23  24
ATOM     24  O   UNL     1      36.103 -21.201 -20.467  0.00  0.00    -0.461 OA
BRANCH  24  25
ATOM     25  C   UNL     1      36.868 -20.000 -20.392  0.00  0.00    +0.281 C 
BRANCH  25  26
ATOM     26  C   UNL     1      36.153 -18.917 -21.067  0.00  0.00    -0.046 C 
ATOM     27  C   UNL     1      35.567 -18.029 -21.623  0.00  0.00    -0.112 C 
BRANCH  27  28
ATOM     28  C   UNL     1      34.846 -16.947 -22.302  0.00  0.00    -0.007 C 
BRANCH  28  29
ATOM     29  N   UNL     1      35.514 -16.575 -23.542  0.00  0.00    +0.388 N 
ATOM     30  H   UNL     1      36.498 -16.384 -23.353  0.00  0.00    -0.088 HD
ATOM     31  H   UNL     1      35.075 -15.741 -23.928  0.00  0.00    -0.088 HD
ATOM     32  H   UNL     1      35.439 -17.341 -24.212  0.00  0.00    -0.088 HD
ENDBRANCH  28  29
ENDBRANCH  27  28
ENDBRANCH  25  26
ENDBRANCH  24  25
ENDBRANCH  23  24
ENDBRANCH   1  18
TORSDOF 9
ENDMDL
MODEL 4
REMARK VINA RESULT:      -7.2      4.584     10.716
REMARK  Name = 6102708
REMARK  9 active torsions:
REMARK  status: ('A' for Active; 'I' for Inactive)
REMARK    1  A    between atoms: S_1  and  N_5
REMARK    2  A    between atoms: S_1  and  C_18
REMARK    3  A    between atoms: C_7  and  C_14
REMARK    4  A    between atoms: N_13  and  O_16
REMARK    5  A    between atoms: C_23  and  O_24
REMARK    6  A    between atoms: O_24  and  C_25
REMARK    7  A    between atoms: C_25  and  C_26
REMARK    8  A    between atoms: C_27  and  C_28
REMARK    9  A    between atoms: C_28  and  N_29
REMARK                            x       y       z     vdW  Elec       q    Type
REMARK                         _______ _______ _______ _____ _____    ______ ____
ROOT
ATOM      1  S   UNL     1      35.548 -18.934 -22.291  0.00  0.00    +0.064 S 
ATOM      2  O   UNL     1      36.904 -18.430 -22.341  0.00  0.00    -0.153 OA
ATOM      3  O   UNL     1      34.951 -19.586 -23.436  0.00  0.00    -0.153 OA
ENDROOT
BRANCH   1   5
ATOM      4  S   UNL     1      32.397 -15.401 -21.133  0.00  0.00    -0.139 S 
ATOM      5  N   UNL     1      34.506 -17.679 -21.762  0.00  0.00    -0.146 NA
ATOM      6  C   UNL     1      34.216 -15.206 -21.353  0.00  0.00    +0.063 C 
ATOM      7  C   UNL     1      34.813 -16.305 -22.265  0.00  0.00    +0.166 C 
ATOM      8  C   UNL     1      33.057 -18.026 -21.697  0.00  0.00    +0.108 C 
ATOM      9  C   UNL     1      32.336 -17.158 -20.682  0.00  0.00    +0.077 C 
ATOM     10  C   UNL     1      34.890 -15.237 -19.967  0.00  0.00    +0.013 C 
ATOM     11  C   UNL     1      34.447 -13.808 -21.958  0.00  0.00    +0.013 C 
BRANCH   7  14
ATOM     12  O   UNL     1      33.388 -15.616 -24.048  0.00  0.00    -0.271 OA
ATOM     13  N   UNL     1      35.262 -16.875 -24.548  0.00  0.00    -0.196 N 
ATOM     14  C   UNL     1      34.400 -16.224 -23.704  0.00  0.00    +0.261 C 
ATOM     15  H   UNL     1      36.060 -17.348 -24.217  0.00  0.00    +0.182 HD
BRANCH  13  16
ATOM     16  O   UNL     1      34.935 -16.825 -25.910  0.00  0.00    -0.295 OA
ATOM     17  H   UNL     1      35.713 -16.551 -26.419  0.00  0.00    +0.241 HD
ENDBRANCH  13  16
ENDBRANCH   7  14
ENDBRANCH   1   5
BRANCH   1  18
ATOM     18  C   UNL     1      35.429 -20.032 -20.915  0.00  0.00    +0.122 C 
ATOM     19  C   UNL     1      36.577 -20.379 -20.222  0.00  0.00    +0.023 C 
ATOM     20  C   UNL     1      34.188 -20.528 -20.548  0.00  0.00    +0.023 C 
ATOM     21  C   UNL     1      36.483 -21.247 -19.134  0.00  0.00    +0.038 C 
ATOM     22  C   UNL     1      34.094 -21.396 -19.459  0.00  0.00    +0.038 C 
ATOM     23  C   UNL     1      35.241 -21.755 -18.752  0.00  0.00    +0.140 C 
BRANCH  23  24
ATOM     24  O   UNL     1      35.150 -22.602 -17.690  0.00  0.00    -0.461 OA
BRANCH  24  25
ATOM     25  C   UNL     1      35.929 -22.285 -16.538  0.00  0.00    +0.281 C 
BRANCH  25  26
ATOM     26  C   UNL     1      36.222 -23.507 -15.789  0.00  0.00    -0.046 C 
ATOM     27  C   UNL     1      36.463 -24.510 -15.176  0.00  0.00    -0.112 C 
BRANCH  27  28
ATOM     28  C   UNL     1      36.762 -25.734 -14.425  0.00  0.00    -0.007 C 
BRANCH  28  29
ATOM     29  N   UNL     1      36.166 -26.898 -15.068  0.00  0.00    +0.388 N 
ATOM     30  H   UNL     1      36.261 -26.813 -16.080  0.00  0.00    -0.088 HD
ATOM     31  H   UNL     1      35.178 -26.953 -14.822  0.00  0.00    -0.088 HD
ATOM     32  H   UNL     1      36.643 -27.742 -14.751  0.00  0.00    -0.088 HD
ENDBRANCH  28  29
ENDBRANCH  27  28
ENDBRANCH  25  26
ENDBRANCH  24  25
ENDBRANCH  23  24
ENDBRANCH   1  18
TORSDOF 9
ENDMDL
MODEL 5
REMARK VINA RESULT:      -6.4     10.010     15.118
REMARK  Name = 6102708
REMARK  9 active torsions:
REMARK  status: ('A' for Active; 'I' for Inactive)
REMARK    1  A    between atoms: S_1  and  N_5
REMARK    2  A    between atoms: S_1  and  C_18
REMARK    3  A    between atoms: C_7  and  C_14
REMARK    4  A    between atoms: N_13  and  O_16
REMARK    5  A    between atoms: C_23  and  O_24
REMARK    6  A    between atoms: O_24  and  C_25
REMARK    7  A    between atoms: C_25  and  C_26
REMARK    8  A    between atoms: C_27  and  C_28
REMARK    9  A    between atoms: C_28  and  N_29
REMARK                            x       y       z     vdW  Elec       q    Type
REMARK                         _______ _______ _______ _____ _____    ______ ____
ROOT
ATOM      1  S   UNL     1      31.433 -10.953 -20.990  0.00  0.00    +0.064 S 
ATOM      2  O   UNL     1      29.993 -11.070 -21.058  0.00  0.00    -0.153 OA
ATOM      3  O   UNL     1      32.095 -10.557 -19.766  0.00  0.00    -0.153 OA
ENDROOT
BRANCH   1   5
ATOM      4  S   UNL     1      33.281  -7.993 -24.394  0.00  0.00    -0.139 S 
ATOM      5  N   UNL     1      31.970  -9.938 -22.264  0.00  0.00    -0.146 NA
ATOM      6  C   UNL     1      31.722  -7.724 -23.448  0.00  0.00    +0.063 C 
ATOM      7  C   UNL     1      31.726  -8.473 -22.094  0.00  0.00    +0.166 C 
ATOM      8  C   UNL     1      33.285 -10.300 -22.869  0.00  0.00    +0.108 C 
ATOM      9  C   UNL     1      33.379  -9.803 -24.300  0.00  0.00    +0.077 C 
ATOM     10  C   UNL     1      30.532  -8.185 -24.312  0.00  0.00    +0.013 C 
ATOM     11  C   UNL     1      31.586  -6.204 -23.232  0.00  0.00    +0.013 C 
BRANCH   7  14
ATOM     12  O   UNL     1      33.906  -7.901 -21.315  0.00  0.00    -0.271 OA
ATOM     13  N   UNL     1      32.096  -7.525 -19.926  0.00  0.00    -0.196 N 
ATOM     14  C   UNL     1      32.699  -7.944 -21.083  0.00  0.00    +0.261 C 
ATOM     15  H   UNL     1      31.123  -7.583 -19.792  0.00  0.00    +0.182 HD
BRANCH  13  16
ATOM     16  O   UNL     1      32.954  -7.009 -18.944  0.00  0.00    -0.295 OA
ATOM     17  H   UNL     1      32.539  -7.101 -18.072  0.00  0.00    +0.241 HD
ENDBRANCH  13  16
ENDBRANCH   7  14
ENDBRANCH   1   5
BRANCH   1  18
ATOM     18  C   UNL     1      32.126 -12.490 -21.511  0.00  0.00    +0.122 C 
ATOM     19  C   UNL     1      32.620 -13.369 -20.561  0.00  0.00    +0.023 C 
ATOM     20  C   UNL     1      32.163 -12.795 -22.862  0.00  0.00    +0.023 C 
ATOM     21  C   UNL     1      33.169 -14.583 -20.973  0.00  0.00    +0.038 C 
ATOM     22  C   UNL     1      32.711 -14.011 -23.274  0.00  0.00    +0.038 C 
ATOM     23  C   UNL     1      33.214 -14.905 -22.329  0.00  0.00    +0.140 C 
BRANCH  23  24
ATOM     24  O   UNL     1      33.748 -16.091 -22.730  0.00  0.00    -0.461 OA
BRANCH  24  25
ATOM     25  C   UNL     1      34.888 -16.564 -22.017  0.00  0.00    +0.281 C 
BRANCH  25  26
ATOM     26  C   UNL     1      34.614 -17.893 -21.473  0.00  0.00    -0.046 C 
ATOM     27  C   UNL     1      34.388 -18.985 -21.027  0.00  0.00    -0.112 C 
BRANCH  27  28
ATOM     28  C   UNL     1      34.117 -20.321 -20.485  0.00  0.00    -0.007 C 
BRANCH  28  29
ATOM     29  N   UNL     1      32.699 -20.487 -20.196  0.00  0.00    +0.388 N 
ATOM     30  H   UNL     1      32.368 -19.692 -19.649  0.00  0.00    -0.088 HD
ATOM     31  H   UNL     1      32.558 -21.346 -19.667  0.00  0.00    -0.088 HD
ATOM     32  H   UNL     1      32.178 -20.538 -21.072  0.00  0.00    -0.088 HD
ENDBRANCH  28  29
ENDBRANCH  27  28
ENDBRANCH  25  26
ENDBRANCH  24  25
ENDBRANCH  23  24
ENDBRANCH   1  18
TORSDOF 9
ENDMDL
MODEL 6
REMARK VINA RESULT:      -6.2      9.981     14.086
REMARK  Name = 6102708
REMARK  9 active torsions:
REMARK  status: ('A' for Active; 'I' for Inactive)
REMARK    1  A    between atoms: S_1  and  N_5
REMARK    2  A    between atoms: S_1  and  C_18
REMARK    3  A    between atoms: C_7  and  C_14
REMARK    4  A    between atoms: N_13  and  O_16
REMARK    5  A    between atoms: C_23  and  O_24
REMARK    6  A    between atoms: O_24  and  C_25
REMARK    7  A    between atoms: C_25  and  C_26
REMARK    8  A    between atoms: C_27  and  C_28
REMARK    9  A    between atoms: C_28  and  N_29
REMARK                            x       y       z     vdW  Elec       q    Type
REMARK                         _______ _______ _______ _____ _____    ______ ____
ROOT
ATOM      1  S   UNL     1      33.046 -13.400 -23.847  0.00  0.00    +0.064 S 
ATOM      2  O   UNL     1      31.837 -13.956 -24.414  0.00  0.00    -0.153 OA
ATOM      3  O   UNL     1      34.189 -13.092 -24.679  0.00  0.00    -0.153 OA
ENDROOT
BRANCH   1   5
ATOM      4  S   UNL     1      34.852 -16.262 -20.339  0.00  0.00    -0.139 S 
ATOM      5  N   UNL     1      33.560 -14.394 -22.547  0.00  0.00    -0.146 NA
ATOM      6  C   UNL     1      33.425 -16.655 -21.436  0.00  0.00    +0.063 C 
ATOM      7  C   UNL     1      33.481 -15.871 -22.768  0.00  0.00    +0.166 C 
ATOM      8  C   UNL     1      34.769 -13.923 -21.812  0.00  0.00    +0.108 C 
ATOM      9  C   UNL     1      34.777 -14.449 -20.388  0.00  0.00    +0.077 C 
ATOM     10  C   UNL     1      32.118 -16.338 -20.682  0.00  0.00    +0.013 C 
ATOM     11  C   UNL     1      33.462 -18.175 -21.693  0.00  0.00    +0.013 C 
BRANCH   7  14
ATOM     12  O   UNL     1      35.731 -16.477 -23.273  0.00  0.00    -0.271 OA
ATOM     13  N   UNL     1      34.192 -16.387 -24.997  0.00  0.00    -0.196 N 
ATOM     14  C   UNL     1      34.593 -16.272 -23.691  0.00  0.00    +0.261 C 
ATOM     15  H   UNL     1      33.265 -16.210 -25.277  0.00  0.00    +0.182 HD
BRANCH  13  16
ATOM     16  O   UNL     1      35.187 -16.771 -25.907  0.00  0.00    -0.295 OA
ATOM     17  H   UNL     1      36.059 -16.562 -25.539  0.00  0.00    +0.241 HD
ENDBRANCH  13  16
ENDBRANCH   7  14
ENDBRANCH   1   5
BRANCH   1  18
ATOM     18  C   UNL     1      32.607 -11.940 -22.960  0.00  0.00    +0.122 C 
ATOM     19  C   UNL     1      33.047 -10.709 -23.419  0.00  0.00    +0.023 C 
ATOM     20  C   UNL     1      31.827 -12.046 -21.820  0.00  0.00    +0.023 C 
ATOM     21  C   UNL     1      32.701  -9.554 -22.717  0.00  0.00    +0.038 C 
ATOM     22  C   UNL     1      31.479 -10.891 -21.118  0.00  0.00    +0.038 C 
ATOM     23  C   UNL     1      31.916  -9.645 -21.567  0.00  0.00    +0.140 C 
BRANCH  23  24
ATOM     24  O   UNL     1      31.577  -8.517 -20.884  0.00  0.00    -0.461 OA
BRANCH  24  25
ATOM     25  C   UNL     1      32.539  -7.464 -20.851  0.00  0.00    +0.281 C 
BRANCH  25  26
ATOM     26  C   UNL     1      32.065  -6.339 -21.656  0.00  0.00    -0.046 C 
ATOM     27  C   UNL     1      31.678  -5.415 -22.318  0.00  0.00    -0.112 C 
BRANCH  27  28
ATOM     28  C   UNL     1      31.200  -4.290 -23.129  0.00  0.00    -0.007 C 
BRANCH  28  29
ATOM     29  N   UNL     1      30.429  -3.356 -22.319  0.00  0.00    +0.388 N 
ATOM     30  H   UNL     1      30.802  -2.414 -22.440  0.00  0.00    -0.088 HD
ATOM     31  H   UNL     1      30.492  -3.624 -21.338  0.00  0.00    -0.088 HD
ATOM     32  H   UNL     1      29.453  -3.375 -22.616  0.00  0.00    -0.088 HD
ENDBRANCH  28  29
ENDBRANCH  27  28
ENDBRANCH  25  26
ENDBRANCH  24  25
ENDBRANCH  23  24
ENDBRANCH   1  18
TORSDOF 9
ENDMDL
MODEL 7
REMARK VINA RESULT:      -5.7      2.864      4.474
REMARK  Name = 6102708
REMARK  9 active torsions:
REMARK  status: ('A' for Active; 'I' for Inactive)
REMARK    1  A    between atoms: S_1  and  N_5
REMARK    2  A    between atoms: S_1  and  C_18
REMARK    3  A    between atoms: C_7  and  C_14
REMARK    4  A    between atoms: N_13  and  O_16
REMARK    5  A    between atoms: C_23  and  O_24
REMARK    6  A    between atoms: O_24  and  C_25
REMARK    7  A    between atoms: C_25  and  C_26
REMARK    8  A    between atoms: C_27  and  C_28
REMARK    9  A    between atoms: C_28  and  N_29
REMARK                            x       y       z     vdW  Elec       q    Type
REMARK                         _______ _______ _______ _____ _____    ______ ____
ROOT
ATOM      1  S   UNL     1      34.703 -23.598 -15.636  0.00  0.00    +0.064 S 
ATOM      2  O   UNL     1      34.998 -24.997 -15.859  0.00  0.00    -0.153 OA
ATOM      3  O   UNL     1      35.429 -22.830 -14.648  0.00  0.00    -0.153 OA
ENDROOT
BRANCH   1   5
ATOM      4  S   UNL     1      30.008 -23.083 -14.434  0.00  0.00    -0.139 S 
ATOM      5  N   UNL     1      33.022 -23.422 -15.349  0.00  0.00    -0.146 NA
ATOM      6  C   UNL     1      30.764 -24.545 -15.264  0.00  0.00    +0.063 C 
ATOM      7  C   UNL     1      32.278 -24.662 -14.969  0.00  0.00    +0.166 C 
ATOM      8  C   UNL     1      32.617 -22.187 -14.617  0.00  0.00    +0.108 C 
ATOM      9  C   UNL     1      31.187 -21.803 -14.950  0.00  0.00    +0.077 C 
ATOM     10  C   UNL     1      30.520 -24.434 -16.782  0.00  0.00    +0.013 C 
ATOM     11  C   UNL     1      30.009 -25.788 -14.755  0.00  0.00    +0.013 C 
BRANCH   7  14
ATOM     12  O   UNL     1      31.767 -25.410 -12.764  0.00  0.00    -0.271 OA
ATOM     13  N   UNL     1      33.949 -24.825 -13.260  0.00  0.00    -0.196 N 
ATOM     14  C   UNL     1      32.621 -25.004 -13.550  0.00  0.00    +0.261 C 
ATOM     15  H   UNL     1      34.591 -24.496 -13.930  0.00  0.00    +0.182 HD
BRANCH  13  16
ATOM     16  O   UNL     1      34.334 -25.139 -11.949  0.00  0.00    -0.295 OA
ATOM     17  H   UNL     1      33.852 -25.928 -11.652  0.00  0.00    +0.241 HD
ENDBRANCH  13  16
ENDBRANCH   7  14
ENDBRANCH   1   5
BRANCH   1  18
ATOM     18  C   UNL     1      34.839 -22.763 -17.185  0.00  0.00    +0.122 C 
ATOM     19  C   UNL     1      33.752 -22.746 -18.044  0.00  0.00    +0.023 C 
ATOM     20  C   UNL     1      36.029 -22.136 -17.516  0.00  0.00    +0.023 C 
ATOM     21  C   UNL     1      33.859 -22.087 -19.268  0.00  0.00    +0.038 C 
ATOM     22  C   UNL     1      36.136 -21.476 -18.741  0.00  0.00    +0.038 C 
ATOM     23  C   UNL     1      35.051 -21.451 -19.617  0.00  0.00    +0.140 C 
BRANCH  23  24
ATOM     24  O   UNL     1      35.154 -20.807 -20.812  0.00  0.00    -0.461 OA
BRANCH  24  25
ATOM     25  C   UNL     1      34.464 -19.565 -20.942  0.00  0.00    +0.281 C 
BRANCH  25  26
ATOM     26  C   UNL     1      34.523 -19.111 -22.330  0.00  0.00    -0.046 C 
ATOM     27  C   UNL     1      34.572 -18.738 -23.470  0.00  0.00    -0.112 C 
BRANCH  27  28
ATOM     28  C   UNL     1      34.635 -18.287 -24.865  0.00  0.00    -0.007 C 
BRANCH  28  29
ATOM     29  N   UNL     1      35.080 -16.902 -24.944  0.00  0.00    +0.388 N 
ATOM     30  H   UNL     1      35.248 -16.655 -25.919  0.00  0.00    -0.088 HD
ATOM     31  H   UNL     1      35.942 -16.791 -24.412  0.00  0.00    -0.088 HD
ATOM     32  H   UNL     1      34.360 -16.291 -24.558  0.00  0.00    -0.088 HD
ENDBRANCH  28  29
ENDBRANCH  27  28
ENDBRANCH  25  26
ENDBRANCH  24  25
ENDBRANCH  23  24
ENDBRANCH   1  18
TORSDOF 9
ENDMDL
MODEL 8
REMARK VINA RESULT:      -5.7     10.613     15.913
REMARK  Name = 6102708
REMARK  9 active torsions:
REMARK  status: ('A' for Active; 'I' for Inactive)
REMARK    1  A    between atoms: S_1  and  N_5
REMARK    2  A    between atoms: S_1  and  C_18
REMARK    3  A    between atoms: C_7  and  C_14
REMARK    4  A    between atoms: N_13  and  O_16
REMARK    5  A    between atoms: C_23  and  O_24
REMARK    6  A    between atoms: O_24  and  C_25
REMARK    7  A    between atoms: C_25  and  C_26
REMARK    8  A    between atoms: C_27  and  C_28
REMARK    9  A    between atoms: C_28  and  N_29
REMARK                            x       y       z     vdW  Elec       q    Type
REMARK                         _______ _______ _______ _____ _____    ______ ____
ROOT
ATOM      1  S   UNL     1      31.528 -10.416 -21.816  0.00  0.00    +0.064 S 
ATOM      2  O   UNL     1      30.145 -10.598 -22.200  0.00  0.00    -0.153 OA
ATOM      3  O   UNL     1      31.903 -10.251 -20.428  0.00  0.00    -0.153 OA
ENDROOT
BRANCH   1   5
ATOM      4  S   UNL     1      33.613  -6.635 -24.077  0.00  0.00    -0.139 S 
ATOM      5  N   UNL     1      32.194  -9.124 -22.726  0.00  0.00    -0.146 NA
ATOM      6  C   UNL     1      31.809  -6.863 -23.777  0.00  0.00    +0.063 C 
ATOM      7  C   UNL     1      31.532  -7.792 -22.572  0.00  0.00    +0.166 C 
ATOM      8  C   UNL     1      33.683  -9.090 -22.809  0.00  0.00    +0.108 C 
ATOM      9  C   UNL     1      34.141  -8.371 -24.064  0.00  0.00    +0.077 C 
ATOM     10  C   UNL     1      31.163  -7.435 -25.055  0.00  0.00    +0.013 C 
ATOM     11  C   UNL     1      31.214  -5.461 -23.537  0.00  0.00    +0.013 C 
BRANCH   7  14
ATOM     12  O   UNL     1      31.204  -6.401 -20.663  0.00  0.00    -0.271 OA
ATOM     13  N   UNL     1      33.095  -7.729 -20.758  0.00  0.00    -0.196 N 
ATOM     14  C   UNL     1      31.914  -7.225 -21.237  0.00  0.00    +0.261 C 
ATOM     15  H   UNL     1      33.625  -8.388 -21.261  0.00  0.00    +0.182 HD
BRANCH  13  16
ATOM     16  O   UNL     1      33.500  -7.244 -19.506  0.00  0.00    -0.295 OA
ATOM     17  H   UNL     1      34.464  -7.318 -19.428  0.00  0.00    +0.241 HD
ENDBRANCH  13  16
ENDBRANCH   7  14
ENDBRANCH   1   5
BRANCH   1  18
ATOM     18  C   UNL     1      32.456 -11.764 -22.474  0.00  0.00    +0.122 C 
ATOM     19  C   UNL     1      32.505 -12.960 -21.776  0.00  0.00    +0.023 C 
ATOM     20  C   UNL     1      33.121 -11.607 -23.680  0.00  0.00    +0.023 C 
ATOM     21  C   UNL     1      33.239 -14.026 -22.296  0.00  0.00    +0.038 C 
ATOM     22  C   UNL     1      33.855 -12.673 -24.201  0.00  0.00    +0.038 C 
ATOM     23  C   UNL     1      33.913 -13.883 -23.509  0.00  0.00    +0.140 C 
BRANCH  23  24
ATOM     24  O   UNL     1      34.629 -14.924 -24.017  0.00  0.00    -0.461 OA
BRANCH  24  25
ATOM     25  C   UNL     1      34.039 -16.220 -23.932  0.00  0.00    +0.281 C 
BRANCH  25  26
ATOM     26  C   UNL     1      34.833 -17.066 -23.042  0.00  0.00    -0.046 C 
ATOM     27  C   UNL     1      35.483 -17.762 -22.312  0.00  0.00    -0.112 C 
BRANCH  27  28
ATOM     28  C   UNL     1      36.282 -18.614 -21.425  0.00  0.00    -0.007 C 
BRANCH  28  29
ATOM     29  N   UNL     1      35.424 -19.466 -20.611  0.00  0.00    +0.388 N 
ATOM     30  H   UNL     1      35.997 -20.143 -20.108  0.00  0.00    -0.088 HD
ATOM     31  H   UNL     1      34.766 -19.959 -21.213  0.00  0.00    -0.088 HD
ATOM     32  H   UNL     1      34.911 -18.891 -19.943  0.00  0.00    -0.088 HD
ENDBRANCH  28  29
ENDBRANCH  27  28
ENDBRANCH  25  26
ENDBRANCH  24  25
ENDBRANCH  23  24
ENDBRANCH   1  18
TORSDOF 9
ENDMDL
MODEL 9
REMARK VINA RESULT:      -5.6     10.565     16.022
REMARK  Name = 6102708
REMARK  9 active torsions:
REMARK  status: ('A' for Active; 'I' for Inactive)
REMARK    1  A    between atoms: S_1  and  N_5
REMARK    2  A    between atoms: S_1  and  C_18
REMARK    3  A    between atoms: C_7  and  C_14
REMARK    4  A    between atoms: N_13  and  O_16
REMARK    5  A    between atoms: C_23  and  O_24
REMARK    6  A    between atoms: O_24  and  C_25
REMARK    7  A    between atoms: C_25  and  C_26
REMARK    8  A    between atoms: C_27  and  C_28
REMARK    9  A    between atoms: C_28  and  N_29
REMARK                            x       y       z     vdW  Elec       q    Type
REMARK                         _______ _______ _______ _____ _____    ______ ____
ROOT
ATOM      1  S   UNL     1      33.835 -10.527 -24.306  0.00  0.00    +0.064 S 
ATOM      2  O   UNL     1      35.212 -10.267 -23.942  0.00  0.00    -0.153 OA
ATOM      3  O   UNL     1      33.435 -10.627 -25.692  0.00  0.00    -0.153 OA
ENDROOT
BRANCH   1   5
ATOM      4  S   UNL     1      31.069  -7.022 -22.352  0.00  0.00    -0.139 S 
ATOM      5  N   UNL     1      32.827  -9.384 -23.519  0.00  0.00    -0.146 NA
ATOM      6  C   UNL     1      32.539  -7.810 -21.569  0.00  0.00    +0.063 C 
ATOM      7  C   UNL     1      33.508  -8.405 -22.618  0.00  0.00    +0.166 C 
ATOM      8  C   UNL     1      31.717  -8.826 -24.344  0.00  0.00    +0.108 C 
ATOM      9  C   UNL     1      30.568  -8.363 -23.467  0.00  0.00    +0.077 C 
ATOM     10  C   UNL     1      32.056  -8.909 -20.601  0.00  0.00    +0.013 C 
ATOM     11  C   UNL     1      33.239  -6.721 -20.732  0.00  0.00    +0.013 C 
BRANCH   7  14
ATOM     12  O   UNL     1      35.421  -7.175 -23.333  0.00  0.00    -0.271 OA
ATOM     13  N   UNL     1      33.394  -6.782 -24.375  0.00  0.00    -0.196 N 
ATOM     14  C   UNL     1      34.219  -7.394 -23.466  0.00  0.00    +0.261 C 
ATOM     15  H   UNL     1      32.436  -6.996 -24.439  0.00  0.00    +0.182 HD
BRANCH  13  16
ATOM     16  O   UNL     1      34.004  -5.832 -25.207  0.00  0.00    -0.295 OA
ATOM     17  H   UNL     1      34.721  -6.254 -25.706  0.00  0.00    +0.241 HD
ENDBRANCH  13  16
ENDBRANCH   7  14
ENDBRANCH   1   5
BRANCH   1  18
ATOM     18  C   UNL     1      33.327 -12.002 -23.482  0.00  0.00    +0.122 C 
ATOM     19  C   UNL     1      33.777 -13.228 -23.946  0.00  0.00    +0.023 C 
ATOM     20  C   UNL     1      32.487 -11.912 -22.384  0.00  0.00    +0.023 C 
ATOM     21  C   UNL     1      33.374 -14.394 -23.296  0.00  0.00    +0.038 C 
ATOM     22  C   UNL     1      32.085 -13.079 -21.733  0.00  0.00    +0.038 C 
ATOM     23  C   UNL     1      32.528 -14.320 -22.189  0.00  0.00    +0.140 C 
BRANCH  23  24
ATOM     24  O   UNL     1      32.137 -15.459 -21.554  0.00  0.00    -0.461 OA
BRANCH  24  25
ATOM     25  C   UNL     1      32.903 -15.868 -20.423  0.00  0.00    +0.281 C 
BRANCH  25  26
ATOM     26  C   UNL     1      33.987 -16.750 -20.854  0.00  0.00    -0.046 C 
ATOM     27  C   UNL     1      34.878 -17.473 -21.207  0.00  0.00    -0.112 C 
BRANCH  27  28
ATOM     28  C   UNL     1      35.965 -18.360 -21.634  0.00  0.00    -0.007 C 
BRANCH  28  29
ATOM     29  N   UNL     1      36.390 -19.225 -20.540  0.00  0.00    +0.388 N 
ATOM     30  H   UNL     1      37.026 -18.713 -19.930  0.00  0.00    -0.088 HD
ATOM     31  H   UNL     1      36.866 -20.043 -20.919  0.00  0.00    -0.088 HD
ATOM     32  H   UNL     1      35.573 -19.523 -20.007  0.00  0.00    -0.088 HD
ENDBRANCH  28  29
ENDBRANCH  27  28
ENDBRANCH  25  26
ENDBRANCH  24  25
ENDBRANCH  23  24
ENDBRANCH   1  18
TORSDOF 9
ENDMDL
