MODEL 1
REMARK VINA RESULT:      -7.2      0.000      0.000
REMARK  Name = 448993
REMARK  5 active torsions:
REMARK  status: ('A' for Active; 'I' for Inactive)
REMARK    1  A    between atoms: C_3  and  O_8
REMARK    2  A    between atoms: C_4  and  O_10
REMARK    3  A    between atoms: C_4  and  C_15
REMARK    4  A    between atoms: C_5  and  O_12
REMARK    5  A    between atoms: C_15  and  O_16
REMARK                            x       y       z     vdW  Elec       q    Type
REMARK                         _______ _______ _______ _____ _____    ______ ____
ROOT
ATOM      1  F   UNL     1      36.573 -22.263 -15.127  0.00  0.00    -0.207 F 
ATOM      2  C   UNL     1      38.196 -25.645 -13.199  0.00  0.00    +0.074 C 
ATOM      3  C   UNL     1      36.746 -25.274 -12.877  0.00  0.00    +0.147 C 
ATOM      4  C   UNL     1      38.515 -25.404 -14.680  0.00  0.00    +0.200 C 
ATOM      5  C   UNL     1      36.456 -23.808 -13.228  0.00  0.00    +0.187 C 
ATOM      6  C   UNL     1      37.929 -24.130 -15.221  0.00  0.00    +0.038 C 
ATOM      7  C   UNL     1      37.020 -23.403 -14.555  0.00  0.00    +0.145 C 
ENDROOT
BRANCH   3   8
ATOM      8  O   UNL     1      36.507 -25.485 -11.486  0.00  0.00    -0.381 OA
ATOM      9  H   UNL     1      37.175 -25.011 -10.968  0.00  0.00    +0.210 HD
ENDBRANCH   3   8
BRANCH   4  10
ATOM     10  O   UNL     1      38.051 -26.510 -15.443  0.00  0.00    -0.373 OA
ATOM     11  H   UNL     1      38.809 -26.989 -15.810  0.00  0.00    +0.211 HD
ENDBRANCH   4  10
BRANCH   5  12
ATOM     12  O   UNL     1      35.042 -23.618 -13.265  0.00  0.00    -0.376 OA
ATOM     13  H   UNL     1      34.599 -24.481 -13.273  0.00  0.00    +0.211 HD
ENDBRANCH   5  12
BRANCH   4  15
ATOM     14  O   UNL     1      40.788 -24.795 -14.110  0.00  0.00    -0.247 OA
ATOM     15  C   UNL     1      40.003 -25.333 -14.878  0.00  0.00    +0.342 C 
BRANCH  15  16
ATOM     16  O   UNL     1      40.362 -25.948 -16.031  0.00  0.00    -0.478 OA
ATOM     17  H   UNL     1      39.976 -26.769 -16.264  0.00  0.00    +0.295 HD
ENDBRANCH  15  16
ENDBRANCH   4  15
TORSDOF 5
ENDMDL
MODEL 2
REMARK VINA RESULT:      -7.2      1.641      4.115
REMARK  Name = 448993
REMARK  5 active torsions:
REMARK  status: ('A' for Active; 'I' for Inactive)
REMARK    1  A    between atoms: C_3  and  O_8
REMARK    2  A    between atoms: C_4  and  O_10
REMARK    3  A    between atoms: C_4  and  C_15
REMARK    4  A    between atoms: C_5  and  O_12
REMARK    5  A    between atoms: C_15  and  O_16
REMARK                            x       y       z     vdW  Elec       q    Type
REMARK                         _______ _______ _______ _____ _____    ______ ____
ROOT
ATOM      1  F   UNL     1      36.319 -22.906 -15.405  0.00  0.00    -0.207 F 
ATOM      2  C   UNL     1      37.913 -25.217 -12.257  0.00  0.00    +0.074 C 
ATOM      3  C   UNL     1      38.820 -24.936 -13.459  0.00  0.00    +0.147 C 
ATOM      4  C   UNL     1      37.040 -24.002 -11.924  0.00  0.00    +0.200 C 
ATOM      5  C   UNL     1      37.999 -24.545 -14.695  0.00  0.00    +0.187 C 
ATOM      6  C   UNL     1      36.484 -23.311 -13.137  0.00  0.00    +0.038 C 
ATOM      7  C   UNL     1      36.901 -23.574 -14.383  0.00  0.00    +0.145 C 
ENDROOT
BRANCH   3   8
ATOM      8  O   UNL     1      39.588 -26.103 -13.749  0.00  0.00    -0.381 OA
ATOM      9  H   UNL     1      40.412 -26.083 -13.239  0.00  0.00    +0.210 HD
ENDBRANCH   3   8
BRANCH   4  10
ATOM     10  O   UNL     1      37.797 -23.082 -11.150  0.00  0.00    -0.373 OA
ATOM     11  H   UNL     1      38.171 -22.402 -11.731  0.00  0.00    +0.211 HD
ENDBRANCH   4  10
BRANCH   5  12
ATOM     12  O   UNL     1      38.871 -23.944 -15.652  0.00  0.00    -0.376 OA
ATOM     13  H   UNL     1      39.774 -23.924 -15.299  0.00  0.00    +0.211 HD
ENDBRANCH   5  12
BRANCH   4  15
ATOM     14  O   UNL     1      35.827 -24.344  -9.856  0.00  0.00    -0.247 OA
ATOM     15  C   UNL     1      35.874 -24.427 -11.075  0.00  0.00    +0.342 C 
BRANCH  15  16
ATOM     16  O   UNL     1      34.874 -24.919 -11.847  0.00  0.00    -0.478 OA
ATOM     17  H   UNL     1      35.037 -25.640 -12.421  0.00  0.00    +0.295 HD
ENDBRANCH  15  16
ENDBRANCH   4  15
TORSDOF 5
ENDMDL
MODEL 3
REMARK VINA RESULT:      -6.6      6.590      8.749
REMARK  Name = 448993
REMARK  5 active torsions:
REMARK  status: ('A' for Active; 'I' for Inactive)
REMARK    1  A    between atoms: C_3  and  O_8
REMARK    2  A    between atoms: C_4  and  O_10
REMARK    3  A    between atoms: C_4  and  C_15
REMARK    4  A    between atoms: C_5  and  O_12
REMARK    5  A    between atoms: C_15  and  O_16
REMARK                            x       y       z     vdW  Elec       q    Type
REMARK                         _______ _______ _______ _____ _____    ______ ____
ROOT
ATOM      1  F   UNL     1      32.821 -22.840 -16.683  0.00  0.00    -0.207 F 
ATOM      2  C   UNL     1      29.281 -24.143 -14.796  0.00  0.00    +0.074 C 
ATOM      3  C   UNL     1      30.525 -23.964 -13.921  0.00  0.00    +0.147 C 
ATOM      4  C   UNL     1      29.196 -23.054 -15.872  0.00  0.00    +0.200 C 
ATOM      5  C   UNL     1      31.806 -23.983 -14.766  0.00  0.00    +0.187 C 
ATOM      6  C   UNL     1      30.520 -22.734 -16.508  0.00  0.00    +0.038 C 
ATOM      7  C   UNL     1      31.690 -23.172 -16.021  0.00  0.00    +0.145 C 
ENDROOT
BRANCH   3   8
ATOM      8  O   UNL     1      30.576 -25.016 -12.959  0.00  0.00    -0.381 OA
ATOM      9  H   UNL     1      31.326 -24.871 -12.361  0.00  0.00    +0.210 HD
ENDBRANCH   3   8
BRANCH   4  10
ATOM     10  O   UNL     1      28.640 -21.877 -15.301  0.00  0.00    -0.373 OA
ATOM     11  H   UNL     1      29.116 -21.657 -14.487  0.00  0.00    +0.211 HD
ENDBRANCH   4  10
BRANCH   5  12
ATOM     12  O   UNL     1      32.877 -23.452 -13.987  0.00  0.00    -0.376 OA
ATOM     13  H   UNL     1      32.588 -22.630 -13.558  0.00  0.00    +0.211 HD
ENDBRANCH   5  12
BRANCH   4  15
ATOM     14  O   UNL     1      27.977 -24.648 -17.226  0.00  0.00    -0.247 OA
ATOM     15  C   UNL     1      28.265 -23.488 -16.968  0.00  0.00    +0.342 C 
BRANCH  15  16
ATOM     16  O   UNL     1      27.784 -22.414 -17.641  0.00  0.00    -0.478 OA
ATOM     17  H   UNL     1      28.375 -21.799 -18.027  0.00  0.00    +0.295 HD
ENDBRANCH  15  16
ENDBRANCH   4  15
TORSDOF 5
ENDMDL
MODEL 4
REMARK VINA RESULT:      -6.4      2.292      2.842
REMARK  Name = 448993
REMARK  5 active torsions:
REMARK  status: ('A' for Active; 'I' for Inactive)
REMARK    1  A    between atoms: C_3  and  O_8
REMARK    2  A    between atoms: C_4  and  O_10
REMARK    3  A    between atoms: C_4  and  C_15
REMARK    4  A    between atoms: C_5  and  O_12
REMARK    5  A    between atoms: C_15  and  O_16
REMARK                            x       y       z     vdW  Elec       q    Type
REMARK                         _______ _______ _______ _____ _____    ______ ____
ROOT
ATOM      1  F   UNL     1      33.463 -23.807 -13.195  0.00  0.00    -0.207 F 
ATOM      2  C   UNL     1      37.650 -24.139 -13.579  0.00  0.00    +0.074 C 
ATOM      3  C   UNL     1      36.988 -24.857 -12.400  0.00  0.00    +0.147 C 
ATOM      4  C   UNL     1      36.777 -24.214 -14.837  0.00  0.00    +0.200 C 
ATOM      5  C   UNL     1      35.605 -24.266 -12.094  0.00  0.00    +0.187 C 
ATOM      6  C   UNL     1      35.312 -24.014 -14.564  0.00  0.00    +0.038 C 
ATOM      7  C   UNL     1      34.793 -24.015 -13.328  0.00  0.00    +0.145 C 
ENDROOT
BRANCH   3   8
ATOM      8  O   UNL     1      37.821 -24.733 -11.248  0.00  0.00    -0.381 OA
ATOM      9  H   UNL     1      38.174 -23.831 -11.200  0.00  0.00    +0.210 HD
ENDBRANCH   3   8
BRANCH   4  10
ATOM     10  O   UNL     1      36.980 -25.469 -15.472  0.00  0.00    -0.373 OA
ATOM     11  H   UNL     1      36.152 -25.972 -15.467  0.00  0.00    +0.211 HD
ENDBRANCH   4  10
BRANCH   5  12
ATOM     12  O   UNL     1      34.889 -25.180 -11.264  0.00  0.00    -0.376 OA
ATOM     13  H   UNL     1      33.961 -25.212 -11.544  0.00  0.00    +0.211 HD
ENDBRANCH   5  12
BRANCH   4  15
ATOM     14  O   UNL     1      36.446 -22.358 -16.356  0.00  0.00    -0.247 OA
ATOM     15  C   UNL     1      37.199 -23.157 -15.818  0.00  0.00    +0.342 C 
BRANCH  15  16
ATOM     16  O   UNL     1      38.537 -23.208 -16.030  0.00  0.00    -0.478 OA
ATOM     17  H   UNL     1      38.900 -23.878 -16.573  0.00  0.00    +0.295 HD
ENDBRANCH  15  16
ENDBRANCH   4  15
TORSDOF 5
ENDMDL
MODEL 5
REMARK VINA RESULT:      -6.4      2.120      3.841
REMARK  Name = 448993
REMARK  5 active torsions:
REMARK  status: ('A' for Active; 'I' for Inactive)
REMARK    1  A    between atoms: C_3  and  O_8
REMARK    2  A    between atoms: C_4  and  O_10
REMARK    3  A    between atoms: C_4  and  C_15
REMARK    4  A    between atoms: C_5  and  O_12
REMARK    5  A    between atoms: C_15  and  O_16
REMARK                            x       y       z     vdW  Elec       q    Type
REMARK                         _______ _______ _______ _____ _____    ______ ____
ROOT
ATOM      1  F   UNL     1      34.653 -25.932 -15.056  0.00  0.00    -0.207 F 
ATOM      2  C   UNL     1      38.465 -24.978 -13.524  0.00  0.00    +0.074 C 
ATOM      3  C   UNL     1      38.403 -25.890 -14.753  0.00  0.00    +0.147 C 
ATOM      4  C   UNL     1      37.391 -23.886 -13.588  0.00  0.00    +0.200 C 
ATOM      5  C   UNL     1      37.021 -26.543 -14.892  0.00  0.00    +0.187 C 
ATOM      6  C   UNL     1      36.063 -24.378 -14.090  0.00  0.00    +0.038 C 
ATOM      7  C   UNL     1      35.896 -25.582 -14.655  0.00  0.00    +0.145 C 
ENDROOT
BRANCH   3   8
ATOM      8  O   UNL     1      39.397 -26.906 -14.632  0.00  0.00    -0.381 OA
ATOM      9  H   UNL     1      39.639 -27.228 -15.515  0.00  0.00    +0.210 HD
ENDBRANCH   3   8
BRANCH   4  10
ATOM     10  O   UNL     1      37.854 -22.825 -14.412  0.00  0.00    -0.373 OA
ATOM     11  H   UNL     1      37.109 -22.253 -14.651  0.00  0.00    +0.211 HD
ENDBRANCH   4  10
BRANCH   5  12
ATOM     12  O   UNL     1      36.893 -27.066 -16.213  0.00  0.00    -0.376 OA
ATOM     13  H   UNL     1      37.021 -26.353 -16.858  0.00  0.00    +0.211 HD
ENDBRANCH   5  12
BRANCH   4  15
ATOM     14  O   UNL     1      36.086 -23.248 -11.651  0.00  0.00    -0.247 OA
ATOM     15  C   UNL     1      37.167 -23.307 -12.219  0.00  0.00    +0.342 C 
BRANCH  15  16
ATOM     16  O   UNL     1      38.332 -22.854 -11.694  0.00  0.00    -0.478 OA
ATOM     17  H   UNL     1      38.935 -23.454 -11.304  0.00  0.00    +0.295 HD
ENDBRANCH  15  16
ENDBRANCH   4  15
TORSDOF 5
ENDMDL
MODEL 6
REMARK VINA RESULT:      -6.3     10.423     11.618
REMARK  Name = 448993
REMARK  5 active torsions:
REMARK  status: ('A' for Active; 'I' for Inactive)
REMARK    1  A    between atoms: C_3  and  O_8
REMARK    2  A    between atoms: C_4  and  O_10
REMARK    3  A    between atoms: C_4  and  C_15
REMARK    4  A    between atoms: C_5  and  O_12
REMARK    5  A    between atoms: C_15  and  O_16
REMARK                            x       y       z     vdW  Elec       q    Type
REMARK                         _______ _______ _______ _____ _____    ______ ____
ROOT
ATOM      1  F   UNL     1      34.660 -19.800 -25.275  0.00  0.00    -0.207 F 
ATOM      2  C   UNL     1      35.336 -17.204 -22.020  0.00  0.00    +0.074 C 
ATOM      3  C   UNL     1      34.621 -16.631 -23.247  0.00  0.00    +0.147 C 
ATOM      4  C   UNL     1      34.898 -18.648 -21.746  0.00  0.00    +0.200 C 
ATOM      5  C   UNL     1      34.882 -17.487 -24.493  0.00  0.00    +0.187 C 
ATOM      6  C   UNL     1      34.759 -19.480 -22.989  0.00  0.00    +0.038 C 
ATOM      7  C   UNL     1      34.775 -18.957 -24.224  0.00  0.00    +0.145 C 
ENDROOT
BRANCH   3   8
ATOM      8  O   UNL     1      35.083 -15.301 -23.479  0.00  0.00    -0.381 OA
ATOM      9  H   UNL     1      35.728 -15.059 -22.796  0.00  0.00    +0.210 HD
ENDBRANCH   3   8
BRANCH   4  10
ATOM     10  O   UNL     1      33.668 -18.635 -21.035  0.00  0.00    -0.373 OA
ATOM     11  H   UNL     1      33.284 -17.746 -21.071  0.00  0.00    +0.211 HD
ENDBRANCH   4  10
BRANCH   5  12
ATOM     12  O   UNL     1      33.923 -17.144 -25.493  0.00  0.00    -0.376 OA
ATOM     13  H   UNL     1      34.073 -16.231 -25.786  0.00  0.00    +0.211 HD
ENDBRANCH   5  12
BRANCH   4  15
ATOM     14  O   UNL     1      37.111 -19.138 -20.895  0.00  0.00    -0.247 OA
ATOM     15  C   UNL     1      35.904 -19.329 -20.861  0.00  0.00    +0.342 C 
BRANCH  15  16
ATOM     16  O   UNL     1      35.290 -20.191 -20.014  0.00  0.00    -0.478 OA
ATOM     17  H   UNL     1      35.371 -21.114 -20.145  0.00  0.00    +0.295 HD
ENDBRANCH  15  16
ENDBRANCH   4  15
TORSDOF 5
ENDMDL
MODEL 7
REMARK VINA RESULT:      -6.3      2.125      4.096
REMARK  Name = 448993
REMARK  5 active torsions:
REMARK  status: ('A' for Active; 'I' for Inactive)
REMARK    1  A    between atoms: C_3  and  O_8
REMARK    2  A    between atoms: C_4  and  O_10
REMARK    3  A    between atoms: C_4  and  C_15
REMARK    4  A    between atoms: C_5  and  O_12
REMARK    5  A    between atoms: C_15  and  O_16
REMARK                            x       y       z     vdW  Elec       q    Type
REMARK                         _______ _______ _______ _____ _____    ______ ____
ROOT
ATOM      1  F   UNL     1      33.733 -23.839 -15.465  0.00  0.00    -0.207 F 
ATOM      2  C   UNL     1      37.469 -24.241 -13.549  0.00  0.00    +0.074 C 
ATOM      3  C   UNL     1      37.430 -23.465 -14.868  0.00  0.00    +0.147 C 
ATOM      4  C   UNL     1      36.221 -23.962 -12.702  0.00  0.00    +0.200 C 
ATOM      5  C   UNL     1      36.175 -23.812 -15.681  0.00  0.00    +0.187 C 
ATOM      6  C   UNL     1      34.951 -23.910 -13.504  0.00  0.00    +0.038 C 
ATOM      7  C   UNL     1      34.934 -23.865 -14.843  0.00  0.00    +0.145 C 
ENDROOT
BRANCH   3   8
ATOM      8  O   UNL     1      38.592 -23.780 -15.632  0.00  0.00    -0.381 OA
ATOM      9  H   UNL     1      39.313 -23.179 -15.388  0.00  0.00    +0.210 HD
ENDBRANCH   3   8
BRANCH   4  10
ATOM     10  O   UNL     1      36.398 -22.739 -12.000  0.00  0.00    -0.373 OA
ATOM     11  H   UNL     1      37.109 -22.228 -12.415  0.00  0.00    +0.211 HD
ENDBRANCH   4  10
BRANCH   5  12
ATOM     12  O   UNL     1      35.993 -22.819 -16.689  0.00  0.00    -0.376 OA
ATOM     13  H   UNL     1      35.949 -23.246 -17.559  0.00  0.00    +0.211 HD
ENDBRANCH   5  12
BRANCH   4  15
ATOM     14  O   UNL     1      35.304 -24.974 -10.703  0.00  0.00    -0.247 OA
ATOM     15  C   UNL     1      36.054 -25.038 -11.666  0.00  0.00    +0.342 C 
BRANCH  15  16
ATOM     16  O   UNL     1      36.854 -26.097 -11.942  0.00  0.00    -0.478 OA
ATOM     17  H   UNL     1      36.497 -26.860 -12.349  0.00  0.00    +0.295 HD
ENDBRANCH  15  16
ENDBRANCH   4  15
TORSDOF 5
ENDMDL
MODEL 8
REMARK VINA RESULT:      -6.3      1.740      2.189
REMARK  Name = 448993
REMARK  5 active torsions:
REMARK  status: ('A' for Active; 'I' for Inactive)
REMARK    1  A    between atoms: C_3  and  O_8
REMARK    2  A    between atoms: C_4  and  O_10
REMARK    3  A    between atoms: C_4  and  C_15
REMARK    4  A    between atoms: C_5  and  O_12
REMARK    5  A    between atoms: C_15  and  O_16
REMARK                            x       y       z     vdW  Elec       q    Type
REMARK                         _______ _______ _______ _____ _____    ______ ____
ROOT
ATOM      1  F   UNL     1      37.346 -21.958 -16.470  0.00  0.00    -0.207 F 
ATOM      2  C   UNL     1      36.507 -25.284 -14.015  0.00  0.00    +0.074 C 
ATOM      3  C   UNL     1      35.437 -24.863 -15.026  0.00  0.00    +0.147 C 
ATOM      4  C   UNL     1      37.916 -25.122 -14.596  0.00  0.00    +0.200 C 
ATOM      5  C   UNL     1      35.638 -23.408 -15.474  0.00  0.00    +0.187 C 
ATOM      6  C   UNL     1      38.095 -23.861 -15.394  0.00  0.00    +0.038 C 
ATOM      7  C   UNL     1      37.070 -23.081 -15.768  0.00  0.00    +0.145 C 
ENDROOT
BRANCH   3   8
ATOM      8  O   UNL     1      34.148 -25.001 -14.430  0.00  0.00    -0.381 OA
ATOM      9  H   UNL     1      34.102 -25.844 -13.952  0.00  0.00    +0.210 HD
ENDBRANCH   3   8
BRANCH   4  10
ATOM     10  O   UNL     1      38.220 -26.250 -15.405  0.00  0.00    -0.373 OA
ATOM     11  H   UNL     1      37.540 -26.351 -16.088  0.00  0.00    +0.211 HD
ENDBRANCH   4  10
BRANCH   5  12
ATOM     12  O   UNL     1      34.875 -23.185 -16.659  0.00  0.00    -0.376 OA
ATOM     13  H   UNL     1      34.730 -24.030 -17.115  0.00  0.00    +0.211 HD
ENDBRANCH   5  12
BRANCH   4  15
ATOM     14  O   UNL     1      38.992 -24.243 -12.613  0.00  0.00    -0.247 OA
ATOM     15  C   UNL     1      38.928 -25.097 -13.486  0.00  0.00    +0.342 C 
BRANCH  15  16
ATOM     16  O   UNL     1      39.770 -26.155 -13.582  0.00  0.00    -0.478 OA
ATOM     17  H   UNL     1      40.304 -26.397 -12.852  0.00  0.00    +0.295 HD
ENDBRANCH  15  16
ENDBRANCH   4  15
TORSDOF 5
ENDMDL
MODEL 9
REMARK VINA RESULT:      -6.2      2.491      3.609
REMARK  Name = 448993
REMARK  5 active torsions:
REMARK  status: ('A' for Active; 'I' for Inactive)
REMARK    1  A    between atoms: C_3  and  O_8
REMARK    2  A    between atoms: C_4  and  O_10
REMARK    3  A    between atoms: C_4  and  C_15
REMARK    4  A    between atoms: C_5  and  O_12
REMARK    5  A    between atoms: C_15  and  O_16
REMARK                            x       y       z     vdW  Elec       q    Type
REMARK                         _______ _______ _______ _____ _____    ______ ____
ROOT
ATOM      1  F   UNL     1      37.794 -23.166 -16.114  0.00  0.00    -0.207 F 
ATOM      2  C   UNL     1      35.184 -23.705 -12.845  0.00  0.00    +0.074 C 
ATOM      3  C   UNL     1      34.584 -23.790 -14.251  0.00  0.00    +0.147 C 
ATOM      4  C   UNL     1      36.581 -24.335 -12.797  0.00  0.00    +0.200 C 
ATOM      5  C   UNL     1      35.488 -23.102 -15.284  0.00  0.00    +0.187 C 
ATOM      6  C   UNL     1      37.428 -24.008 -13.995  0.00  0.00    +0.038 C 
ATOM      7  C   UNL     1      36.938 -23.433 -15.102  0.00  0.00    +0.145 C 
ENDROOT
BRANCH   3   8
ATOM      8  O   UNL     1      33.302 -23.164 -14.252  0.00  0.00    -0.381 OA
ATOM      9  H   UNL     1      32.646 -23.772 -14.629  0.00  0.00    +0.210 HD
ENDBRANCH   3   8
BRANCH   4  10
ATOM     10  O   UNL     1      36.452 -25.745 -12.669  0.00  0.00    -0.373 OA
ATOM     11  H   UNL     1      36.005 -25.954 -11.835  0.00  0.00    +0.211 HD
ENDBRANCH   4  10
BRANCH   5  12
ATOM     12  O   UNL     1      35.093 -23.521 -16.589  0.00  0.00    -0.376 OA
ATOM     13  H   UNL     1      35.872 -23.563 -17.166  0.00  0.00    +0.211 HD
ENDBRANCH   5  12
BRANCH   4  15
ATOM     14  O   UNL     1      38.392 -23.268 -11.597  0.00  0.00    -0.247 OA
ATOM     15  C   UNL     1      37.319 -23.853 -11.580  0.00  0.00    +0.342 C 
BRANCH  15  16
ATOM     16  O   UNL     1      36.632 -24.158 -10.452  0.00  0.00    -0.478 OA
ATOM     17  H   UNL     1      36.882 -24.900  -9.938  0.00  0.00    +0.295 HD
ENDBRANCH  15  16
ENDBRANCH   4  15
TORSDOF 5
ENDMDL
