MODEL 1
REMARK VINA RESULT:     -11.1      0.000      0.000
REMARK  Name = 56832738
REMARK  10 active torsions:
REMARK  status: ('A' for Active; 'I' for Inactive)
REMARK    1  A    between atoms: C_2  and  C_11
REMARK    2  A    between atoms: C_5  and  C_25
REMARK    3  A    between atoms: C_10  and  C_22
REMARK    4  A    between atoms: C_12  and  O_16
REMARK    5  A    between atoms: C_13  and  O_18
REMARK    6  A    between atoms: C_14  and  O_20
REMARK    7  A    between atoms: C_22  and  O_23
REMARK    8  A    between atoms: C_25  and  C_27
REMARK    9  A    between atoms: C_32  and  O_33
REMARK   10  A    between atoms: O_33  and  C_34
REMARK                            x       y       z     vdW  Elec       q    Type
REMARK                         _______ _______ _______ _____ _____    ______ ____
ROOT
ATOM      1 CL   UNL     1      30.780 -22.545 -17.269  0.00  0.00    -0.083 Cl
ATOM      2  C   UNL     1      34.477 -23.708 -14.952  0.00  0.00    +0.031 C 
ATOM      3  C   UNL     1      34.495 -23.757 -16.346  0.00  0.00    -0.003 C 
ATOM      4  C   UNL     1      33.322 -23.300 -14.284  0.00  0.00    +0.001 C 
ATOM      5  C   UNL     1      33.359 -23.400 -17.071  0.00  0.00    -0.007 C 
ATOM      6  C   UNL     1      32.186 -22.942 -15.010  0.00  0.00    +0.011 C 
ATOM      7  C   UNL     1      32.204 -22.992 -16.404  0.00  0.00    +0.054 C 
ENDROOT
BRANCH   2  11
ATOM      8  O   UNL     1      35.387 -24.525 -12.826  0.00  0.00    -0.326 OA
ATOM      9  O   UNL     1      36.590 -22.955 -14.043  0.00  0.00    -0.326 OA
ATOM     10  C   UNL     1      36.608 -24.284 -12.117  0.00  0.00    +0.176 C 
ATOM     11  C   UNL     1      35.711 -24.096 -14.163  0.00  0.00    +0.235 C 
ATOM     12  C   UNL     1      37.608 -25.402 -12.512  0.00  0.00    +0.169 C 
ATOM     13  C   UNL     1      36.512 -25.243 -14.821  0.00  0.00    +0.196 C 
ATOM     14  C   UNL     1      37.806 -25.541 -14.037  0.00  0.00    +0.172 C 
ATOM     15  C   UNL     1      36.976 -22.912 -12.662  0.00  0.00    +0.177 C 
BRANCH  12  16
ATOM     16  O   UNL     1      37.109 -26.646 -12.013  0.00  0.00    -0.379 OA
ATOM     17  H   UNL     1      37.845 -27.268 -11.898  0.00  0.00    +0.211 HD
ENDBRANCH  12  16
BRANCH  13  18
ATOM     18  O   UNL     1      35.715 -26.427 -14.859  0.00  0.00    -0.377 OA
ATOM     19  H   UNL     1      35.174 -26.426 -15.665  0.00  0.00    +0.211 HD
ENDBRANCH  13  18
BRANCH  14  20
ATOM     20  O   UNL     1      38.812 -24.623 -14.467  0.00  0.00    -0.379 OA
ATOM     21  H   UNL     1      39.670 -24.891 -14.104  0.00  0.00    +0.211 HD
ENDBRANCH  14  20
BRANCH  10  22
ATOM     22  C   UNL     1      36.331 -24.254 -10.619  0.00  0.00    +0.169 C 
BRANCH  22  23
ATOM     23  O   UNL     1      35.248 -25.125 -10.344  0.00  0.00    -0.379 OA
ATOM     24  H   UNL     1      35.094 -25.156  -9.386  0.00  0.00    +0.211 HD
ENDBRANCH  22  23
ENDBRANCH  10  22
ENDBRANCH   2  11
BRANCH   5  25
ATOM     25  C   UNL     1      33.419 -23.468 -18.564  0.00  0.00    +0.054 C 
BRANCH  25  27
ATOM     26  F   UNL     1      37.107 -20.623 -20.040  0.00  0.00    -0.201 F 
ATOM     27  C   UNL     1      33.937 -22.201 -19.213  0.00  0.00    -0.015 C 
ATOM     28  C   UNL     1      35.310 -21.988 -19.331  0.00  0.00    +0.029 C 
ATOM     29  C   UNL     1      33.039 -21.247 -19.692  0.00  0.00    -0.001 C 
ATOM     30  C   UNL     1      35.786 -20.822 -19.929  0.00  0.00    +0.174 C 
ATOM     31  C   UNL     1      33.515 -20.081 -20.289  0.00  0.00    +0.039 C 
ATOM     32  C   UNL     1      34.888 -19.868 -20.408  0.00  0.00    +0.166 C 
BRANCH  32  33
ATOM     33  O   UNL     1      35.352 -18.728 -20.991  0.00  0.00    -0.473 OA
BRANCH  33  34
ATOM     34  C   UNL     1      34.628 -18.236 -22.119  0.00  0.00    +0.206 C 
ATOM     35  C   UNL     1      35.097 -18.966 -23.360  0.00  0.00    +0.051 C 
ENDBRANCH  33  34
ENDBRANCH  32  33
ENDBRANCH  25  27
ENDBRANCH   5  25
TORSDOF 10
ENDMDL
MODEL 2
REMARK VINA RESULT:     -10.7      3.252      5.058
REMARK  Name = 56832738
REMARK  10 active torsions:
REMARK  status: ('A' for Active; 'I' for Inactive)
REMARK    1  A    between atoms: C_2  and  C_11
REMARK    2  A    between atoms: C_5  and  C_25
REMARK    3  A    between atoms: C_10  and  C_22
REMARK    4  A    between atoms: C_12  and  O_16
REMARK    5  A    between atoms: C_13  and  O_18
REMARK    6  A    between atoms: C_14  and  O_20
REMARK    7  A    between atoms: C_22  and  O_23
REMARK    8  A    between atoms: C_25  and  C_27
REMARK    9  A    between atoms: C_32  and  O_33
REMARK   10  A    between atoms: O_33  and  C_34
REMARK                            x       y       z     vdW  Elec       q    Type
REMARK                         _______ _______ _______ _____ _____    ______ ____
ROOT
ATOM      1 CL   UNL     1      37.111 -22.024 -17.745  0.00  0.00    -0.083 Cl
ATOM      2  C   UNL     1      33.199 -23.180 -15.811  0.00  0.00    +0.031 C 
ATOM      3  C   UNL     1      33.296 -23.154 -17.202  0.00  0.00    -0.003 C 
ATOM      4  C   UNL     1      34.306 -22.853 -15.028  0.00  0.00    +0.001 C 
ATOM      5  C   UNL     1      34.500 -22.798 -17.810  0.00  0.00    -0.007 C 
ATOM      6  C   UNL     1      35.510 -22.497 -15.636  0.00  0.00    +0.011 C 
ATOM      7  C   UNL     1      35.607 -22.470 -17.028  0.00  0.00    +0.054 C 
ENDROOT
BRANCH   2  11
ATOM      8  O   UNL     1      31.003 -24.244 -16.061  0.00  0.00    -0.326 OA
ATOM      9  O   UNL     1      31.207 -22.378 -14.693  0.00  0.00    -0.326 OA
ATOM     10  C   UNL     1      29.716 -24.001 -15.479  0.00  0.00    +0.176 C 
ATOM     11  C   UNL     1      31.891 -23.567 -15.150  0.00  0.00    +0.235 C 
ATOM     12  C   UNL     1      29.577 -24.929 -14.244  0.00  0.00    +0.169 C 
ATOM     13  C   UNL     1      32.083 -24.500 -13.932  0.00  0.00    +0.196 C 
ATOM     14  C   UNL     1      30.738 -24.791 -13.236  0.00  0.00    +0.172 C 
ATOM     15  C   UNL     1      29.848 -22.527 -15.126  0.00  0.00    +0.177 C 
BRANCH  12  16
ATOM     16  O   UNL     1      29.546 -26.284 -14.703  0.00  0.00    -0.379 OA
ATOM     17  H   UNL     1      28.764 -26.730 -14.344  0.00  0.00    +0.211 HD
ENDBRANCH  12  16
BRANCH  13  18
ATOM     18  O   UNL     1      32.657 -25.735 -14.359  0.00  0.00    -0.377 OA
ATOM     19  H   UNL     1      33.498 -25.562 -14.811  0.00  0.00    +0.211 HD
ENDBRANCH  13  18
BRANCH  14  20
ATOM     20  O   UNL     1      30.456 -23.716 -12.339  0.00  0.00    -0.379 OA
ATOM     21  H   UNL     1      29.918 -24.043 -11.601  0.00  0.00    +0.211 HD
ENDBRANCH  14  20
BRANCH  10  22
ATOM     22  C   UNL     1      28.632 -24.250 -16.520  0.00  0.00    +0.169 C 
BRANCH  22  23
ATOM     23  O   UNL     1      28.542 -23.112 -17.358  0.00  0.00    -0.379 OA
ATOM     24  H   UNL     1      29.129 -23.226 -18.122  0.00  0.00    +0.211 HD
ENDBRANCH  22  23
ENDBRANCH  10  22
ENDBRANCH   2  11
BRANCH   5  25
ATOM     25  C   UNL     1      34.563 -22.781 -19.304  0.00  0.00    +0.054 C 
BRANCH  25  27
ATOM     26  F   UNL     1      36.553 -18.789 -21.297  0.00  0.00    -0.201 F 
ATOM     27  C   UNL     1      34.435 -21.396 -19.905  0.00  0.00    -0.015 C 
ATOM     28  C   UNL     1      35.574 -20.714 -20.333  0.00  0.00    +0.029 C 
ATOM     29  C   UNL     1      33.179 -20.804 -20.028  0.00  0.00    -0.001 C 
ATOM     30  C   UNL     1      35.455 -19.440 -20.886  0.00  0.00    +0.174 C 
ATOM     31  C   UNL     1      33.061 -19.529 -20.581  0.00  0.00    +0.039 C 
ATOM     32  C   UNL     1      34.199 -18.847 -21.010  0.00  0.00    +0.166 C 
BRANCH  32  33
ATOM     33  O   UNL     1      34.082 -17.602 -21.549  0.00  0.00    -0.473 OA
BRANCH  33  34
ATOM     34  C   UNL     1      34.808 -16.550 -20.914  0.00  0.00    +0.206 C 
ATOM     35  C   UNL     1      33.883 -15.368 -20.710  0.00  0.00    +0.051 C 
ENDBRANCH  33  34
ENDBRANCH  32  33
ENDBRANCH  25  27
ENDBRANCH   5  25
TORSDOF 10
ENDMDL
MODEL 3
REMARK VINA RESULT:     -10.5      1.035      2.418
REMARK  Name = 56832738
REMARK  10 active torsions:
REMARK  status: ('A' for Active; 'I' for Inactive)
REMARK    1  A    between atoms: C_2  and  C_11
REMARK    2  A    between atoms: C_5  and  C_25
REMARK    3  A    between atoms: C_10  and  C_22
REMARK    4  A    between atoms: C_12  and  O_16
REMARK    5  A    between atoms: C_13  and  O_18
REMARK    6  A    between atoms: C_14  and  O_20
REMARK    7  A    between atoms: C_22  and  O_23
REMARK    8  A    between atoms: C_25  and  C_27
REMARK    9  A    between atoms: C_32  and  O_33
REMARK   10  A    between atoms: O_33  and  C_34
REMARK                            x       y       z     vdW  Elec       q    Type
REMARK                         _______ _______ _______ _____ _____    ______ ____
ROOT
ATOM      1 CL   UNL     1      31.004 -22.463 -17.026  0.00  0.00    -0.083 Cl
ATOM      2  C   UNL     1      34.687 -24.074 -14.971  0.00  0.00    +0.031 C 
ATOM      3  C   UNL     1      34.625 -24.068 -16.364  0.00  0.00    -0.003 C 
ATOM      4  C   UNL     1      33.617 -23.583 -14.223  0.00  0.00    +0.001 C 
ATOM      5  C   UNL     1      33.492 -23.573 -17.009  0.00  0.00    -0.007 C 
ATOM      6  C   UNL     1      32.484 -23.087 -14.868  0.00  0.00    +0.011 C 
ATOM      7  C   UNL     1      32.422 -23.082 -16.262  0.00  0.00    +0.054 C 
ENDROOT
BRANCH   2  11
ATOM      8  O   UNL     1      37.107 -23.881 -14.625  0.00  0.00    -0.326 OA
ATOM      9  O   UNL     1      36.134 -25.989 -14.653  0.00  0.00    -0.326 OA
ATOM     10  C   UNL     1      38.147 -24.833 -14.365  0.00  0.00    +0.176 C 
ATOM     11  C   UNL     1      35.918 -24.613 -14.269  0.00  0.00    +0.235 C 
ATOM     12  C   UNL     1      38.340 -24.908 -12.828  0.00  0.00    +0.169 C 
ATOM     13  C   UNL     1      35.804 -24.563 -12.727  0.00  0.00    +0.196 C 
ATOM     14  C   UNL     1      37.036 -25.205 -12.057  0.00  0.00    +0.172 C 
ATOM     15  C   UNL     1      37.530 -26.085 -14.968  0.00  0.00    +0.177 C 
BRANCH  12  16
ATOM     16  O   UNL     1      38.846 -23.648 -12.377  0.00  0.00    -0.379 OA
ATOM     17  H   UNL     1      38.481 -23.447 -11.501  0.00  0.00    +0.211 HD
ENDBRANCH  12  16
BRANCH  13  18
ATOM     18  O   UNL     1      35.701 -23.206 -12.296  0.00  0.00    -0.377 OA
ATOM     19  H   UNL     1      34.896 -22.810 -12.667  0.00  0.00    +0.211 HD
ENDBRANCH  13  18
BRANCH  14  20
ATOM     20  O   UNL     1      36.832 -26.618 -12.004  0.00  0.00    -0.379 OA
ATOM     21  H   UNL     1      36.172 -26.874 -12.666  0.00  0.00    +0.211 HD
ENDBRANCH  14  20
BRANCH  10  22
ATOM     22  C   UNL     1      39.418 -24.410 -15.091  0.00  0.00    +0.169 C 
BRANCH  22  23
ATOM     23  O   UNL     1      40.535 -24.861 -14.345  0.00  0.00    -0.379 OA
ATOM     24  H   UNL     1      41.039 -25.500 -14.873  0.00  0.00    +0.211 HD
ENDBRANCH  22  23
ENDBRANCH  10  22
ENDBRANCH   2  11
BRANCH   5  25
ATOM     25  C   UNL     1      33.464 -23.586 -18.504  0.00  0.00    +0.054 C 
BRANCH  25  27
ATOM     26  F   UNL     1      37.137 -20.650 -19.828  0.00  0.00    -0.201 F 
ATOM     27  C   UNL     1      33.976 -22.308 -19.136  0.00  0.00    -0.015 C 
ATOM     28  C   UNL     1      35.348 -22.059 -19.194  0.00  0.00    +0.029 C 
ATOM     29  C   UNL     1      33.076 -21.380 -19.659  0.00  0.00    -0.001 C 
ATOM     30  C   UNL     1      35.818 -20.883 -19.776  0.00  0.00    +0.174 C 
ATOM     31  C   UNL     1      33.547 -20.204 -20.242  0.00  0.00    +0.039 C 
ATOM     32  C   UNL     1      34.919 -19.955 -20.299  0.00  0.00    +0.166 C 
BRANCH  32  33
ATOM     33  O   UNL     1      35.377 -18.806 -20.868  0.00  0.00    -0.473 OA
BRANCH  33  34
ATOM     34  C   UNL     1      34.400 -17.902 -21.382  0.00  0.00    +0.206 C 
ATOM     35  C   UNL     1      34.779 -16.491 -20.988  0.00  0.00    +0.051 C 
ENDBRANCH  33  34
ENDBRANCH  32  33
ENDBRANCH  25  27
ENDBRANCH   5  25
TORSDOF 10
ENDMDL
MODEL 4
REMARK VINA RESULT:      -9.6      1.416      2.339
REMARK  Name = 56832738
REMARK  10 active torsions:
REMARK  status: ('A' for Active; 'I' for Inactive)
REMARK    1  A    between atoms: C_2  and  C_11
REMARK    2  A    between atoms: C_5  and  C_25
REMARK    3  A    between atoms: C_10  and  C_22
REMARK    4  A    between atoms: C_12  and  O_16
REMARK    5  A    between atoms: C_13  and  O_18
REMARK    6  A    between atoms: C_14  and  O_20
REMARK    7  A    between atoms: C_22  and  O_23
REMARK    8  A    between atoms: C_25  and  C_27
REMARK    9  A    between atoms: C_32  and  O_33
REMARK   10  A    between atoms: O_33  and  C_34
REMARK                            x       y       z     vdW  Elec       q    Type
REMARK                         _______ _______ _______ _____ _____    ______ ____
ROOT
ATOM      1 CL   UNL     1      30.694 -22.822 -16.998  0.00  0.00    -0.083 Cl
ATOM      2  C   UNL     1      34.321 -23.510 -14.400  0.00  0.00    +0.031 C 
ATOM      3  C   UNL     1      34.423 -23.680 -15.780  0.00  0.00    -0.003 C 
ATOM      4  C   UNL     1      33.106 -23.128 -13.832  0.00  0.00    +0.001 C 
ATOM      5  C   UNL     1      33.309 -23.469 -16.592  0.00  0.00    -0.007 C 
ATOM      6  C   UNL     1      31.992 -22.918 -14.644  0.00  0.00    +0.011 C 
ATOM      7  C   UNL     1      32.093 -23.088 -16.025  0.00  0.00    +0.054 C 
ENDROOT
BRANCH   2  11
ATOM      8  O   UNL     1      36.200 -24.977 -13.823  0.00  0.00    -0.326 OA
ATOM      9  O   UNL     1      35.118 -23.808 -12.133  0.00  0.00    -0.326 OA
ATOM     10  C   UNL     1      36.881 -25.275 -12.598  0.00  0.00    +0.176 C 
ATOM     11  C   UNL     1      35.532 -23.738 -13.516  0.00  0.00    +0.235 C 
ATOM     12  C   UNL     1      38.110 -24.334 -12.504  0.00  0.00    +0.169 C 
ATOM     13  C   UNL     1      36.588 -22.615 -13.638  0.00  0.00    +0.196 C 
ATOM     14  C   UNL     1      37.755 -22.840 -12.656  0.00  0.00    +0.172 C 
ATOM     15  C   UNL     1      35.786 -24.956 -11.591  0.00  0.00    +0.177 C 
BRANCH  12  16
ATOM     16  O   UNL     1      39.022 -24.684 -13.550  0.00  0.00    -0.379 OA
ATOM     17  H   UNL     1      38.568 -25.237 -14.204  0.00  0.00    +0.211 HD
ENDBRANCH  12  16
BRANCH  13  18
ATOM     18  O   UNL     1      37.105 -22.585 -14.969  0.00  0.00    -0.377 OA
ATOM     19  H   UNL     1      38.071 -22.499 -14.937  0.00  0.00    +0.211 HD
ENDBRANCH  13  18
BRANCH  14  20
ATOM     20  O   UNL     1      37.377 -22.314 -11.383  0.00  0.00    -0.379 OA
ATOM     21  H   UNL     1      36.577 -22.764 -11.072  0.00  0.00    +0.211 HD
ENDBRANCH  14  20
BRANCH  10  22
ATOM     22  C   UNL     1      37.271 -26.748 -12.577  0.00  0.00    +0.169 C 
BRANCH  22  23
ATOM     23  O   UNL     1      37.331 -27.217 -13.913  0.00  0.00    -0.379 OA
ATOM     24  H   UNL     1      36.852 -28.058 -13.981  0.00  0.00    +0.211 HD
ENDBRANCH  22  23
ENDBRANCH  10  22
ENDBRANCH   2  11
BRANCH   5  25
ATOM     25  C   UNL     1      33.459 -23.664 -18.067  0.00  0.00    +0.054 C 
BRANCH  25  27
ATOM     26  F   UNL     1      32.335 -19.613 -20.556  0.00  0.00    -0.201 F 
ATOM     27  C   UNL     1      33.869 -22.410 -18.810  0.00  0.00    -0.015 C 
ATOM     28  C   UNL     1      32.896 -21.570 -19.353  0.00  0.00    +0.029 C 
ATOM     29  C   UNL     1      35.220 -22.096 -18.954  0.00  0.00    -0.001 C 
ATOM     30  C   UNL     1      33.275 -20.416 -20.037  0.00  0.00    +0.174 C 
ATOM     31  C   UNL     1      35.599 -20.942 -19.638  0.00  0.00    +0.039 C 
ATOM     32  C   UNL     1      34.626 -20.102 -20.180  0.00  0.00    +0.166 C 
BRANCH  32  33
ATOM     33  O   UNL     1      34.997 -18.975 -20.849  0.00  0.00    -0.473 OA
BRANCH  33  34
ATOM     34  C   UNL     1      36.368 -18.870 -21.232  0.00  0.00    +0.206 C 
ATOM     35  C   UNL     1      36.448 -18.237 -22.605  0.00  0.00    +0.051 C 
ENDBRANCH  33  34
ENDBRANCH  32  33
ENDBRANCH  25  27
ENDBRANCH   5  25
TORSDOF 10
ENDMDL
MODEL 5
REMARK VINA RESULT:      -9.4      3.192      5.153
REMARK  Name = 56832738
REMARK  10 active torsions:
REMARK  status: ('A' for Active; 'I' for Inactive)
REMARK    1  A    between atoms: C_2  and  C_11
REMARK    2  A    between atoms: C_5  and  C_25
REMARK    3  A    between atoms: C_10  and  C_22
REMARK    4  A    between atoms: C_12  and  O_16
REMARK    5  A    between atoms: C_13  and  O_18
REMARK    6  A    between atoms: C_14  and  O_20
REMARK    7  A    between atoms: C_22  and  O_23
REMARK    8  A    between atoms: C_25  and  C_27
REMARK    9  A    between atoms: C_32  and  O_33
REMARK   10  A    between atoms: O_33  and  C_34
REMARK                            x       y       z     vdW  Elec       q    Type
REMARK                         _______ _______ _______ _____ _____    ______ ____
ROOT
ATOM      1 CL   UNL     1      35.446 -20.902 -19.682  0.00  0.00    -0.083 Cl
ATOM      2  C   UNL     1      36.707 -23.002 -15.889  0.00  0.00    +0.031 C 
ATOM      3  C   UNL     1      35.434 -23.231 -16.410  0.00  0.00    -0.003 C 
ATOM      4  C   UNL     1      37.581 -22.132 -16.540  0.00  0.00    +0.001 C 
ATOM      5  C   UNL     1      35.034 -22.587 -17.581  0.00  0.00    -0.007 C 
ATOM      6  C   UNL     1      37.182 -21.489 -17.711  0.00  0.00    +0.011 C 
ATOM      7  C   UNL     1      35.908 -21.717 -18.233  0.00  0.00    +0.054 C 
ENDROOT
BRANCH   2  11
ATOM      8  O   UNL     1      36.027 -24.272 -13.904  0.00  0.00    -0.326 OA
ATOM      9  O   UNL     1      37.771 -22.749 -13.729  0.00  0.00    -0.326 OA
ATOM     10  C   UNL     1      36.520 -24.344 -12.560  0.00  0.00    +0.176 C 
ATOM     11  C   UNL     1      37.142 -23.701 -14.616  0.00  0.00    +0.235 C 
ATOM     12  C   UNL     1      37.511 -25.534 -12.487  0.00  0.00    +0.169 C 
ATOM     13  C   UNL     1      38.148 -24.848 -14.871  0.00  0.00    +0.196 C 
ATOM     14  C   UNL     1      38.633 -25.467 -13.545  0.00  0.00    +0.172 C 
ATOM     15  C   UNL     1      37.187 -22.982 -12.440  0.00  0.00    +0.177 C 
BRANCH  12  16
ATOM     16  O   UNL     1      36.775 -26.743 -12.695  0.00  0.00    -0.379 OA
ATOM     17  H   UNL     1      35.835 -26.534 -12.811  0.00  0.00    +0.211 HD
ENDBRANCH  12  16
BRANCH  13  18
ATOM     18  O   UNL     1      37.527 -25.866 -15.655  0.00  0.00    -0.377 OA
ATOM     19  H   UNL     1      36.668 -25.549 -15.975  0.00  0.00    +0.211 HD
ENDBRANCH  13  18
BRANCH  14  20
ATOM     20  O   UNL     1      39.706 -24.669 -13.043  0.00  0.00    -0.379 OA
ATOM     21  H   UNL     1      40.100 -24.163 -13.771  0.00  0.00    +0.211 HD
ENDBRANCH  14  20
BRANCH  10  22
ATOM     22  C   UNL     1      35.350 -24.499 -11.596  0.00  0.00    +0.169 C 
BRANCH  22  23
ATOM     23  O   UNL     1      34.230 -24.976 -12.320  0.00  0.00    -0.379 OA
ATOM     24  H   UNL     1      33.845 -24.250 -12.836  0.00  0.00    +0.211 HD
ENDBRANCH  22  23
ENDBRANCH  10  22
ENDBRANCH   2  11
BRANCH   5  25
ATOM     25  C   UNL     1      33.661 -22.858 -18.106  0.00  0.00    +0.054 C 
BRANCH  25  27
ATOM     26  F   UNL     1      29.060 -22.399 -16.530  0.00  0.00    -0.201 F 
ATOM     27  C   UNL     1      32.611 -23.005 -17.025  0.00  0.00    -0.015 C 
ATOM     28  C   UNL     1      31.292 -22.628 -17.277  0.00  0.00    +0.029 C 
ATOM     29  C   UNL     1      32.963 -23.516 -15.777  0.00  0.00    -0.001 C 
ATOM     30  C   UNL     1      30.326 -22.763 -16.282  0.00  0.00    +0.174 C 
ATOM     31  C   UNL     1      31.997 -23.652 -14.781  0.00  0.00    +0.039 C 
ATOM     32  C   UNL     1      30.678 -23.275 -15.033  0.00  0.00    +0.166 C 
BRANCH  32  33
ATOM     33  O   UNL     1      29.735 -23.407 -14.059  0.00  0.00    -0.473 OA
BRANCH  33  34
ATOM     34  C   UNL     1      29.482 -24.726 -13.577  0.00  0.00    +0.206 C 
ATOM     35  C   UNL     1      28.904 -25.559 -14.701  0.00  0.00    +0.051 C 
ENDBRANCH  33  34
ENDBRANCH  32  33
ENDBRANCH  25  27
ENDBRANCH   5  25
TORSDOF 10
ENDMDL
MODEL 6
REMARK VINA RESULT:      -8.4      3.148      5.630
REMARK  Name = 56832738
REMARK  10 active torsions:
REMARK  status: ('A' for Active; 'I' for Inactive)
REMARK    1  A    between atoms: C_2  and  C_11
REMARK    2  A    between atoms: C_5  and  C_25
REMARK    3  A    between atoms: C_10  and  C_22
REMARK    4  A    between atoms: C_12  and  O_16
REMARK    5  A    between atoms: C_13  and  O_18
REMARK    6  A    between atoms: C_14  and  O_20
REMARK    7  A    between atoms: C_22  and  O_23
REMARK    8  A    between atoms: C_25  and  C_27
REMARK    9  A    between atoms: C_32  and  O_33
REMARK   10  A    between atoms: O_33  and  C_34
REMARK                            x       y       z     vdW  Elec       q    Type
REMARK                         _______ _______ _______ _____ _____    ______ ____
ROOT
ATOM      1 CL   UNL     1      35.440 -20.713 -19.727  0.00  0.00    -0.083 Cl
ATOM      2  C   UNL     1      36.699 -23.176 -16.159  0.00  0.00    +0.031 C 
ATOM      3  C   UNL     1      35.401 -23.298 -16.654  0.00  0.00    -0.003 C 
ATOM      4  C   UNL     1      37.598 -22.300 -16.766  0.00  0.00    +0.001 C 
ATOM      5  C   UNL     1      35.002 -22.543 -17.756  0.00  0.00    -0.007 C 
ATOM      6  C   UNL     1      37.199 -21.544 -17.868  0.00  0.00    +0.011 C 
ATOM      7  C   UNL     1      35.900 -21.666 -18.364  0.00  0.00    +0.054 C 
ENDROOT
BRANCH   2  11
ATOM      8  O   UNL     1      38.568 -24.048 -14.831  0.00  0.00    -0.326 OA
ATOM      9  O   UNL     1      36.672 -25.359 -15.112  0.00  0.00    -0.326 OA
ATOM     10  C   UNL     1      38.770 -25.253 -14.082  0.00  0.00    +0.176 C 
ATOM     11  C   UNL     1      37.134 -23.998 -14.961  0.00  0.00    +0.235 C 
ATOM     12  C   UNL     1      38.387 -24.960 -12.608  0.00  0.00    +0.169 C 
ATOM     13  C   UNL     1      36.580 -23.455 -13.624  0.00  0.00    +0.196 C 
ATOM     14  C   UNL     1      36.968 -24.372 -12.447  0.00  0.00    +0.172 C 
ATOM     15  C   UNL     1      37.801 -26.185 -14.794  0.00  0.00    +0.177 C 
BRANCH  12  16
ATOM     16  O   UNL     1      39.323 -24.014 -12.082  0.00  0.00    -0.379 OA
ATOM     17  H   UNL     1      39.326 -23.219 -12.637  0.00  0.00    +0.211 HD
ENDBRANCH  12  16
BRANCH  13  18
ATOM     18  O   UNL     1      37.103 -22.149 -13.381  0.00  0.00    -0.377 OA
ATOM     19  H   UNL     1      36.866 -21.867 -12.484  0.00  0.00    +0.211 HD
ENDBRANCH  13  18
BRANCH  14  20
ATOM     20  O   UNL     1      36.022 -25.439 -12.378  0.00  0.00    -0.379 OA
ATOM     21  H   UNL     1      36.196 -26.072 -13.092  0.00  0.00    +0.211 HD
ENDBRANCH  14  20
BRANCH  10  22
ATOM     22  C   UNL     1      40.217 -25.707 -14.228  0.00  0.00    +0.169 C 
BRANCH  22  23
ATOM     23  O   UNL     1      40.999 -24.597 -14.634  0.00  0.00    -0.379 OA
ATOM     24  H   UNL     1      41.708 -24.448 -13.989  0.00  0.00    +0.211 HD
ENDBRANCH  22  23
ENDBRANCH  10  22
ENDBRANCH   2  11
BRANCH   5  25
ATOM     25  C   UNL     1      33.602 -22.701 -18.256  0.00  0.00    +0.054 C 
BRANCH  25  27
ATOM     26  F   UNL     1      29.028 -22.355 -16.574  0.00  0.00    -0.201 F 
ATOM     27  C   UNL     1      32.578 -22.888 -17.156  0.00  0.00    -0.015 C 
ATOM     28  C   UNL     1      31.247 -22.529 -17.373  0.00  0.00    +0.029 C 
ATOM     29  C   UNL     1      32.965 -23.419 -15.926  0.00  0.00    -0.001 C 
ATOM     30  C   UNL     1      30.305 -22.702 -16.360  0.00  0.00    +0.174 C 
ATOM     31  C   UNL     1      32.023 -23.591 -14.913  0.00  0.00    +0.039 C 
ATOM     32  C   UNL     1      30.693 -23.232 -15.130  0.00  0.00    +0.166 C 
BRANCH  32  33
ATOM     33  O   UNL     1      29.773 -23.401 -14.139  0.00  0.00    -0.473 OA
BRANCH  33  34
ATOM     34  C   UNL     1      29.633 -24.716 -13.602  0.00  0.00    +0.206 C 
ATOM     35  C   UNL     1      28.920 -25.587 -14.614  0.00  0.00    +0.051 C 
ENDBRANCH  33  34
ENDBRANCH  32  33
ENDBRANCH  25  27
ENDBRANCH   5  25
TORSDOF 10
ENDMDL
MODEL 7
REMARK VINA RESULT:      -8.4      3.726      5.619
REMARK  Name = 56832738
REMARK  10 active torsions:
REMARK  status: ('A' for Active; 'I' for Inactive)
REMARK    1  A    between atoms: C_2  and  C_11
REMARK    2  A    between atoms: C_5  and  C_25
REMARK    3  A    between atoms: C_10  and  C_22
REMARK    4  A    between atoms: C_12  and  O_16
REMARK    5  A    between atoms: C_13  and  O_18
REMARK    6  A    between atoms: C_14  and  O_20
REMARK    7  A    between atoms: C_22  and  O_23
REMARK    8  A    between atoms: C_25  and  C_27
REMARK    9  A    between atoms: C_32  and  O_33
REMARK   10  A    between atoms: O_33  and  C_34
REMARK                            x       y       z     vdW  Elec       q    Type
REMARK                         _______ _______ _______ _____ _____    ______ ____
ROOT
ATOM      1 CL   UNL     1      31.215 -22.534 -16.946  0.00  0.00    -0.083 Cl
ATOM      2  C   UNL     1      34.845 -24.215 -14.852  0.00  0.00    +0.031 C 
ATOM      3  C   UNL     1      33.605 -24.252 -14.214  0.00  0.00    -0.003 C 
ATOM      4  C   UNL     1      34.957 -23.663 -16.128  0.00  0.00    +0.001 C 
ATOM      5  C   UNL     1      32.478 -23.736 -14.852  0.00  0.00    -0.007 C 
ATOM      6  C   UNL     1      33.829 -23.147 -16.766  0.00  0.00    +0.011 C 
ATOM      7  C   UNL     1      32.588 -23.184 -16.128  0.00  0.00    +0.054 C 
ENDROOT
BRANCH   2  11
ATOM      8  O   UNL     1      37.281 -24.120 -14.585  0.00  0.00    -0.326 OA
ATOM      9  O   UNL     1      36.211 -26.178 -14.479  0.00  0.00    -0.326 OA
ATOM     10  C   UNL     1      38.284 -25.105 -14.307  0.00  0.00    +0.176 C 
ATOM     11  C   UNL     1      36.071 -24.776 -14.159  0.00  0.00    +0.235 C 
ATOM     12  C   UNL     1      38.520 -25.114 -12.774  0.00  0.00    +0.169 C 
ATOM     13  C   UNL     1      36.007 -24.645 -12.620  0.00  0.00    +0.196 C 
ATOM     14  C   UNL     1      37.228 -25.310 -11.953  0.00  0.00    +0.172 C 
ATOM     15  C   UNL     1      37.591 -26.356 -14.828  0.00  0.00    +0.177 C 
BRANCH  12  16
ATOM     16  O   UNL     1      39.097 -23.859 -12.403  0.00  0.00    -0.379 OA
ATOM     17  H   UNL     1      38.609 -23.139 -12.833  0.00  0.00    +0.211 HD
ENDBRANCH  12  16
BRANCH  13  18
ATOM     18  O   UNL     1      35.980 -23.265 -12.255  0.00  0.00    -0.377 OA
ATOM     19  H   UNL     1      36.696 -23.082 -11.626  0.00  0.00    +0.211 HD
ENDBRANCH  13  18
BRANCH  14  20
ATOM     20  O   UNL     1      36.961 -26.707 -11.822  0.00  0.00    -0.379 OA
ATOM     21  H   UNL     1      36.191 -26.941 -12.363  0.00  0.00    +0.211 HD
ENDBRANCH  14  20
BRANCH  10  22
ATOM     22  C   UNL     1      39.550 -24.780 -15.090  0.00  0.00    +0.169 C 
BRANCH  22  23
ATOM     23  O   UNL     1      40.671 -25.059 -14.270  0.00  0.00    -0.379 OA
ATOM     24  H   UNL     1      40.374 -25.476 -13.447  0.00  0.00    +0.211 HD
ENDBRANCH  22  23
ENDBRANCH  10  22
ENDBRANCH   2  11
BRANCH   5  25
ATOM     25  C   UNL     1      31.167 -23.794 -14.134  0.00  0.00    +0.054 C 
BRANCH  25  27
ATOM     26  F   UNL     1      27.925 -25.198 -17.508  0.00  0.00    -0.201 F 
ATOM     27  C   UNL     1      29.972 -23.512 -15.020  0.00  0.00    -0.015 C 
ATOM     28  C   UNL     1      29.487 -24.502 -15.874  0.00  0.00    +0.029 C 
ATOM     29  C   UNL     1      29.357 -22.260 -14.983  0.00  0.00    -0.001 C 
ATOM     30  C   UNL     1      28.386 -24.242 -16.689  0.00  0.00    +0.174 C 
ATOM     31  C   UNL     1      28.256 -22.000 -15.799  0.00  0.00    +0.039 C 
ATOM     32  C   UNL     1      27.771 -22.991 -16.652  0.00  0.00    +0.166 C 
BRANCH  32  33
ATOM     33  O   UNL     1      26.697 -22.735 -17.449  0.00  0.00    -0.473 OA
BRANCH  33  34
ATOM     34  C   UNL     1      26.330 -21.367 -17.624  0.00  0.00    +0.206 C 
ATOM     35  C   UNL     1      25.582 -21.222 -18.931  0.00  0.00    +0.051 C 
ENDBRANCH  33  34
ENDBRANCH  32  33
ENDBRANCH  25  27
ENDBRANCH   5  25
TORSDOF 10
ENDMDL
MODEL 8
REMARK VINA RESULT:      -8.2      3.803      7.483
REMARK  Name = 56832738
REMARK  10 active torsions:
REMARK  status: ('A' for Active; 'I' for Inactive)
REMARK    1  A    between atoms: C_2  and  C_11
REMARK    2  A    between atoms: C_5  and  C_25
REMARK    3  A    between atoms: C_10  and  C_22
REMARK    4  A    between atoms: C_12  and  O_16
REMARK    5  A    between atoms: C_13  and  O_18
REMARK    6  A    between atoms: C_14  and  O_20
REMARK    7  A    between atoms: C_22  and  O_23
REMARK    8  A    between atoms: C_25  and  C_27
REMARK    9  A    between atoms: C_32  and  O_33
REMARK   10  A    between atoms: O_33  and  C_34
REMARK                            x       y       z     vdW  Elec       q    Type
REMARK                         _______ _______ _______ _____ _____    ______ ____
ROOT
ATOM      1 CL   UNL     1      36.690 -21.927 -18.452  0.00  0.00    -0.083 Cl
ATOM      2  C   UNL     1      33.044 -23.179 -16.101  0.00  0.00    +0.031 C 
ATOM      3  C   UNL     1      34.202 -22.799 -15.423  0.00  0.00    -0.003 C 
ATOM      4  C   UNL     1      33.018 -23.168 -17.496  0.00  0.00    +0.001 C 
ATOM      5  C   UNL     1      35.334 -22.410 -16.139  0.00  0.00    -0.007 C 
ATOM      6  C   UNL     1      34.149 -22.779 -18.212  0.00  0.00    +0.011 C 
ATOM      7  C   UNL     1      35.308 -22.400 -17.534  0.00  0.00    +0.054 C 
ENDROOT
BRANCH   2  11
ATOM      8  O   UNL     1      30.882 -24.335 -16.141  0.00  0.00    -0.326 OA
ATOM      9  O   UNL     1      31.122 -22.430 -14.834  0.00  0.00    -0.326 OA
ATOM     10  C   UNL     1      29.639 -24.130 -15.456  0.00  0.00    +0.176 C 
ATOM     11  C   UNL     1      31.814 -23.601 -15.323  0.00  0.00    +0.235 C 
ATOM     12  C   UNL     1      29.644 -25.033 -14.196  0.00  0.00    +0.169 C 
ATOM     13  C   UNL     1      32.147 -24.497 -14.107  0.00  0.00    +0.196 C 
ATOM     14  C   UNL     1      30.879 -24.825 -13.293  0.00  0.00    +0.172 C 
ATOM     15  C   UNL     1      29.739 -22.644 -15.146  0.00  0.00    +0.177 C 
BRANCH  12  16
ATOM     16  O   UNL     1      29.631 -26.399 -14.623  0.00  0.00    -0.379 OA
ATOM     17  H   UNL     1      28.719 -26.730 -14.621  0.00  0.00    +0.211 HD
ENDBRANCH  12  16
BRANCH  13  18
ATOM     18  O   UNL     1      32.733 -25.718 -14.556  0.00  0.00    -0.377 OA
ATOM     19  H   UNL     1      33.584 -25.530 -14.984  0.00  0.00    +0.211 HD
ENDBRANCH  13  18
BRANCH  14  20
ATOM     20  O   UNL     1      30.629 -23.741 -12.397  0.00  0.00    -0.379 OA
ATOM     21  H   UNL     1      31.367 -23.661 -11.773  0.00  0.00    +0.211 HD
ENDBRANCH  14  20
BRANCH  10  22
ATOM     22  C   UNL     1      28.482 -24.447 -16.395  0.00  0.00    +0.169 C 
BRANCH  22  23
ATOM     23  O   UNL     1      27.744 -23.258 -16.618  0.00  0.00    -0.379 OA
ATOM     24  H   UNL     1      27.619 -23.129 -17.572  0.00  0.00    +0.211 HD
ENDBRANCH  22  23
ENDBRANCH  10  22
ENDBRANCH   2  11
BRANCH   5  25
ATOM     25  C   UNL     1      36.556 -22.012 -15.375  0.00  0.00    +0.054 C 
BRANCH  25  27
ATOM     26  F   UNL     1      37.672 -25.410 -12.048  0.00  0.00    -0.201 F 
ATOM     27  C   UNL     1      37.394 -23.183 -14.909  0.00  0.00    -0.015 C 
ATOM     28  C   UNL     1      37.145 -23.771 -13.669  0.00  0.00    +0.029 C 
ATOM     29  C   UNL     1      38.418 -23.674 -15.720  0.00  0.00    -0.001 C 
ATOM     30  C   UNL     1      37.917 -24.850 -13.241  0.00  0.00    +0.174 C 
ATOM     31  C   UNL     1      39.190 -24.752 -15.291  0.00  0.00    +0.039 C 
ATOM     32  C   UNL     1      38.941 -25.340 -14.051  0.00  0.00    +0.166 C 
BRANCH  32  33
ATOM     33  O   UNL     1      39.696 -26.393 -13.634  0.00  0.00    -0.473 OA
BRANCH  33  34
ATOM     34  C   UNL     1      40.975 -26.557 -14.247  0.00  0.00    +0.206 C 
ATOM     35  C   UNL     1      41.742 -27.631 -13.505  0.00  0.00    +0.051 C 
ENDBRANCH  33  34
ENDBRANCH  32  33
ENDBRANCH  25  27
ENDBRANCH   5  25
TORSDOF 10
ENDMDL
MODEL 9
REMARK VINA RESULT:      -8.2      3.343      4.891
REMARK  Name = 56832738
REMARK  10 active torsions:
REMARK  status: ('A' for Active; 'I' for Inactive)
REMARK    1  A    between atoms: C_2  and  C_11
REMARK    2  A    between atoms: C_5  and  C_25
REMARK    3  A    between atoms: C_10  and  C_22
REMARK    4  A    between atoms: C_12  and  O_16
REMARK    5  A    between atoms: C_13  and  O_18
REMARK    6  A    between atoms: C_14  and  O_20
REMARK    7  A    between atoms: C_22  and  O_23
REMARK    8  A    between atoms: C_25  and  C_27
REMARK    9  A    between atoms: C_32  and  O_33
REMARK   10  A    between atoms: O_33  and  C_34
REMARK                            x       y       z     vdW  Elec       q    Type
REMARK                         _______ _______ _______ _____ _____    ______ ____
ROOT
ATOM      1 CL   UNL     1      37.358 -21.769 -18.015  0.00  0.00    -0.083 Cl
ATOM      2  C   UNL     1      33.430 -23.129 -16.252  0.00  0.00    +0.031 C 
ATOM      3  C   UNL     1      33.560 -23.016 -17.636  0.00  0.00    -0.003 C 
ATOM      4  C   UNL     1      34.510 -22.825 -15.423  0.00  0.00    +0.001 C 
ATOM      5  C   UNL     1      34.769 -22.597 -18.191  0.00  0.00    -0.007 C 
ATOM      6  C   UNL     1      35.719 -22.406 -15.979  0.00  0.00    +0.011 C 
ATOM      7  C   UNL     1      35.849 -22.292 -17.363  0.00  0.00    +0.054 C 
ENDROOT
BRANCH   2  11
ATOM      8  O   UNL     1      31.708 -22.748 -14.548  0.00  0.00    -0.326 OA
ATOM      9  O   UNL     1      32.258 -24.927 -15.133  0.00  0.00    -0.326 OA
ATOM     10  C   UNL     1      30.851 -23.618 -13.798  0.00  0.00    +0.176 C 
ATOM     11  C   UNL     1      32.117 -23.584 -15.648  0.00  0.00    +0.235 C 
ATOM     12  C   UNL     1      29.504 -23.721 -14.559  0.00  0.00    +0.169 C 
ATOM     13  C   UNL     1      30.953 -23.587 -16.667  0.00  0.00    +0.196 C 
ATOM     14  C   UNL     1      29.662 -24.145 -16.035  0.00  0.00    +0.172 C 
ATOM     15  C   UNL     1      31.670 -24.900 -13.825  0.00  0.00    +0.177 C 
BRANCH  12  16
ATOM     16  O   UNL     1      28.874 -22.437 -14.530  0.00  0.00    -0.379 OA
ATOM     17  H   UNL     1      29.035 -22.017 -13.670  0.00  0.00    +0.211 HD
ENDBRANCH  12  16
BRANCH  13  18
ATOM     18  O   UNL     1      30.706 -22.256 -17.119  0.00  0.00    -0.377 OA
ATOM     19  H   UNL     1      31.196 -22.098 -17.941  0.00  0.00    +0.211 HD
ENDBRANCH  13  18
BRANCH  14  20
ATOM     20  O   UNL     1      29.703 -25.570 -16.114  0.00  0.00    -0.379 OA
ATOM     21  H   UNL     1      29.005 -25.945 -15.554  0.00  0.00    +0.211 HD
ENDBRANCH  14  20
BRANCH  10  22
ATOM     22  C   UNL     1      30.682 -23.073 -12.385  0.00  0.00    +0.169 C 
BRANCH  22  23
ATOM     23  O   UNL     1      31.878 -22.410 -12.011  0.00  0.00    -0.379 OA
ATOM     24  H   UNL     1      31.803 -22.101 -11.095  0.00  0.00    +0.211 HD
ENDBRANCH  22  23
ENDBRANCH  10  22
ENDBRANCH   2  11
BRANCH   5  25
ATOM     25  C   UNL     1      34.867 -22.488 -19.679  0.00  0.00    +0.054 C 
BRANCH  25  27
ATOM     26  F   UNL     1      36.749 -18.381 -21.538  0.00  0.00    -0.201 F 
ATOM     27  C   UNL     1      34.706 -21.075 -20.200  0.00  0.00    -0.015 C 
ATOM     28  C   UNL     1      35.822 -20.362 -20.639  0.00  0.00    +0.029 C 
ATOM     29  C   UNL     1      33.442 -20.486 -20.240  0.00  0.00    -0.001 C 
ATOM     30  C   UNL     1      35.673 -19.061 -21.118  0.00  0.00    +0.174 C 
ATOM     31  C   UNL     1      33.294 -19.186 -20.719  0.00  0.00    +0.039 C 
ATOM     32  C   UNL     1      34.409 -18.472 -21.158  0.00  0.00    +0.166 C 
BRANCH  32  33
ATOM     33  O   UNL     1      34.263 -17.202 -21.625  0.00  0.00    -0.473 OA
BRANCH  33  34
ATOM     34  C   UNL     1      34.630 -16.141 -20.744  0.00  0.00    +0.206 C 
ATOM     35  C   UNL     1      34.100 -14.836 -21.298  0.00  0.00    +0.051 C 
ENDBRANCH  33  34
ENDBRANCH  32  33
ENDBRANCH  25  27
ENDBRANCH   5  25
TORSDOF 10
ENDMDL
