MODEL 1
REMARK VINA RESULT:     -10.7      0.000      0.000
REMARK  Name = 24941262
REMARK  4 active torsions:
REMARK  status: ('A' for Active; 'I' for Inactive)
REMARK    1  A    between atoms: N_2  and  C_15
REMARK    2  A    between atoms: C_3  and  C_5
REMARK    3  A    between atoms: C_9  and  N_12
REMARK    4  A    between atoms: C_15  and  C_17
REMARK                            x       y       z     vdW  Elec       q    Type
REMARK                         _______ _______ _______ _____ _____    ______ ____
ROOT
ATOM      1  O   UNL     1      35.244 -16.215 -20.665  0.00  0.00    -0.270 OA
ATOM      2  N   UNL     1      34.525 -17.140 -22.665  0.00  0.00    -0.299 N 
ATOM      3  C   UNL     1      34.619 -16.136 -21.719  0.00  0.00    +0.246 C 
ATOM      4  H   UNL     1      33.997 -16.977 -23.481  0.00  0.00    +0.150 HD
ENDROOT
BRANCH   3   5
ATOM      5  C   UNL     1      33.871 -14.890 -22.028  0.00  0.00    +0.051 C 
ATOM      6  C   UNL     1      32.748 -14.522 -21.287  0.00  0.00    -0.017 C 
ATOM      7  C   UNL     1      34.308 -14.084 -23.079  0.00  0.00    +0.018 C 
ATOM      8  C   UNL     1      32.062 -13.347 -21.596  0.00  0.00    -0.003 C 
ATOM      9  C   UNL     1      33.622 -12.909 -23.388  0.00  0.00    +0.042 C 
ATOM     10  C   UNL     1      32.258 -15.366 -20.156  0.00  0.00    +0.031 C 
ATOM     11  C   UNL     1      32.499 -12.540 -22.646  0.00  0.00    +0.014 C 
BRANCH   9  12
ATOM     12  N   UNL     1      34.064 -12.093 -24.451  0.00  0.00    -0.357 N 
ATOM     13  H   UNL     1      34.264 -12.493 -25.328  0.00  0.00    +0.142 HD
ATOM     14  H   UNL     1      34.171 -11.123 -24.316  0.00  0.00    +0.142 HD
ENDBRANCH   9  12
ENDBRANCH   3   5
BRANCH   2  15
ATOM     15  C   UNL     1      35.176 -18.425 -22.497  0.00  0.00    +0.094 C 
ATOM     16  C   UNL     1      35.352 -19.085 -23.869  0.00  0.00    +0.026 C 
BRANCH  15  17
ATOM     17  C   UNL     1      34.460 -19.295 -21.511  0.00  0.00    -0.004 C 
ATOM     18  C   UNL     1      35.150 -20.115 -20.603  0.00  0.00    -0.002 C 
ATOM     19  C   UNL     1      34.414 -20.915 -19.697  0.00  0.00    -0.000 C 
ATOM     20  C   UNL     1      33.065 -19.266 -21.527  0.00  0.00    -0.003 C 
ATOM     21  C   UNL     1      36.553 -20.158 -20.573  0.00  0.00    -0.000 C 
ATOM     22  C   UNL     1      33.010 -20.872 -19.726  0.00  0.00    -0.000 C 
ATOM     23  C   UNL     1      32.342 -20.052 -20.635  0.00  0.00    -0.000 C 
ATOM     24  C   UNL     1      35.103 -21.734 -18.788  0.00  0.00    -0.000 C 
ATOM     25  C   UNL     1      37.221 -20.979 -19.664  0.00  0.00    -0.000 C 
ATOM     26  C   UNL     1      36.498 -21.765 -18.773  0.00  0.00    -0.000 C 
ENDBRANCH  15  17
ENDBRANCH   2  15
TORSDOF 4
ENDMDL
MODEL 2
REMARK VINA RESULT:     -10.6      3.093      5.342
REMARK  Name = 24941262
REMARK  4 active torsions:
REMARK  status: ('A' for Active; 'I' for Inactive)
REMARK    1  A    between atoms: N_2  and  C_15
REMARK    2  A    between atoms: C_3  and  C_5
REMARK    3  A    between atoms: C_9  and  N_12
REMARK    4  A    between atoms: C_15  and  C_17
REMARK                            x       y       z     vdW  Elec       q    Type
REMARK                         _______ _______ _______ _____ _____    ______ ____
ROOT
ATOM      1  O   UNL     1      33.604 -11.978 -25.961  0.00  0.00    -0.270 OA
ATOM      2  N   UNL     1      34.052 -12.886 -23.876  0.00  0.00    -0.299 N 
ATOM      3  C   UNL     1      33.813 -11.849 -24.758  0.00  0.00    +0.246 C 
ATOM      4  H   UNL     1      34.210 -12.678 -22.926  0.00  0.00    +0.150 HD
ENDROOT
BRANCH   3   5
ATOM      5  C   UNL     1      33.846 -10.485 -24.169  0.00  0.00    +0.051 C 
ATOM      6  C   UNL     1      34.804  -9.552 -24.568  0.00  0.00    -0.017 C 
ATOM      7  C   UNL     1      32.901 -10.144 -23.203  0.00  0.00    +0.018 C 
ATOM      8  C   UNL     1      34.814  -8.277 -24.001  0.00  0.00    -0.003 C 
ATOM      9  C   UNL     1      32.911  -8.869 -22.635  0.00  0.00    +0.042 C 
ATOM     10  C   UNL     1      35.828  -9.890 -25.601  0.00  0.00    +0.031 C 
ATOM     11  C   UNL     1      33.868  -7.936 -23.035  0.00  0.00    +0.014 C 
BRANCH   9  12
ATOM     12  N   UNL     1      31.954  -8.524 -21.658  0.00  0.00    -0.357 N 
ATOM     13  H   UNL     1      30.997  -8.666 -21.836  0.00  0.00    +0.142 HD
ATOM     14  H   UNL     1      32.244  -8.143 -20.798  0.00  0.00    +0.142 HD
ENDBRANCH   9  12
ENDBRANCH   3   5
BRANCH   2  15
ATOM     15  C   UNL     1      34.079 -14.273 -24.301  0.00  0.00    +0.094 C 
ATOM     16  C   UNL     1      32.790 -14.592 -25.067  0.00  0.00    +0.026 C 
BRANCH  15  17
ATOM     17  C   UNL     1      34.334 -15.208 -23.159  0.00  0.00    -0.004 C 
ATOM     18  C   UNL     1      34.545 -16.583 -23.355  0.00  0.00    -0.002 C 
ATOM     19  C   UNL     1      34.780 -17.414 -22.233  0.00  0.00    -0.000 C 
ATOM     20  C   UNL     1      34.352 -14.660 -21.876  0.00  0.00    -0.003 C 
ATOM     21  C   UNL     1      34.530 -17.151 -24.639  0.00  0.00    -0.000 C 
ATOM     22  C   UNL     1      34.795 -16.845 -20.949  0.00  0.00    -0.000 C 
ATOM     23  C   UNL     1      34.583 -15.477 -20.773  0.00  0.00    -0.000 C 
ATOM     24  C   UNL     1      34.992 -18.787 -22.428  0.00  0.00    -0.000 C 
ATOM     25  C   UNL     1      34.742 -18.519 -24.814  0.00  0.00    -0.000 C 
ATOM     26  C   UNL     1      34.972 -19.336 -23.712  0.00  0.00    -0.000 C 
ENDBRANCH  15  17
ENDBRANCH   2  15
TORSDOF 4
ENDMDL
MODEL 3
REMARK VINA RESULT:     -10.5      3.267      8.751
REMARK  Name = 24941262
REMARK  4 active torsions:
REMARK  status: ('A' for Active; 'I' for Inactive)
REMARK    1  A    between atoms: N_2  and  C_15
REMARK    2  A    between atoms: C_3  and  C_5
REMARK    3  A    between atoms: C_9  and  N_12
REMARK    4  A    between atoms: C_15  and  C_17
REMARK                            x       y       z     vdW  Elec       q    Type
REMARK                         _______ _______ _______ _____ _____    ______ ____
ROOT
ATOM      1  O   UNL     1      32.349 -14.059 -24.421  0.00  0.00    -0.270 OA
ATOM      2  N   UNL     1      34.043 -12.593 -23.826  0.00  0.00    -0.299 N 
ATOM      3  C   UNL     1      33.363 -13.796 -23.781  0.00  0.00    +0.246 C 
ATOM      4  H   UNL     1      34.849 -12.480 -23.271  0.00  0.00    +0.150 HD
ENDROOT
BRANCH   3   5
ATOM      5  C   UNL     1      33.919 -14.814 -22.852  0.00  0.00    +0.051 C 
ATOM      6  C   UNL     1      33.604 -14.797 -21.493  0.00  0.00    -0.017 C 
ATOM      7  C   UNL     1      34.770 -15.796 -23.358  0.00  0.00    +0.018 C 
ATOM      8  C   UNL     1      34.140 -15.764 -20.641  0.00  0.00    -0.003 C 
ATOM      9  C   UNL     1      35.305 -16.763 -22.506  0.00  0.00    +0.042 C 
ATOM     10  C   UNL     1      32.696 -13.757 -20.923  0.00  0.00    +0.031 C 
ATOM     11  C   UNL     1      34.990 -16.747 -21.148  0.00  0.00    +0.014 C 
BRANCH   9  12
ATOM     12  N   UNL     1      36.166 -17.756 -23.019  0.00  0.00    -0.357 N 
ATOM     13  H   UNL     1      36.871 -17.513 -23.660  0.00  0.00    +0.142 HD
ATOM     14  H   UNL     1      36.060 -18.693 -22.735  0.00  0.00    +0.142 HD
ENDBRANCH   9  12
ENDBRANCH   3   5
BRANCH   2  15
ATOM     15  C   UNL     1      33.610 -11.491 -24.664  0.00  0.00    +0.094 C 
ATOM     16  C   UNL     1      34.297 -11.595 -26.030  0.00  0.00    +0.026 C 
BRANCH  15  17
ATOM     17  C   UNL     1      33.815 -10.164 -24.000  0.00  0.00    -0.004 C 
ATOM     18  C   UNL     1      33.080  -9.776 -22.868  0.00  0.00    -0.002 C 
ATOM     19  C   UNL     1      33.321  -8.508 -22.287  0.00  0.00    -0.000 C 
ATOM     20  C   UNL     1      34.774  -9.314 -24.553  0.00  0.00    -0.003 C 
ATOM     21  C   UNL     1      32.111 -10.619 -22.299  0.00  0.00    -0.000 C 
ATOM     22  C   UNL     1      34.290  -7.665 -22.857  0.00  0.00    -0.000 C 
ATOM     23  C   UNL     1      35.011  -8.067 -23.982  0.00  0.00    -0.000 C 
ATOM     24  C   UNL     1      32.587  -8.120 -21.156  0.00  0.00    -0.000 C 
ATOM     25  C   UNL     1      31.390 -10.216 -21.174  0.00  0.00    -0.000 C 
ATOM     26  C   UNL     1      31.627  -8.970 -20.603  0.00  0.00    -0.000 C 
ENDBRANCH  15  17
ENDBRANCH   2  15
TORSDOF 4
ENDMDL
MODEL 4
REMARK VINA RESULT:     -10.1      3.085      5.033
REMARK  Name = 24941262
REMARK  4 active torsions:
REMARK  status: ('A' for Active; 'I' for Inactive)
REMARK    1  A    between atoms: N_2  and  C_15
REMARK    2  A    between atoms: C_3  and  C_5
REMARK    3  A    between atoms: C_9  and  N_12
REMARK    4  A    between atoms: C_15  and  C_17
REMARK                            x       y       z     vdW  Elec       q    Type
REMARK                         _______ _______ _______ _____ _____    ______ ____
ROOT
ATOM      1  O   UNL     1      33.799 -11.724 -25.671  0.00  0.00    -0.270 OA
ATOM      2  N   UNL     1      33.887 -12.813 -23.627  0.00  0.00    -0.299 N 
ATOM      3  C   UNL     1      33.750 -11.706 -24.444  0.00  0.00    +0.246 C 
ATOM      4  H   UNL     1      33.833 -12.693 -22.651  0.00  0.00    +0.150 HD
ENDROOT
BRANCH   3   5
ATOM      5  C   UNL     1      33.557 -10.410 -23.744  0.00  0.00    +0.051 C 
ATOM      6  C   UNL     1      32.573 -10.259 -22.767  0.00  0.00    -0.017 C 
ATOM      7  C   UNL     1      34.377  -9.333 -24.079  0.00  0.00    +0.018 C 
ATOM      8  C   UNL     1      32.411  -9.032 -22.124  0.00  0.00    -0.003 C 
ATOM      9  C   UNL     1      34.215  -8.106 -23.436  0.00  0.00    +0.042 C 
ATOM     10  C   UNL     1      31.680 -11.396 -22.388  0.00  0.00    +0.031 C 
ATOM     11  C   UNL     1      33.232  -7.955 -22.458  0.00  0.00    +0.014 C 
BRANCH   9  12
ATOM     12  N   UNL     1      35.045  -7.017 -23.775  0.00  0.00    -0.357 N 
ATOM     13  H   UNL     1      35.880  -6.862 -23.278  0.00  0.00    +0.142 HD
ATOM     14  H   UNL     1      34.789  -6.412 -24.509  0.00  0.00    +0.142 HD
ENDBRANCH   9  12
ENDBRANCH   3   5
BRANCH   2  15
ATOM     15  C   UNL     1      34.107 -14.145 -24.158  0.00  0.00    +0.094 C 
ATOM     16  C   UNL     1      32.939 -14.523 -25.076  0.00  0.00    +0.026 C 
BRANCH  15  17
ATOM     17  C   UNL     1      34.355 -15.149 -23.075  0.00  0.00    -0.004 C 
ATOM     18  C   UNL     1      34.554 -16.511 -23.354  0.00  0.00    -0.002 C 
ATOM     19  C   UNL     1      34.782 -17.410 -22.285  0.00  0.00    -0.000 C 
ATOM     20  C   UNL     1      34.382 -14.679 -21.761  0.00  0.00    -0.003 C 
ATOM     21  C   UNL     1      34.529 -17.001 -24.670  0.00  0.00    -0.000 C 
ATOM     22  C   UNL     1      34.807 -16.920 -20.968  0.00  0.00    -0.000 C 
ATOM     23  C   UNL     1      34.608 -15.564 -20.710  0.00  0.00    -0.000 C 
ATOM     24  C   UNL     1      34.981 -18.772 -22.563  0.00  0.00    -0.000 C 
ATOM     25  C   UNL     1      34.728 -18.358 -24.928  0.00  0.00    -0.000 C 
ATOM     26  C   UNL     1      34.953 -19.242 -23.877  0.00  0.00    -0.000 C 
ENDBRANCH  15  17
ENDBRANCH   2  15
TORSDOF 4
ENDMDL
MODEL 5
REMARK VINA RESULT:      -9.8      1.872      7.441
REMARK  Name = 24941262
REMARK  4 active torsions:
REMARK  status: ('A' for Active; 'I' for Inactive)
REMARK    1  A    between atoms: N_2  and  C_15
REMARK    2  A    between atoms: C_3  and  C_5
REMARK    3  A    between atoms: C_9  and  N_12
REMARK    4  A    between atoms: C_15  and  C_17
REMARK                            x       y       z     vdW  Elec       q    Type
REMARK                         _______ _______ _______ _____ _____    ______ ____
ROOT
ATOM      1  O   UNL     1      34.566 -19.276 -23.281  0.00  0.00    -0.270 OA
ATOM      2  N   UNL     1      34.329 -17.578 -21.722  0.00  0.00    -0.299 N 
ATOM      3  C   UNL     1      34.552 -18.883 -22.117  0.00  0.00    +0.246 C 
ATOM      4  H   UNL     1      34.337 -17.363 -20.760  0.00  0.00    +0.150 HD
ENDROOT
BRANCH   3   5
ATOM      5  C   UNL     1      34.759 -19.861 -21.018  0.00  0.00    +0.051 C 
ATOM      6  C   UNL     1      36.033 -20.108 -20.505  0.00  0.00    -0.017 C 
ATOM      7  C   UNL     1      33.656 -20.538 -20.500  0.00  0.00    +0.018 C 
ATOM      8  C   UNL     1      36.203 -21.032 -19.473  0.00  0.00    -0.003 C 
ATOM      9  C   UNL     1      33.825 -21.462 -19.468  0.00  0.00    +0.042 C 
ATOM     10  C   UNL     1      37.233 -19.397 -21.041  0.00  0.00    +0.031 C 
ATOM     11  C   UNL     1      35.099 -21.708 -18.955  0.00  0.00    +0.014 C 
BRANCH   9  12
ATOM     12  N   UNL     1      32.709 -22.147 -18.944  0.00  0.00    -0.357 N 
ATOM     13  H   UNL     1      32.831 -22.813 -18.230  0.00  0.00    +0.142 HD
ATOM     14  H   UNL     1      31.808 -21.959 -19.293  0.00  0.00    +0.142 HD
ENDBRANCH   9  12
ENDBRANCH   3   5
BRANCH   2  15
ATOM     15  C   UNL     1      34.084 -16.511 -22.674  0.00  0.00    +0.094 C 
ATOM     16  C   UNL     1      35.392 -16.167 -23.395  0.00  0.00    +0.026 C 
BRANCH  15  17
ATOM     17  C   UNL     1      33.432 -15.324 -22.036  0.00  0.00    -0.004 C 
ATOM     18  C   UNL     1      33.309 -14.093 -22.702  0.00  0.00    -0.002 C 
ATOM     19  C   UNL     1      32.684 -13.008 -22.042  0.00  0.00    -0.000 C 
ATOM     20  C   UNL     1      32.946 -15.482 -20.737  0.00  0.00    -0.003 C 
ATOM     21  C   UNL     1      33.794 -13.915 -24.008  0.00  0.00    -0.000 C 
ATOM     22  C   UNL     1      32.199 -13.186 -20.735  0.00  0.00    -0.000 C 
ATOM     23  C   UNL     1      32.330 -14.416 -20.089  0.00  0.00    -0.000 C 
ATOM     24  C   UNL     1      32.560 -11.779 -22.708  0.00  0.00    -0.000 C 
ATOM     25  C   UNL     1      33.663 -12.686 -24.654  0.00  0.00    -0.000 C 
ATOM     26  C   UNL     1      33.048 -11.619 -24.006  0.00  0.00    -0.000 C 
ENDBRANCH  15  17
ENDBRANCH   2  15
TORSDOF 4
ENDMDL
MODEL 6
REMARK VINA RESULT:      -9.8      3.331      8.570
REMARK  Name = 24941262
REMARK  4 active torsions:
REMARK  status: ('A' for Active; 'I' for Inactive)
REMARK    1  A    between atoms: N_2  and  C_15
REMARK    2  A    between atoms: C_3  and  C_5
REMARK    3  A    between atoms: C_9  and  N_12
REMARK    4  A    between atoms: C_15  and  C_17
REMARK                            x       y       z     vdW  Elec       q    Type
REMARK                         _______ _______ _______ _____ _____    ______ ____
ROOT
ATOM      1  O   UNL     1      32.695 -14.100 -25.097  0.00  0.00    -0.270 OA
ATOM      2  N   UNL     1      34.151 -12.642 -24.038  0.00  0.00    -0.299 N 
ATOM      3  C   UNL     1      33.587 -13.879 -24.283  0.00  0.00    +0.246 C 
ATOM      4  H   UNL     1      34.863 -12.568 -23.361  0.00  0.00    +0.150 HD
ENDROOT
BRANCH   3   5
ATOM      5  C   UNL     1      34.109 -14.999 -23.458  0.00  0.00    +0.051 C 
ATOM      6  C   UNL     1      34.528 -16.192 -24.046  0.00  0.00    -0.017 C 
ATOM      7  C   UNL     1      34.176 -14.843 -22.074  0.00  0.00    +0.018 C 
ATOM      8  C   UNL     1      35.015 -17.230 -23.250  0.00  0.00    -0.003 C 
ATOM      9  C   UNL     1      34.663 -15.880 -21.277  0.00  0.00    +0.042 C 
ATOM     10  C   UNL     1      34.468 -16.387 -25.526  0.00  0.00    +0.031 C 
ATOM     11  C   UNL     1      35.083 -17.073 -21.866  0.00  0.00    +0.014 C 
BRANCH   9  12
ATOM     12  N   UNL     1      34.731 -15.722 -19.877  0.00  0.00    -0.357 N 
ATOM     13  H   UNL     1      33.904 -15.675 -19.347  0.00  0.00    +0.142 HD
ATOM     14  H   UNL     1      35.606 -15.660 -19.431  0.00  0.00    +0.142 HD
ENDBRANCH   9  12
ENDBRANCH   3   5
BRANCH   2  15
ATOM     15  C   UNL     1      33.730 -11.445 -24.743  0.00  0.00    +0.094 C 
ATOM     16  C   UNL     1      34.679 -11.193 -25.920  0.00  0.00    +0.026 C 
BRANCH  15  17
ATOM     17  C   UNL     1      33.601 -10.268 -23.827  0.00  0.00    -0.004 C 
ATOM     18  C   UNL     1      32.766 -10.290 -22.698  0.00  0.00    -0.002 C 
ATOM     19  C   UNL     1      32.687  -9.143 -21.873  0.00  0.00    -0.000 C 
ATOM     20  C   UNL     1      34.347  -9.130 -24.139  0.00  0.00    -0.003 C 
ATOM     21  C   UNL     1      32.008 -11.426 -22.369  0.00  0.00    -0.000 C 
ATOM     22  C   UNL     1      33.446  -8.007 -22.201  0.00  0.00    -0.000 C 
ATOM     23  C   UNL     1      34.270  -8.003 -23.327  0.00  0.00    -0.000 C 
ATOM     24  C   UNL     1      31.854  -9.165 -20.744  0.00  0.00    -0.000 C 
ATOM     25  C   UNL     1      31.184 -11.430 -21.244  0.00  0.00    -0.000 C 
ATOM     26  C   UNL     1      31.106 -10.303 -20.432  0.00  0.00    -0.000 C 
ENDBRANCH  15  17
ENDBRANCH   2  15
TORSDOF 4
ENDMDL
MODEL 7
REMARK VINA RESULT:      -9.6      4.863     10.828
REMARK  Name = 24941262
REMARK  4 active torsions:
REMARK  status: ('A' for Active; 'I' for Inactive)
REMARK    1  A    between atoms: N_2  and  C_15
REMARK    2  A    between atoms: C_3  and  C_5
REMARK    3  A    between atoms: C_9  and  N_12
REMARK    4  A    between atoms: C_15  and  C_17
REMARK                            x       y       z     vdW  Elec       q    Type
REMARK                         _______ _______ _______ _____ _____    ______ ____
ROOT
ATOM      1  O   UNL     1      33.442 -11.346 -25.183  0.00  0.00    -0.270 OA
ATOM      2  N   UNL     1      33.411 -10.237 -23.148  0.00  0.00    -0.299 N 
ATOM      3  C   UNL     1      33.396 -11.359 -23.956  0.00  0.00    +0.246 C 
ATOM      4  H   UNL     1      33.369 -10.353 -22.171  0.00  0.00    +0.150 HD
ENDROOT
BRANCH   3   5
ATOM      5  C   UNL     1      33.290 -12.660 -23.247  0.00  0.00    +0.051 C 
ATOM      6  C   UNL     1      32.353 -12.852 -22.231  0.00  0.00    -0.017 C 
ATOM      7  C   UNL     1      34.146 -13.698 -23.610  0.00  0.00    +0.018 C 
ATOM      8  C   UNL     1      32.273 -14.083 -21.579  0.00  0.00    -0.003 C 
ATOM      9  C   UNL     1      34.066 -14.930 -22.959  0.00  0.00    +0.042 C 
ATOM     10  C   UNL     1      31.423 -11.756 -21.821  0.00  0.00    +0.031 C 
ATOM     11  C   UNL     1      33.129 -15.122 -21.944  0.00  0.00    +0.014 C 
BRANCH   9  12
ATOM     12  N   UNL     1      34.932 -15.981 -23.327  0.00  0.00    -0.357 N 
ATOM     13  H   UNL     1      34.614 -16.693 -23.927  0.00  0.00    +0.142 HD
ATOM     14  H   UNL     1      35.855 -16.001 -22.985  0.00  0.00    +0.142 HD
ENDBRANCH   9  12
ENDBRANCH   3   5
BRANCH   2  15
ATOM     15  C   UNL     1      33.485  -8.893 -23.691  0.00  0.00    +0.094 C 
ATOM     16  C   UNL     1      34.943  -8.567 -24.034  0.00  0.00    +0.026 C 
BRANCH  15  17
ATOM     17  C   UNL     1      32.852  -7.884 -22.784  0.00  0.00    -0.004 C 
ATOM     18  C   UNL     1      32.365  -6.655 -23.261  0.00  0.00    -0.002 C 
ATOM     19  C   UNL     1      31.779  -5.743 -22.352  0.00  0.00    -0.000 C 
ATOM     20  C   UNL     1      32.761  -8.208 -21.429  0.00  0.00    -0.003 C 
ATOM     21  C   UNL     1      32.449  -6.312 -24.620  0.00  0.00    -0.000 C 
ATOM     22  C   UNL     1      31.695  -6.087 -20.992  0.00  0.00    -0.000 C 
ATOM     23  C   UNL     1      32.183  -7.312 -20.536  0.00  0.00    -0.000 C 
ATOM     24  C   UNL     1      31.292  -4.516 -22.828  0.00  0.00    -0.000 C 
ATOM     25  C   UNL     1      31.960  -5.087 -25.076  0.00  0.00    -0.000 C 
ATOM     26  C   UNL     1      31.383  -4.190 -24.182  0.00  0.00    -0.000 C 
ENDBRANCH  15  17
ENDBRANCH   2  15
TORSDOF 4
ENDMDL
MODEL 8
REMARK VINA RESULT:      -9.5      2.359      7.416
REMARK  Name = 24941262
REMARK  4 active torsions:
REMARK  status: ('A' for Active; 'I' for Inactive)
REMARK    1  A    between atoms: N_2  and  C_15
REMARK    2  A    between atoms: C_3  and  C_5
REMARK    3  A    between atoms: C_9  and  N_12
REMARK    4  A    between atoms: C_15  and  C_17
REMARK                            x       y       z     vdW  Elec       q    Type
REMARK                         _______ _______ _______ _____ _____    ______ ____
ROOT
ATOM      1  O   UNL     1      32.743 -20.074 -21.298  0.00  0.00    -0.270 OA
ATOM      2  N   UNL     1      34.886 -19.258 -21.632  0.00  0.00    -0.299 N 
ATOM      3  C   UNL     1      33.937 -20.050 -21.014  0.00  0.00    +0.246 C 
ATOM      4  H   UNL     1      35.822 -19.312 -21.330  0.00  0.00    +0.150 HD
ENDROOT
BRANCH   3   5
ATOM      5  C   UNL     1      34.437 -20.906 -19.907  0.00  0.00    +0.051 C 
ATOM      6  C   UNL     1      35.788 -20.917 -19.559  0.00  0.00    -0.017 C 
ATOM      7  C   UNL     1      33.531 -21.707 -19.212  0.00  0.00    +0.018 C 
ATOM      8  C   UNL     1      36.233 -21.730 -18.516  0.00  0.00    -0.003 C 
ATOM      9  C   UNL     1      33.977 -22.520 -18.168  0.00  0.00    +0.042 C 
ATOM     10  C   UNL     1      36.780 -20.069 -20.286  0.00  0.00    +0.031 C 
ATOM     11  C   UNL     1      35.327 -22.530 -17.820  0.00  0.00    +0.014 C 
BRANCH   9  12
ATOM     12  N   UNL     1      33.061 -23.330 -17.465  0.00  0.00    -0.357 N 
ATOM     13  H   UNL     1      32.880 -23.157 -16.513  0.00  0.00    +0.142 HD
ATOM     14  H   UNL     1      32.601 -24.069 -17.927  0.00  0.00    +0.142 HD
ENDBRANCH   9  12
ENDBRANCH   3   5
BRANCH   2  15
ATOM     15  C   UNL     1      34.551 -18.350 -22.713  0.00  0.00    +0.094 C 
ATOM     16  C   UNL     1      35.546 -18.543 -23.863  0.00  0.00    +0.026 C 
BRANCH  15  17
ATOM     17  C   UNL     1      34.457 -16.930 -22.247  0.00  0.00    -0.004 C 
ATOM     18  C   UNL     1      34.105 -15.883 -23.114  0.00  0.00    -0.002 C 
ATOM     19  C   UNL     1      34.035 -14.561 -22.611  0.00  0.00    -0.000 C 
ATOM     20  C   UNL     1      34.737 -16.678 -20.902  0.00  0.00    -0.003 C 
ATOM     21  C   UNL     1      33.821 -16.117 -24.469  0.00  0.00    -0.000 C 
ATOM     22  C   UNL     1      34.319 -14.326 -21.255  0.00  0.00    -0.000 C 
ATOM     23  C   UNL     1      34.667 -15.379 -20.408  0.00  0.00    -0.000 C 
ATOM     24  C   UNL     1      33.682 -13.514 -23.477  0.00  0.00    -0.000 C 
ATOM     25  C   UNL     1      33.473 -15.064 -25.316  0.00  0.00    -0.000 C 
ATOM     26  C   UNL     1      33.404 -13.766 -24.822  0.00  0.00    -0.000 C 
ENDBRANCH  15  17
ENDBRANCH   2  15
TORSDOF 4
ENDMDL
MODEL 9
REMARK VINA RESULT:      -9.4      4.533      8.324
REMARK  Name = 24941262
REMARK  4 active torsions:
REMARK  status: ('A' for Active; 'I' for Inactive)
REMARK    1  A    between atoms: N_2  and  C_15
REMARK    2  A    between atoms: C_3  and  C_5
REMARK    3  A    between atoms: C_9  and  N_12
REMARK    4  A    between atoms: C_15  and  C_17
REMARK                            x       y       z     vdW  Elec       q    Type
REMARK                         _______ _______ _______ _____ _____    ______ ____
ROOT
ATOM      1  O   UNL     1      33.522 -24.230 -18.356  0.00  0.00    -0.270 OA
ATOM      2  N   UNL     1      34.442 -22.230 -17.631  0.00  0.00    -0.299 N 
ATOM      3  C   UNL     1      33.639 -23.349 -17.509  0.00  0.00    +0.246 C 
ATOM      4  H   UNL     1      34.466 -21.579 -16.892  0.00  0.00    +0.150 HD
ENDROOT
BRANCH   3   5
ATOM      5  C   UNL     1      32.852 -23.442 -16.252  0.00  0.00    +0.051 C 
ATOM      6  C   UNL     1      33.426 -23.930 -15.078  0.00  0.00    -0.017 C 
ATOM      7  C   UNL     1      31.519 -23.033 -16.259  0.00  0.00    +0.018 C 
ATOM      8  C   UNL     1      32.666 -24.008 -13.910  0.00  0.00    -0.003 C 
ATOM      9  C   UNL     1      30.759 -23.111 -15.091  0.00  0.00    +0.042 C 
ATOM     10  C   UNL     1      34.852 -24.375 -15.042  0.00  0.00    +0.031 C 
ATOM     11  C   UNL     1      31.333 -23.598 -13.916  0.00  0.00    +0.014 C 
BRANCH   9  12
ATOM     12  N   UNL     1      29.411 -22.697 -15.097  0.00  0.00    -0.357 N 
ATOM     13  H   UNL     1      28.934 -22.586 -15.951  0.00  0.00    +0.142 HD
ATOM     14  H   UNL     1      28.946 -22.519 -14.248  0.00  0.00    +0.142 HD
ENDBRANCH   9  12
ENDBRANCH   3   5
BRANCH   2  15
ATOM     15  C   UNL     1      35.250 -21.983 -18.809  0.00  0.00    +0.094 C 
ATOM     16  C   UNL     1      36.659 -21.562 -18.376  0.00  0.00    +0.026 C 
BRANCH  15  17
ATOM     17  C   UNL     1      34.604 -21.005 -19.741  0.00  0.00    -0.004 C 
ATOM     18  C   UNL     1      35.356 -20.128 -20.540  0.00  0.00    -0.002 C 
ATOM     19  C   UNL     1      34.684 -19.226 -21.400  0.00  0.00    -0.000 C 
ATOM     20  C   UNL     1      33.209 -20.995 -19.790  0.00  0.00    -0.003 C 
ATOM     21  C   UNL     1      36.760 -20.124 -20.503  0.00  0.00    -0.000 C 
ATOM     22  C   UNL     1      33.279 -19.230 -21.437  0.00  0.00    -0.000 C 
ATOM     23  C   UNL     1      32.549 -20.110 -20.637  0.00  0.00    -0.000 C 
ATOM     24  C   UNL     1      35.435 -18.349 -22.198  0.00  0.00    -0.000 C 
ATOM     25  C   UNL     1      37.490 -19.244 -21.302  0.00  0.00    -0.000 C 
ATOM     26  C   UNL     1      36.830 -18.359 -22.148  0.00  0.00    -0.000 C 
ENDBRANCH  15  17
ENDBRANCH   2  15
TORSDOF 4
ENDMDL
