MODEL 1
REMARK VINA RESULT:     -11.7      0.000      0.000
REMARK  Name = 44129624
REMARK  6 active torsions:
REMARK  status: ('A' for Active; 'I' for Inactive)
REMARK    1  A    between atoms: C_1  and  O_20
REMARK    2  A    between atoms: C_4  and  C_8
REMARK    3  A    between atoms: C_8  and  C_9
REMARK    4  A    between atoms: C_10  and  C_16
REMARK    5  A    between atoms: O_20  and  C_21
REMARK    6  A    between atoms: C_21  and  C_23
REMARK                            x       y       z     vdW  Elec       q    Type
REMARK                         _______ _______ _______ _____ _____    ______ ____
ROOT
ATOM      1  C   UNL     1      33.555 -22.032 -19.025  0.00  0.00    +0.138 C 
ATOM      2  C   UNL     1      34.938 -22.096 -18.862  0.00  0.00    +0.037 C 
ATOM      3  C   UNL     1      32.993 -21.054 -19.846  0.00  0.00    +0.037 C 
ATOM      4  C   UNL     1      35.199 -20.204 -20.342  0.00  0.00    +0.039 C 
ATOM      5  C   UNL     1      35.760 -21.182 -19.520  0.00  0.00    +0.006 C 
ATOM      6  C   UNL     1      33.816 -20.141 -20.505  0.00  0.00    +0.006 C 
ENDROOT
BRANCH   4   8
ATOM      7  O   UNL     1      37.289 -19.317 -20.902  0.00  0.00    -0.287 OA
ATOM      8  C   UNL     1      36.057 -19.253 -21.030  0.00  0.00    +0.196 C 
BRANCH   8   9
ATOM      9  C   UNL     1      35.514 -18.174 -21.909  0.00  0.00    +0.039 C 
ATOM     10  C   UNL     1      34.499 -16.158 -23.550  0.00  0.00    +0.001 C 
ATOM     11  C   UNL     1      35.460 -18.361 -23.290  0.00  0.00    +0.003 C 
ATOM     12  C   UNL     1      35.062 -16.979 -21.348  0.00  0.00    +0.003 C 
ATOM     13  C   UNL     1      34.953 -17.353 -24.110  0.00  0.00    +0.000 C 
ATOM     14  C   UNL     1      34.555 -15.972 -22.169  0.00  0.00    +0.000 C 
BRANCH  10  16
ATOM     15  S   UNL     1      32.940 -14.015 -26.469  0.00  0.00    -0.086 S 
ATOM     16  C   UNL     1      33.977 -15.123 -24.395  0.00  0.00    +0.007 C 
ATOM     17  C   UNL     1      33.866 -13.736 -24.089  0.00  0.00    +0.007 C 
ATOM     18  C   UNL     1      33.510 -15.412 -25.659  0.00  0.00    +0.035 C 
ATOM     19  C   UNL     1      33.318 -13.018 -25.130  0.00  0.00    +0.035 C 
ENDBRANCH  10  16
ENDBRANCH   8   9
ENDBRANCH   4   8
BRANCH   1  20
ATOM     20  O   UNL     1      32.744 -22.931 -18.377  0.00  0.00    -0.478 OA
BRANCH  20  21
ATOM     21  C   UNL     1      33.054 -23.213 -17.022  0.00  0.00    +0.184 C 
BRANCH  21  23
ATOM     22  N   UNL     1      30.623 -22.757 -16.823  0.00  0.00    +0.388 N 
ATOM     23  C   UNL     1      31.762 -23.509 -16.276  0.00  0.00    -0.017 C 
ATOM     24  C   UNL     1      31.802 -23.067 -14.821  0.00  0.00    -0.020 C 
ATOM     25  C   UNL     1      30.338 -22.879 -14.453  0.00  0.00    -0.025 C 
ATOM     26  C   UNL     1      29.594 -22.834 -15.781  0.00  0.00    -0.082 C 
ATOM     27  H   UNL     1      30.293 -23.185 -17.688  0.00  0.00    -0.084 HD
ATOM     28  H   UNL     1      30.871 -21.795 -17.052  0.00  0.00    -0.084 HD
ENDBRANCH  21  23
ENDBRANCH  20  21
ENDBRANCH   1  20
TORSDOF 6
ENDMDL
MODEL 2
REMARK VINA RESULT:     -11.5      1.510      2.080
REMARK  Name = 44129624
REMARK  6 active torsions:
REMARK  status: ('A' for Active; 'I' for Inactive)
REMARK    1  A    between atoms: C_1  and  O_20
REMARK    2  A    between atoms: C_4  and  C_8
REMARK    3  A    between atoms: C_8  and  C_9
REMARK    4  A    between atoms: C_10  and  C_16
REMARK    5  A    between atoms: O_20  and  C_21
REMARK    6  A    between atoms: C_21  and  C_23
REMARK                            x       y       z     vdW  Elec       q    Type
REMARK                         _______ _______ _______ _____ _____    ______ ____
ROOT
ATOM      1  C   UNL     1      33.548 -21.423 -19.576  0.00  0.00    +0.138 C 
ATOM      2  C   UNL     1      32.835 -20.454 -20.281  0.00  0.00    +0.037 C 
ATOM      3  C   UNL     1      34.942 -21.387 -19.556  0.00  0.00    +0.037 C 
ATOM      4  C   UNL     1      34.910 -19.411 -20.946  0.00  0.00    +0.039 C 
ATOM      5  C   UNL     1      33.515 -19.448 -20.966  0.00  0.00    +0.006 C 
ATOM      6  C   UNL     1      35.623 -20.380 -20.241  0.00  0.00    +0.006 C 
ENDROOT
BRANCH   4   8
ATOM      7  O   UNL     1      36.772 -18.554 -22.072  0.00  0.00    -0.287 OA
ATOM      8  C   UNL     1      35.619 -18.360 -21.658  0.00  0.00    +0.196 C 
BRANCH   8   9
ATOM      9  C   UNL     1      35.012 -17.021 -21.924  0.00  0.00    +0.039 C 
ATOM     10  C   UNL     1      33.877 -14.521 -22.419  0.00  0.00    +0.001 C 
ATOM     11  C   UNL     1      34.746 -16.624 -23.234  0.00  0.00    +0.003 C 
ATOM     12  C   UNL     1      34.711 -16.168 -20.861  0.00  0.00    +0.003 C 
ATOM     13  C   UNL     1      34.178 -15.374 -23.481  0.00  0.00    +0.000 C 
ATOM     14  C   UNL     1      34.144 -14.918 -21.109  0.00  0.00    +0.000 C 
BRANCH  10  16
ATOM     15  S   UNL     1      32.932 -10.942 -23.777  0.00  0.00    -0.086 S 
ATOM     16  C   UNL     1      33.292 -13.235 -22.676  0.00  0.00    +0.007 C 
ATOM     17  C   UNL     1      32.184 -12.645 -22.004  0.00  0.00    +0.007 C 
ATOM     18  C   UNL     1      33.795 -12.416 -23.663  0.00  0.00    +0.035 C 
ATOM     19  C   UNL     1      31.881 -11.396 -22.503  0.00  0.00    +0.035 C 
ENDBRANCH  10  16
ENDBRANCH   8   9
ENDBRANCH   4   8
BRANCH   1  20
ATOM     20  O   UNL     1      32.878 -22.414 -18.902  0.00  0.00    -0.478 OA
BRANCH  20  21
ATOM     21  C   UNL     1      33.514 -22.951 -17.754  0.00  0.00    +0.184 C 
BRANCH  21  23
ATOM     22  N   UNL     1      31.199 -22.659 -16.914  0.00  0.00    +0.388 N 
ATOM     23  C   UNL     1      32.448 -23.423 -16.778  0.00  0.00    -0.017 C 
ATOM     24  C   UNL     1      32.832 -23.202 -15.324  0.00  0.00    -0.020 C 
ATOM     25  C   UNL     1      31.499 -23.148 -14.594  0.00  0.00    -0.025 C 
ATOM     26  C   UNL     1      30.454 -22.945 -15.682  0.00  0.00    -0.082 C 
ATOM     27  H   UNL     1      30.674 -22.970 -17.731  0.00  0.00    -0.084 HD
ATOM     28  H   UNL     1      31.368 -21.662 -17.040  0.00  0.00    -0.084 HD
ENDBRANCH  21  23
ENDBRANCH  20  21
ENDBRANCH   1  20
TORSDOF 6
ENDMDL
MODEL 3
REMARK VINA RESULT:     -11.2      3.647      5.280
REMARK  Name = 44129624
REMARK  6 active torsions:
REMARK  status: ('A' for Active; 'I' for Inactive)
REMARK    1  A    between atoms: C_1  and  O_20
REMARK    2  A    between atoms: C_4  and  C_8
REMARK    3  A    between atoms: C_8  and  C_9
REMARK    4  A    between atoms: C_10  and  C_16
REMARK    5  A    between atoms: O_20  and  C_21
REMARK    6  A    between atoms: C_21  and  C_23
REMARK                            x       y       z     vdW  Elec       q    Type
REMARK                         _______ _______ _______ _____ _____    ______ ____
ROOT
ATOM      1  C   UNL     1      35.426 -23.031 -14.876  0.00  0.00    +0.138 C 
ATOM      2  C   UNL     1      34.152 -23.426 -15.285  0.00  0.00    +0.037 C 
ATOM      3  C   UNL     1      36.331 -22.523 -15.808  0.00  0.00    +0.037 C 
ATOM      4  C   UNL     1      34.689 -22.806 -17.557  0.00  0.00    +0.039 C 
ATOM      5  C   UNL     1      33.784 -23.314 -16.625  0.00  0.00    +0.006 C 
ATOM      6  C   UNL     1      35.962 -22.410 -17.148  0.00  0.00    +0.006 C 
ENDROOT
BRANCH   4   8
ATOM      7  O   UNL     1      33.895 -23.678 -19.576  0.00  0.00    -0.287 OA
ATOM      8  C   UNL     1      34.303 -22.686 -18.954  0.00  0.00    +0.196 C 
BRANCH   8   9
ATOM      9  C   UNL     1      34.376 -21.392 -19.698  0.00  0.00    +0.039 C 
ATOM     10  C   UNL     1      34.511 -18.977 -21.087  0.00  0.00    +0.001 C 
ATOM     11  C   UNL     1      35.613 -20.885 -20.094  0.00  0.00    +0.003 C 
ATOM     12  C   UNL     1      33.206 -20.691 -19.994  0.00  0.00    +0.003 C 
ATOM     13  C   UNL     1      35.680 -19.677 -20.789  0.00  0.00    +0.000 C 
ATOM     14  C   UNL     1      33.274 -19.484 -20.689  0.00  0.00    +0.000 C 
BRANCH  10  16
ATOM     15  S   UNL     1      34.826 -16.121 -23.787  0.00  0.00    -0.086 S 
ATOM     16  C   UNL     1      34.583 -17.734 -21.803  0.00  0.00    +0.007 C 
ATOM     17  C   UNL     1      34.473 -16.421 -21.260  0.00  0.00    +0.007 C 
ATOM     18  C   UNL     1      34.777 -17.716 -23.166  0.00  0.00    +0.035 C 
ATOM     19  C   UNL     1      34.588 -15.450 -22.230  0.00  0.00    +0.035 C 
ENDBRANCH  10  16
ENDBRANCH   8   9
ENDBRANCH   4   8
BRANCH   1  20
ATOM     20  O   UNL     1      35.790 -23.142 -13.557  0.00  0.00    -0.478 OA
BRANCH  20  21
ATOM     21  C   UNL     1      35.521 -24.379 -12.920  0.00  0.00    +0.184 C 
BRANCH  21  23
ATOM     22  N   UNL     1      38.000 -24.451 -12.912  0.00  0.00    +0.388 N 
ATOM     23  C   UNL     1      36.767 -25.248 -12.990  0.00  0.00    -0.017 C 
ATOM     24  C   UNL     1      36.909 -25.977 -14.317  0.00  0.00    -0.020 C 
ATOM     25  C   UNL     1      38.401 -26.256 -14.426  0.00  0.00    -0.025 C 
ATOM     26  C   UNL     1      39.054 -25.352 -13.390  0.00  0.00    -0.082 C 
ATOM     27  H   UNL     1      38.181 -24.164 -11.950  0.00  0.00    -0.084 HD
ATOM     28  H   UNL     1      37.942 -23.596 -13.464  0.00  0.00    -0.084 HD
ENDBRANCH  21  23
ENDBRANCH  20  21
ENDBRANCH   1  20
TORSDOF 6
ENDMDL
MODEL 4
REMARK VINA RESULT:     -10.8      2.866      3.762
REMARK  Name = 44129624
REMARK  6 active torsions:
REMARK  status: ('A' for Active; 'I' for Inactive)
REMARK    1  A    between atoms: C_1  and  O_20
REMARK    2  A    between atoms: C_4  and  C_8
REMARK    3  A    between atoms: C_8  and  C_9
REMARK    4  A    between atoms: C_10  and  C_16
REMARK    5  A    between atoms: O_20  and  C_21
REMARK    6  A    between atoms: C_21  and  C_23
REMARK                            x       y       z     vdW  Elec       q    Type
REMARK                         _______ _______ _______ _____ _____    ______ ____
ROOT
ATOM      1  C   UNL     1      35.550 -21.202 -19.469  0.00  0.00    +0.138 C 
ATOM      2  C   UNL     1      34.297 -20.887 -19.995  0.00  0.00    +0.037 C 
ATOM      3  C   UNL     1      36.685 -20.529 -19.919  0.00  0.00    +0.037 C 
ATOM      4  C   UNL     1      35.315 -19.225 -21.422  0.00  0.00    +0.039 C 
ATOM      5  C   UNL     1      34.179 -19.899 -20.971  0.00  0.00    +0.006 C 
ATOM      6  C   UNL     1      36.567 -19.540 -20.896  0.00  0.00    +0.006 C 
ENDROOT
BRANCH   4   8
ATOM      7  O   UNL     1      35.682 -18.362 -23.564  0.00  0.00    -0.287 OA
ATOM      8  C   UNL     1      35.191 -18.192 -22.438  0.00  0.00    +0.196 C 
BRANCH   8   9
ATOM      9  C   UNL     1      34.483 -16.900 -22.186  0.00  0.00    +0.039 C 
ATOM     10  C   UNL     1      33.159 -14.490 -21.716  0.00  0.00    +0.001 C 
ATOM     11  C   UNL     1      33.972 -16.166 -23.256  0.00  0.00    +0.003 C 
ATOM     12  C   UNL     1      34.333 -16.430 -20.881  0.00  0.00    +0.003 C 
ATOM     13  C   UNL     1      33.310 -14.960 -23.020  0.00  0.00    +0.000 C 
ATOM     14  C   UNL     1      33.671 -15.225 -20.646  0.00  0.00    +0.000 C 
BRANCH  10  16
ATOM     15  S   UNL     1      31.344 -10.999 -21.980  0.00  0.00    -0.086 S 
ATOM     16  C   UNL     1      32.477 -13.250 -21.475  0.00  0.00    +0.007 C 
ATOM     17  C   UNL     1      32.062 -12.726 -20.217  0.00  0.00    +0.007 C 
ATOM     18  C   UNL     1      32.150 -12.411 -22.519  0.00  0.00    +0.035 C 
ATOM     19  C   UNL     1      31.432 -11.507 -20.347  0.00  0.00    +0.035 C 
ENDBRANCH  10  16
ENDBRANCH   8   9
ENDBRANCH   4   8
BRANCH   1  20
ATOM     20  O   UNL     1      35.667 -22.176 -18.508  0.00  0.00    -0.478 OA
BRANCH  20  21
ATOM     21  C   UNL     1      36.695 -22.008 -17.547  0.00  0.00    +0.184 C 
BRANCH  21  23
ATOM     22  N   UNL     1      37.040 -23.643 -15.713  0.00  0.00    +0.388 N 
ATOM     23  C   UNL     1      36.206 -22.537 -16.208  0.00  0.00    -0.017 C 
ATOM     24  C   UNL     1      34.819 -23.157 -16.284  0.00  0.00    -0.020 C 
ATOM     25  C   UNL     1      34.778 -24.114 -15.103  0.00  0.00    -0.025 C 
ATOM     26  C   UNL     1      36.228 -24.282 -14.672  0.00  0.00    -0.082 C 
ATOM     27  H   UNL     1      37.912 -23.288 -15.322  0.00  0.00    -0.084 HD
ATOM     28  H   UNL     1      37.298 -24.293 -16.455  0.00  0.00    -0.084 HD
ENDBRANCH  21  23
ENDBRANCH  20  21
ENDBRANCH   1  20
TORSDOF 6
ENDMDL
MODEL 5
REMARK VINA RESULT:     -10.8      4.919      9.995
REMARK  Name = 44129624
REMARK  6 active torsions:
REMARK  status: ('A' for Active; 'I' for Inactive)
REMARK    1  A    between atoms: C_1  and  O_20
REMARK    2  A    between atoms: C_4  and  C_8
REMARK    3  A    between atoms: C_8  and  C_9
REMARK    4  A    between atoms: C_10  and  C_16
REMARK    5  A    between atoms: O_20  and  C_21
REMARK    6  A    between atoms: C_21  and  C_23
REMARK                            x       y       z     vdW  Elec       q    Type
REMARK                         _______ _______ _______ _____ _____    ______ ____
ROOT
ATOM      1  C   UNL     1      34.968 -18.864 -21.082  0.00  0.00    +0.138 C 
ATOM      2  C   UNL     1      33.667 -19.297 -20.830  0.00  0.00    +0.037 C 
ATOM      3  C   UNL     1      36.053 -19.635 -20.667  0.00  0.00    +0.037 C 
ATOM      4  C   UNL     1      34.534 -21.274 -19.747  0.00  0.00    +0.039 C 
ATOM      5  C   UNL     1      33.449 -20.501 -20.162  0.00  0.00    +0.006 C 
ATOM      6  C   UNL     1      35.835 -20.841 -19.999  0.00  0.00    +0.006 C 
ENDROOT
BRANCH   4   8
ATOM      7  O   UNL     1      33.741 -23.470 -19.631  0.00  0.00    -0.287 OA
ATOM      8  C   UNL     1      34.307 -22.531 -19.053  0.00  0.00    +0.196 C 
BRANCH   8   9
ATOM      9  C   UNL     1      34.735 -22.755 -17.638  0.00  0.00    +0.039 C 
ATOM     10  C   UNL     1      35.534 -23.173 -14.999  0.00  0.00    +0.001 C 
ATOM     11  C   UNL     1      33.869 -23.375 -16.738  0.00  0.00    +0.003 C 
ATOM     12  C   UNL     1      36.000 -22.343 -17.219  0.00  0.00    +0.003 C 
ATOM     13  C   UNL     1      34.269 -23.584 -15.418  0.00  0.00    +0.000 C 
ATOM     14  C   UNL     1      36.400 -22.552 -15.899  0.00  0.00    +0.000 C 
BRANCH  10  16
ATOM     15  S   UNL     1      35.820 -24.157 -11.191  0.00  0.00    -0.086 S 
ATOM     16  C   UNL     1      35.944 -23.390 -13.640  0.00  0.00    +0.007 C 
ATOM     17  C   UNL     1      37.186 -23.020 -13.046  0.00  0.00    +0.007 C 
ATOM     18  C   UNL     1      35.108 -24.016 -12.742  0.00  0.00    +0.035 C 
ATOM     19  C   UNL     1      37.251 -23.378 -11.718  0.00  0.00    +0.035 C 
ENDBRANCH  10  16
ENDBRANCH   8   9
ENDBRANCH   4   8
BRANCH   1  20
ATOM     20  O   UNL     1      35.183 -17.677 -21.739  0.00  0.00    -0.478 OA
BRANCH  20  21
ATOM     21  C   UNL     1      34.873 -16.488 -21.032  0.00  0.00    +0.184 C 
BRANCH  21  23
ATOM     22  N   UNL     1      34.472 -14.620 -22.615  0.00  0.00    +0.388 N 
ATOM     23  C   UNL     1      33.848 -15.696 -21.830  0.00  0.00    -0.017 C 
ATOM     24  C   UNL     1      32.856 -14.952 -20.950  0.00  0.00    -0.020 C 
ATOM     25  C   UNL     1      32.362 -13.815 -21.831  0.00  0.00    -0.025 C 
ATOM     26  C   UNL     1      33.359 -13.735 -22.978  0.00  0.00    -0.082 C 
ATOM     27  H   UNL     1      34.919 -14.998 -23.450  0.00  0.00    -0.084 HD
ATOM     28  H   UNL     1      35.198 -14.133 -22.092  0.00  0.00    -0.084 HD
ENDBRANCH  21  23
ENDBRANCH  20  21
ENDBRANCH   1  20
TORSDOF 6
ENDMDL
MODEL 6
REMARK VINA RESULT:     -10.7      4.716     10.178
REMARK  Name = 44129624
REMARK  6 active torsions:
REMARK  status: ('A' for Active; 'I' for Inactive)
REMARK    1  A    between atoms: C_1  and  O_20
REMARK    2  A    between atoms: C_4  and  C_8
REMARK    3  A    between atoms: C_8  and  C_9
REMARK    4  A    between atoms: C_10  and  C_16
REMARK    5  A    between atoms: O_20  and  C_21
REMARK    6  A    between atoms: C_21  and  C_23
REMARK                            x       y       z     vdW  Elec       q    Type
REMARK                         _______ _______ _______ _____ _____    ______ ____
ROOT
ATOM      1  C   UNL     1      35.349 -18.871 -21.099  0.00  0.00    +0.138 C 
ATOM      2  C   UNL     1      34.016 -19.244 -20.931  0.00  0.00    +0.037 C 
ATOM      3  C   UNL     1      36.369 -19.686 -20.607  0.00  0.00    +0.037 C 
ATOM      4  C   UNL     1      34.721 -21.247 -19.780  0.00  0.00    +0.039 C 
ATOM      5  C   UNL     1      33.702 -20.432 -20.273  0.00  0.00    +0.006 C 
ATOM      6  C   UNL     1      36.054 -20.874 -19.948  0.00  0.00    +0.006 C 
ENDROOT
BRANCH   4   8
ATOM      7  O   UNL     1      33.786 -23.389 -19.693  0.00  0.00    -0.287 OA
ATOM      8  C   UNL     1      34.393 -22.487 -19.096  0.00  0.00    +0.196 C 
BRANCH   8   9
ATOM      9  C   UNL     1      34.761 -22.737 -17.669  0.00  0.00    +0.039 C 
ATOM     10  C   UNL     1      35.448 -23.203 -15.006  0.00  0.00    +0.001 C 
ATOM     11  C   UNL     1      36.021 -22.368 -17.200  0.00  0.00    +0.003 C 
ATOM     12  C   UNL     1      33.844 -23.340 -16.807  0.00  0.00    +0.003 C 
ATOM     13  C   UNL     1      36.364 -22.601 -15.868  0.00  0.00    +0.000 C 
ATOM     14  C   UNL     1      34.188 -23.573 -15.476  0.00  0.00    +0.000 C 
BRANCH  10  16
ATOM     15  S   UNL     1      37.222 -23.457 -11.493  0.00  0.00    -0.086 S 
ATOM     16  C   UNL     1      35.802 -23.441 -13.635  0.00  0.00    +0.007 C 
ATOM     17  C   UNL     1      34.997 -24.053 -12.632  0.00  0.00    +0.007 C 
ATOM     18  C   UNL     1      37.038 -23.068 -13.151  0.00  0.00    +0.035 C 
ATOM     19  C   UNL     1      35.648 -24.126 -11.419  0.00  0.00    +0.035 C 
ENDBRANCH  10  16
ENDBRANCH   8   9
ENDBRANCH   4   8
BRANCH   1  20
ATOM     20  O   UNL     1      35.660 -17.701 -21.746  0.00  0.00    -0.478 OA
BRANCH  20  21
ATOM     21  C   UNL     1      34.663 -16.693 -21.763  0.00  0.00    +0.184 C 
BRANCH  21  23
ATOM     22  N   UNL     1      33.499 -15.154 -23.322  0.00  0.00    +0.388 N 
ATOM     23  C   UNL     1      34.676 -16.013 -23.124  0.00  0.00    -0.017 C 
ATOM     24  C   UNL     1      34.586 -16.996 -24.280  0.00  0.00    -0.020 C 
ATOM     25  C   UNL     1      34.016 -16.170 -25.423  0.00  0.00    -0.025 C 
ATOM     26  C   UNL     1      33.456 -14.915 -24.769  0.00  0.00    -0.082 C 
ATOM     27  H   UNL     1      33.605 -14.276 -22.815  0.00  0.00    -0.084 HD
ATOM     28  H   UNL     1      32.643 -15.587 -22.976  0.00  0.00    -0.084 HD
ENDBRANCH  21  23
ENDBRANCH  20  21
ENDBRANCH   1  20
TORSDOF 6
ENDMDL
MODEL 7
REMARK VINA RESULT:     -10.7      4.047      6.856
REMARK  Name = 44129624
REMARK  6 active torsions:
REMARK  status: ('A' for Active; 'I' for Inactive)
REMARK    1  A    between atoms: C_1  and  O_20
REMARK    2  A    between atoms: C_4  and  C_8
REMARK    3  A    between atoms: C_8  and  C_9
REMARK    4  A    between atoms: C_10  and  C_16
REMARK    5  A    between atoms: O_20  and  C_21
REMARK    6  A    between atoms: C_21  and  C_23
REMARK                            x       y       z     vdW  Elec       q    Type
REMARK                         _______ _______ _______ _____ _____    ______ ____
ROOT
ATOM      1  C   UNL     1      34.976 -16.752 -21.463  0.00  0.00    +0.138 C 
ATOM      2  C   UNL     1      34.578 -15.520 -20.946  0.00  0.00    +0.037 C 
ATOM      3  C   UNL     1      34.889 -16.994 -22.834  0.00  0.00    +0.037 C 
ATOM      4  C   UNL     1      34.006 -14.770 -23.170  0.00  0.00    +0.039 C 
ATOM      5  C   UNL     1      34.094 -14.529 -21.798  0.00  0.00    +0.006 C 
ATOM      6  C   UNL     1      34.404 -16.003 -23.687  0.00  0.00    +0.006 C 
ENDROOT
BRANCH   4   8
ATOM      7  O   UNL     1      33.346 -13.973 -25.266  0.00  0.00    -0.287 OA
ATOM      8  C   UNL     1      33.503 -13.736 -24.059  0.00  0.00    +0.196 C 
BRANCH   8   9
ATOM      9  C   UNL     1      33.157 -12.364 -23.578  0.00  0.00    +0.039 C 
ATOM     10  C   UNL     1      32.512  -9.803 -22.681  0.00  0.00    +0.001 C 
ATOM     11  C   UNL     1      32.176 -12.195 -22.602  0.00  0.00    +0.003 C 
ATOM     12  C   UNL     1      33.815 -11.253 -24.107  0.00  0.00    +0.003 C 
ATOM     13  C   UNL     1      31.854 -10.914 -22.153  0.00  0.00    +0.000 C 
ATOM     14  C   UNL     1      33.492  -9.973 -23.658  0.00  0.00    +0.000 C 
BRANCH  10  16
ATOM     15  S   UNL     1      31.211  -6.106 -22.247  0.00  0.00    -0.086 S 
ATOM     16  C   UNL     1      32.179  -8.486 -22.217  0.00  0.00    +0.007 C 
ATOM     17  C   UNL     1      32.488  -7.917 -20.947  0.00  0.00    +0.007 C 
ATOM     18  C   UNL     1      31.487  -7.608 -23.022  0.00  0.00    +0.035 C 
ATOM     19  C   UNL     1      32.019  -6.627 -20.830  0.00  0.00    +0.035 C 
ENDBRANCH  10  16
ENDBRANCH   8   9
ENDBRANCH   4   8
BRANCH   1  20
ATOM     20  O   UNL     1      35.453 -17.728 -20.624  0.00  0.00    -0.478 OA
BRANCH  20  21
ATOM     21  C   UNL     1      36.159 -18.801 -21.225  0.00  0.00    +0.184 C 
BRANCH  21  23
ATOM     22  N   UNL     1      34.052 -19.859 -20.453  0.00  0.00    +0.388 N 
ATOM     23  C   UNL     1      35.422 -20.099 -20.930  0.00  0.00    -0.017 C 
ATOM     24  C   UNL     1      36.050 -20.893 -19.795  0.00  0.00    -0.020 C 
ATOM     25  C   UNL     1      34.908 -21.752 -19.271  0.00  0.00    -0.025 C 
ATOM     26  C   UNL     1      33.643 -21.131 -19.847  0.00  0.00    -0.082 C 
ATOM     27  H   UNL     1      33.438 -19.617 -21.230  0.00  0.00    -0.084 HD
ATOM     28  H   UNL     1      34.003 -19.083 -19.793  0.00  0.00    -0.084 HD
ENDBRANCH  21  23
ENDBRANCH  20  21
ENDBRANCH   1  20
TORSDOF 6
ENDMDL
MODEL 8
REMARK VINA RESULT:     -10.6      4.635      9.191
REMARK  Name = 44129624
REMARK  6 active torsions:
REMARK  status: ('A' for Active; 'I' for Inactive)
REMARK    1  A    between atoms: C_1  and  O_20
REMARK    2  A    between atoms: C_4  and  C_8
REMARK    3  A    between atoms: C_8  and  C_9
REMARK    4  A    between atoms: C_10  and  C_16
REMARK    5  A    between atoms: O_20  and  C_21
REMARK    6  A    between atoms: C_21  and  C_23
REMARK                            x       y       z     vdW  Elec       q    Type
REMARK                         _______ _______ _______ _____ _____    ______ ____
ROOT
ATOM      1  C   UNL     1      33.951 -14.409 -22.534  0.00  0.00    +0.138 C 
ATOM      2  C   UNL     1      34.310 -15.093 -21.373  0.00  0.00    +0.037 C 
ATOM      3  C   UNL     1      33.956 -15.069 -23.763  0.00  0.00    +0.037 C 
ATOM      4  C   UNL     1      34.681 -17.098 -22.669  0.00  0.00    +0.039 C 
ATOM      5  C   UNL     1      34.675 -16.437 -21.440  0.00  0.00    +0.006 C 
ATOM      6  C   UNL     1      34.322 -16.414 -23.830  0.00  0.00    +0.006 C 
ENDROOT
BRANCH   4   8
ATOM      7  O   UNL     1      35.564 -18.960 -23.773  0.00  0.00    -0.287 OA
ATOM      8  C   UNL     1      35.059 -18.500 -22.738  0.00  0.00    +0.196 C 
BRANCH   8   9
ATOM      9  C   UNL     1      34.865 -19.440 -21.593  0.00  0.00    +0.039 C 
ATOM     10  C   UNL     1      34.503 -21.195 -19.455  0.00  0.00    +0.001 C 
ATOM     11  C   UNL     1      35.973 -19.972 -20.932  0.00  0.00    +0.003 C 
ATOM     12  C   UNL     1      33.577 -19.787 -21.185  0.00  0.00    +0.003 C 
ATOM     13  C   UNL     1      35.791 -20.849 -19.863  0.00  0.00    +0.000 C 
ATOM     14  C   UNL     1      33.396 -20.664 -20.116  0.00  0.00    +0.000 C 
BRANCH  10  16
ATOM     15  S   UNL     1      34.886 -23.472 -16.258  0.00  0.00    -0.086 S 
ATOM     16  C   UNL     1      34.318 -22.097 -18.353  0.00  0.00    +0.007 C 
ATOM     17  C   UNL     1      33.129 -22.802 -18.009  0.00  0.00    +0.007 C 
ATOM     18  C   UNL     1      35.351 -22.370 -17.484  0.00  0.00    +0.035 C 
ATOM     19  C   UNL     1      33.298 -23.586 -16.889  0.00  0.00    +0.035 C 
ENDBRANCH  10  16
ENDBRANCH   8   9
ENDBRANCH   4   8
BRANCH   1  20
ATOM     20  O   UNL     1      33.592 -13.086 -22.469  0.00  0.00    -0.478 OA
BRANCH  20  21
ATOM     21  C   UNL     1      32.297 -12.749 -22.938  0.00  0.00    +0.184 C 
BRANCH  21  23
ATOM     22  N   UNL     1      32.067 -10.502 -21.912  0.00  0.00    +0.388 N 
ATOM     23  C   UNL     1      31.601 -11.897 -21.888  0.00  0.00    -0.017 C 
ATOM     24  C   UNL     1      31.907 -12.340 -20.466  0.00  0.00    -0.020 C 
ATOM     25  C   UNL     1      31.664 -11.091 -19.631  0.00  0.00    -0.025 C 
ATOM     26  C   UNL     1      31.626  -9.943 -20.629  0.00  0.00    -0.082 C 
ATOM     27  H   UNL     1      31.644  -9.996 -22.690  0.00  0.00    -0.084 HD
ATOM     28  H   UNL     1      33.077 -10.435 -22.037  0.00  0.00    -0.084 HD
ENDBRANCH  21  23
ENDBRANCH  20  21
ENDBRANCH   1  20
TORSDOF 6
ENDMDL
MODEL 9
REMARK VINA RESULT:     -10.4      3.624      6.543
REMARK  Name = 44129624
REMARK  6 active torsions:
REMARK  status: ('A' for Active; 'I' for Inactive)
REMARK    1  A    between atoms: C_1  and  O_20
REMARK    2  A    between atoms: C_4  and  C_8
REMARK    3  A    between atoms: C_8  and  C_9
REMARK    4  A    between atoms: C_10  and  C_16
REMARK    5  A    between atoms: O_20  and  C_21
REMARK    6  A    between atoms: C_21  and  C_23
REMARK                            x       y       z     vdW  Elec       q    Type
REMARK                         _______ _______ _______ _____ _____    ______ ____
ROOT
ATOM      1  C   UNL     1      35.427 -17.656 -23.150  0.00  0.00    +0.138 C 
ATOM      2  C   UNL     1      34.954 -17.798 -24.454  0.00  0.00    +0.037 C 
ATOM      3  C   UNL     1      35.182 -16.479 -22.442  0.00  0.00    +0.037 C 
ATOM      4  C   UNL     1      33.991 -15.585 -24.345  0.00  0.00    +0.039 C 
ATOM      5  C   UNL     1      34.236 -16.763 -25.051  0.00  0.00    +0.006 C 
ATOM      6  C   UNL     1      34.464 -15.444 -23.041  0.00  0.00    +0.006 C 
ENDROOT
BRANCH   4   8
ATOM      7  O   UNL     1      32.662 -14.691 -26.048  0.00  0.00    -0.287 OA
ATOM      8  C   UNL     1      33.240 -14.507 -24.967  0.00  0.00    +0.196 C 
BRANCH   8   9
ATOM      9  C   UNL     1      33.126 -13.149 -24.352  0.00  0.00    +0.039 C 
ATOM     10  C   UNL     1      32.916 -10.616 -23.203  0.00  0.00    +0.001 C 
ATOM     11  C   UNL     1      32.328 -12.960 -23.224  0.00  0.00    +0.003 C 
ATOM     12  C   UNL     1      33.818 -12.072 -24.906  0.00  0.00    +0.003 C 
ATOM     13  C   UNL     1      32.223 -11.693 -22.650  0.00  0.00    +0.000 C 
ATOM     14  C   UNL     1      33.713 -10.806 -24.332  0.00  0.00    +0.000 C 
BRANCH  10  16
ATOM     15  S   UNL     1      32.210  -7.507 -20.883  0.00  0.00    -0.086 S 
ATOM     16  C   UNL     1      32.807  -9.313 -22.610  0.00  0.00    +0.007 C 
ATOM     17  C   UNL     1      33.251  -8.077 -23.162  0.00  0.00    +0.007 C 
ATOM     18  C   UNL     1      32.221  -9.147 -21.374  0.00  0.00    +0.035 C 
ATOM     19  C   UNL     1      32.989  -7.013 -22.326  0.00  0.00    +0.035 C 
ENDBRANCH  10  16
ENDBRANCH   8   9
ENDBRANCH   4   8
BRANCH   1  20
ATOM     20  O   UNL     1      36.134 -18.675 -22.561  0.00  0.00    -0.478 OA
BRANCH  20  21
ATOM     21  C   UNL     1      35.923 -18.884 -21.175  0.00  0.00    +0.184 C 
BRANCH  21  23
ATOM     22  N   UNL     1      33.602 -19.554 -20.610  0.00  0.00    +0.388 N 
ATOM     23  C   UNL     1      34.939 -20.030 -20.996  0.00  0.00    -0.017 C 
ATOM     24  C   UNL     1      35.315 -20.965 -19.858  0.00  0.00    -0.020 C 
ATOM     25  C   UNL     1      33.997 -21.612 -19.461  0.00  0.00    -0.025 C 
ATOM     26  C   UNL     1      32.918 -20.746 -20.097  0.00  0.00    -0.082 C 
ATOM     27  H   UNL     1      33.108 -19.176 -21.418  0.00  0.00    -0.084 HD
ATOM     28  H   UNL     1      33.644 -18.805 -19.920  0.00  0.00    -0.084 HD
ENDBRANCH  21  23
ENDBRANCH  20  21
ENDBRANCH   1  20
TORSDOF 6
ENDMDL
