MODEL 1
REMARK VINA RESULT:     -11.5      0.000      0.000
REMARK  Name = 24755471
REMARK  13 active torsions:
REMARK  status: ('A' for Active; 'I' for Inactive)
REMARK    1  A    between atoms: C_1  and  S_11
REMARK    2  A    between atoms: C_9  and  O_27
REMARK    3  A    between atoms: S_11  and  N_14
REMARK    4  A    between atoms: N_14  and  C_16
REMARK    5  A    between atoms: C_16  and  C_18
REMARK    6  A    between atoms: C_16  and  C_21
REMARK    7  A    between atoms: C_18  and  O_19
REMARK    8  A    between atoms: C_21  and  C_22
REMARK    9  A    between atoms: C_22  and  C_24
REMARK   10  A    between atoms: C_24  and  O_25
REMARK   11  A    between atoms: O_27  and  C_28
REMARK   12  A    between atoms: C_28  and  C_29
REMARK   13  A    between atoms: C_34  and  C_36
REMARK                            x       y       z     vdW  Elec       q    Type
REMARK                         _______ _______ _______ _____ _____    ______ ____
ROOT
ATOM      1  C   UNL     1      34.843 -23.504 -16.433  0.00  0.00    +0.122 C 
ATOM      2  C   UNL     1      35.679 -21.995 -18.149  0.00  0.00    +0.002 C 
ATOM      3  C   UNL     1      35.890 -22.777 -17.002  0.00  0.00    +0.020 C 
ATOM      4  C   UNL     1      34.389 -21.950 -18.729  0.00  0.00    +0.003 C 
ATOM      5  C   UNL     1      33.574 -23.459 -17.003  0.00  0.00    +0.020 C 
ATOM      6  C   UNL     1      33.347 -22.687 -18.143  0.00  0.00    +0.001 C 
ATOM      7  C   UNL     1      34.178 -21.168 -19.876  0.00  0.00    +0.037 C 
ATOM      8  C   UNL     1      36.721 -21.256 -18.735  0.00  0.00    +0.003 C 
ATOM      9  C   UNL     1      35.225 -20.441 -20.444  0.00  0.00    +0.139 C 
ATOM     10  C   UNL     1      36.494 -20.485 -19.875  0.00  0.00    +0.037 C 
ENDROOT
BRANCH   1  11
ATOM     11  S   UNL     1      35.130 -24.481 -14.988  0.00  0.00    +0.061 S 
ATOM     12  O   UNL     1      34.091 -24.171 -14.026  0.00  0.00    -0.153 OA
ATOM     13  O   UNL     1      35.327 -25.847 -15.435  0.00  0.00    -0.153 OA
BRANCH  11  14
ATOM     14  N   UNL     1      36.614 -23.862 -14.437  0.00  0.00    -0.170 NA
ATOM     15  H   UNL     1      36.396 -23.077 -13.825  0.00  0.00    +0.149 HD
BRANCH  14  16
ATOM     16  C   UNL     1      37.548 -24.737 -13.694  0.00  0.00    +0.174 C 
BRANCH  16  18
ATOM     17  O   UNL     1      39.796 -24.528 -14.598  0.00  0.00    -0.249 OA
ATOM     18  C   UNL     1      38.700 -25.075 -14.609  0.00  0.00    +0.330 C 
BRANCH  18  19
ATOM     19  O   UNL     1      38.398 -26.091 -15.459  0.00  0.00    -0.479 OA
ATOM     20  H   UNL     1      38.048 -25.903 -16.307  0.00  0.00    +0.295 HD
ENDBRANCH  18  19
ENDBRANCH  16  18
BRANCH  16  21
ATOM     21  C   UNL     1      37.956 -24.082 -12.370  0.00  0.00    +0.040 C 
BRANCH  21  22
ATOM     22  C   UNL     1      36.856 -23.329 -11.615  0.00  0.00    +0.111 C 
BRANCH  22  24
ATOM     23  O   UNL     1      35.950 -24.280  -9.588  0.00  0.00    -0.250 OA
ATOM     24  C   UNL     1      35.946 -24.223 -10.811  0.00  0.00    +0.314 C 
BRANCH  24  25
ATOM     25  O   UNL     1      35.128 -24.977 -11.588  0.00  0.00    -0.480 OA
ATOM     26  H   UNL     1      35.354 -25.141 -12.483  0.00  0.00    +0.295 HD
ENDBRANCH  24  25
ENDBRANCH  22  24
ENDBRANCH  21  22
ENDBRANCH  16  21
ENDBRANCH  14  16
ENDBRANCH  11  14
ENDBRANCH   1  11
BRANCH   9  27
ATOM     27  O   UNL     1      35.005 -19.690 -21.558  0.00  0.00    -0.471 OA
BRANCH  27  28
ATOM     28  C   UNL     1      35.734 -18.469 -21.672  0.00  0.00    +0.232 C 
BRANCH  28  29
ATOM     29  C   UNL     1      35.179 -17.671 -22.814  0.00  0.00    +0.021 C 
ATOM     30  C   UNL     1      34.906 -18.294 -24.032  0.00  0.00    -0.000 C 
ATOM     31  C   UNL     1      34.937 -16.306 -22.660  0.00  0.00    -0.000 C 
ATOM     32  C   UNL     1      34.390 -17.552 -25.094  0.00  0.00    +0.010 C 
ATOM     33  C   UNL     1      34.421 -15.564 -23.721  0.00  0.00    +0.010 C 
ATOM     34  C   UNL     1      34.148 -16.187 -24.939  0.00  0.00    +0.068 C 
BRANCH  34  36
ATOM     35  N   UNL     1      33.189 -14.811 -26.913  0.00  0.00    -0.191 NA
ATOM     36  C   UNL     1      33.618 -15.427 -26.028  0.00  0.00    +0.100 C 
ENDBRANCH  34  36
ENDBRANCH  28  29
ENDBRANCH  27  28
ENDBRANCH   9  27
TORSDOF 13
ENDMDL
MODEL 2
REMARK VINA RESULT:     -11.5      0.963      2.509
REMARK  Name = 24755471
REMARK  13 active torsions:
REMARK  status: ('A' for Active; 'I' for Inactive)
REMARK    1  A    between atoms: C_1  and  S_11
REMARK    2  A    between atoms: C_9  and  O_27
REMARK    3  A    between atoms: S_11  and  N_14
REMARK    4  A    between atoms: N_14  and  C_16
REMARK    5  A    between atoms: C_16  and  C_18
REMARK    6  A    between atoms: C_16  and  C_21
REMARK    7  A    between atoms: C_18  and  O_19
REMARK    8  A    between atoms: C_21  and  C_22
REMARK    9  A    between atoms: C_22  and  C_24
REMARK   10  A    between atoms: C_24  and  O_25
REMARK   11  A    between atoms: O_27  and  C_28
REMARK   12  A    between atoms: C_28  and  C_29
REMARK   13  A    between atoms: C_34  and  C_36
REMARK                            x       y       z     vdW  Elec       q    Type
REMARK                         _______ _______ _______ _____ _____    ______ ____
ROOT
ATOM      1  C   UNL     1      34.719 -23.510 -16.210  0.00  0.00    +0.122 C 
ATOM      2  C   UNL     1      35.677 -22.094 -17.942  0.00  0.00    +0.002 C 
ATOM      3  C   UNL     1      35.812 -22.837 -16.758  0.00  0.00    +0.020 C 
ATOM      4  C   UNL     1      34.416 -22.034 -18.581  0.00  0.00    +0.003 C 
ATOM      5  C   UNL     1      33.479 -23.450 -16.839  0.00  0.00    +0.020 C 
ATOM      6  C   UNL     1      33.326 -22.717 -18.017  0.00  0.00    +0.001 C 
ATOM      7  C   UNL     1      34.281 -21.292 -19.766  0.00  0.00    +0.037 C 
ATOM      8  C   UNL     1      36.767 -21.410 -18.507  0.00  0.00    +0.003 C 
ATOM      9  C   UNL     1      35.374 -20.619 -20.312  0.00  0.00    +0.139 C 
ATOM     10  C   UNL     1      36.615 -20.678 -19.684  0.00  0.00    +0.037 C 
ENDROOT
BRANCH   1  11
ATOM     11  S   UNL     1      34.910 -24.439 -14.719  0.00  0.00    +0.061 S 
ATOM     12  O   UNL     1      33.673 -24.339 -13.969  0.00  0.00    -0.153 OA
ATOM     13  O   UNL     1      35.434 -25.738 -15.094  0.00  0.00    -0.153 OA
BRANCH  11  14
ATOM     14  N   UNL     1      36.129 -23.564 -13.917  0.00  0.00    -0.170 NA
ATOM     15  H   UNL     1      35.662 -22.970 -13.233  0.00  0.00    +0.149 HD
BRANCH  14  16
ATOM     16  C   UNL     1      37.202 -24.285 -13.197  0.00  0.00    +0.174 C 
BRANCH  16  18
ATOM     17  O   UNL     1      35.886 -25.041 -11.297  0.00  0.00    -0.249 OA
ATOM     18  C   UNL     1      36.554 -25.303 -12.289  0.00  0.00    +0.330 C 
BRANCH  18  19
ATOM     19  O   UNL     1      36.777 -26.576 -12.707  0.00  0.00    -0.479 OA
ATOM     20  H   UNL     1      37.573 -26.791 -13.150  0.00  0.00    +0.295 HD
ENDBRANCH  18  19
ENDBRANCH  16  18
BRANCH  16  21
ATOM     21  C   UNL     1      38.214 -24.868 -14.190  0.00  0.00    +0.040 C 
BRANCH  21  22
ATOM     22  C   UNL     1      39.597 -25.211 -13.630  0.00  0.00    +0.111 C 
BRANCH  22  24
ATOM     23  O   UNL     1      41.285 -26.841 -14.202  0.00  0.00    -0.250 OA
ATOM     24  C   UNL     1      40.452 -26.024 -14.570  0.00  0.00    +0.314 C 
BRANCH  24  25
ATOM     25  O   UNL     1      40.212 -25.740 -15.876  0.00  0.00    -0.480 OA
ATOM     26  H   UNL     1      40.763 -26.103 -16.541  0.00  0.00    +0.295 HD
ENDBRANCH  24  25
ENDBRANCH  22  24
ENDBRANCH  21  22
ENDBRANCH  16  21
ENDBRANCH  14  16
ENDBRANCH  11  14
ENDBRANCH   1  11
BRANCH   9  27
ATOM     27  O   UNL     1      35.227 -19.905 -21.462  0.00  0.00    -0.471 OA
BRANCH  27  28
ATOM     28  C   UNL     1      35.843 -18.619 -21.511  0.00  0.00    +0.232 C 
BRANCH  28  29
ATOM     29  C   UNL     1      35.264 -17.842 -22.657  0.00  0.00    +0.021 C 
ATOM     30  C   UNL     1      34.921 -18.496 -23.840  0.00  0.00    -0.000 C 
ATOM     31  C   UNL     1      35.071 -16.465 -22.539  0.00  0.00    -0.000 C 
ATOM     32  C   UNL     1      34.384 -17.774 -24.904  0.00  0.00    +0.010 C 
ATOM     33  C   UNL     1      34.534 -15.743 -23.604  0.00  0.00    +0.010 C 
ATOM     34  C   UNL     1      34.191 -16.397 -24.787  0.00  0.00    +0.068 C 
BRANCH  34  36
ATOM     35  N   UNL     1      33.191 -15.057 -26.765  0.00  0.00    -0.191 NA
ATOM     36  C   UNL     1      33.639 -15.657 -25.879  0.00  0.00    +0.100 C 
ENDBRANCH  34  36
ENDBRANCH  28  29
ENDBRANCH  27  28
ENDBRANCH   9  27
TORSDOF 13
ENDMDL
MODEL 3
REMARK VINA RESULT:     -11.4      1.164      1.987
REMARK  Name = 24755471
REMARK  13 active torsions:
REMARK  status: ('A' for Active; 'I' for Inactive)
REMARK    1  A    between atoms: C_1  and  S_11
REMARK    2  A    between atoms: C_9  and  O_27
REMARK    3  A    between atoms: S_11  and  N_14
REMARK    4  A    between atoms: N_14  and  C_16
REMARK    5  A    between atoms: C_16  and  C_18
REMARK    6  A    between atoms: C_16  and  C_21
REMARK    7  A    between atoms: C_18  and  O_19
REMARK    8  A    between atoms: C_21  and  C_22
REMARK    9  A    between atoms: C_22  and  C_24
REMARK   10  A    between atoms: C_24  and  O_25
REMARK   11  A    between atoms: O_27  and  C_28
REMARK   12  A    between atoms: C_28  and  C_29
REMARK   13  A    between atoms: C_34  and  C_36
REMARK                            x       y       z     vdW  Elec       q    Type
REMARK                         _______ _______ _______ _____ _____    ______ ____
ROOT
ATOM      1  C   UNL     1      35.621 -23.067 -16.531  0.00  0.00    +0.122 C 
ATOM      2  C   UNL     1      34.523 -22.015 -18.431  0.00  0.00    +0.002 C 
ATOM      3  C   UNL     1      34.479 -22.851 -17.303  0.00  0.00    +0.020 C 
ATOM      4  C   UNL     1      35.743 -21.388 -18.780  0.00  0.00    +0.003 C 
ATOM      5  C   UNL     1      36.821 -22.451 -16.876  0.00  0.00    +0.020 C 
ATOM      6  C   UNL     1      36.883 -21.617 -17.992  0.00  0.00    +0.001 C 
ATOM      7  C   UNL     1      35.787 -20.552 -19.908  0.00  0.00    +0.037 C 
ATOM      8  C   UNL     1      33.383 -21.787 -19.219  0.00  0.00    +0.003 C 
ATOM      9  C   UNL     1      34.645 -20.337 -20.679  0.00  0.00    +0.139 C 
ATOM     10  C   UNL     1      33.445 -20.953 -20.336  0.00  0.00    +0.037 C 
ENDROOT
BRANCH   1  11
ATOM     11  S   UNL     1      35.544 -24.123 -15.116  0.00  0.00    +0.061 S 
ATOM     12  O   UNL     1      34.408 -23.712 -14.314  0.00  0.00    -0.153 OA
ATOM     13  O   UNL     1      35.641 -25.486 -15.601  0.00  0.00    -0.153 OA
BRANCH  11  14
ATOM     14  N   UNL     1      36.983 -23.724 -14.303  0.00  0.00    -0.170 NA
ATOM     15  H   UNL     1      36.738 -23.036 -13.592  0.00  0.00    +0.149 HD
BRANCH  14  16
ATOM     16  C   UNL     1      37.766 -24.781 -13.626  0.00  0.00    +0.174 C 
BRANCH  16  18
ATOM     17  O   UNL     1      40.057 -24.687 -14.436  0.00  0.00    -0.249 OA
ATOM     18  C   UNL     1      38.926 -25.149 -14.520  0.00  0.00    +0.330 C 
BRANCH  18  19
ATOM     19  O   UNL     1      38.585 -26.087 -15.441  0.00  0.00    -0.479 OA
ATOM     20  H   UNL     1      38.945 -26.048 -16.305  0.00  0.00    +0.295 HD
ENDBRANCH  18  19
ENDBRANCH  16  18
BRANCH  16  21
ATOM     21  C   UNL     1      38.164 -24.332 -12.216  0.00  0.00    +0.040 C 
BRANCH  21  22
ATOM     22  C   UNL     1      37.302 -23.237 -11.581  0.00  0.00    +0.111 C 
BRANCH  22  24
ATOM     23  O   UNL     1      36.047 -24.268  -9.793  0.00  0.00    -0.250 OA
ATOM     24  C   UNL     1      36.058 -23.755 -10.904  0.00  0.00    +0.314 C 
BRANCH  24  25
ATOM     25  O   UNL     1      34.945 -23.608 -11.667  0.00  0.00    -0.480 OA
ATOM     26  H   UNL     1      35.027 -23.434 -12.584  0.00  0.00    +0.295 HD
ENDBRANCH  24  25
ENDBRANCH  22  24
ENDBRANCH  21  22
ENDBRANCH  16  21
ENDBRANCH  14  16
ENDBRANCH  11  14
ENDBRANCH   1  11
BRANCH   9  27
ATOM     27  O   UNL     1      34.703 -19.522 -21.768  0.00  0.00    -0.471 OA
BRANCH  27  28
ATOM     28  C   UNL     1      35.771 -18.577 -21.815  0.00  0.00    +0.232 C 
BRANCH  28  29
ATOM     29  C   UNL     1      35.216 -17.228 -22.168  0.00  0.00    +0.021 C 
ATOM     30  C   UNL     1      34.851 -16.339 -21.158  0.00  0.00    -0.000 C 
ATOM     31  C   UNL     1      35.064 -16.865 -23.506  0.00  0.00    -0.000 C 
ATOM     32  C   UNL     1      34.335 -15.086 -21.486  0.00  0.00    +0.010 C 
ATOM     33  C   UNL     1      34.548 -15.612 -23.834  0.00  0.00    +0.010 C 
ATOM     34  C   UNL     1      34.183 -14.722 -22.824  0.00  0.00    +0.068 C 
BRANCH  34  36
ATOM     35  N   UNL     1      33.225 -12.393 -23.432  0.00  0.00    -0.191 NA
ATOM     36  C   UNL     1      33.654 -13.437 -23.160  0.00  0.00    +0.100 C 
ENDBRANCH  34  36
ENDBRANCH  28  29
ENDBRANCH  27  28
ENDBRANCH   9  27
TORSDOF 13
ENDMDL
MODEL 4
REMARK VINA RESULT:     -10.8      3.390     11.500
REMARK  Name = 24755471
REMARK  13 active torsions:
REMARK  status: ('A' for Active; 'I' for Inactive)
REMARK    1  A    between atoms: C_1  and  S_11
REMARK    2  A    between atoms: C_9  and  O_27
REMARK    3  A    between atoms: S_11  and  N_14
REMARK    4  A    between atoms: N_14  and  C_16
REMARK    5  A    between atoms: C_16  and  C_18
REMARK    6  A    between atoms: C_16  and  C_21
REMARK    7  A    between atoms: C_18  and  O_19
REMARK    8  A    between atoms: C_21  and  C_22
REMARK    9  A    between atoms: C_22  and  C_24
REMARK   10  A    between atoms: C_24  and  O_25
REMARK   11  A    between atoms: O_27  and  C_28
REMARK   12  A    between atoms: C_28  and  C_29
REMARK   13  A    between atoms: C_34  and  C_36
REMARK                            x       y       z     vdW  Elec       q    Type
REMARK                         _______ _______ _______ _____ _____    ______ ____
ROOT
ATOM      1  C   UNL     1      35.327 -19.572 -21.203  0.00  0.00    +0.122 C 
ATOM      2  C   UNL     1      34.193 -21.090 -19.676  0.00  0.00    +0.002 C 
ATOM      3  C   UNL     1      34.152 -20.152 -20.720  0.00  0.00    +0.020 C 
ATOM      4  C   UNL     1      35.442 -21.446 -19.113  0.00  0.00    +0.003 C 
ATOM      5  C   UNL     1      36.554 -19.922 -20.648  0.00  0.00    +0.020 C 
ATOM      6  C   UNL     1      36.614 -20.852 -19.611  0.00  0.00    +0.001 C 
ATOM      7  C   UNL     1      35.482 -22.384 -18.069  0.00  0.00    +0.037 C 
ATOM      8  C   UNL     1      33.021 -21.684 -19.178  0.00  0.00    +0.003 C 
ATOM      9  C   UNL     1      34.308 -22.964 -17.587  0.00  0.00    +0.139 C 
ATOM     10  C   UNL     1      33.080 -22.614 -18.140  0.00  0.00    +0.037 C 
ENDROOT
BRANCH   1  11
ATOM     11  S   UNL     1      35.253 -18.393 -22.518  0.00  0.00    +0.061 S 
ATOM     12  O   UNL     1      36.526 -18.420 -23.212  0.00  0.00    -0.153 OA
ATOM     13  O   UNL     1      34.021 -18.643 -23.240  0.00  0.00    -0.153 OA
BRANCH  11  14
ATOM     14  N   UNL     1      35.105 -16.929 -21.666  0.00  0.00    -0.170 NA
ATOM     15  H   UNL     1      36.022 -16.485 -21.684  0.00  0.00    +0.149 HD
BRANCH  14  16
ATOM     16  C   UNL     1      34.127 -15.912 -22.112  0.00  0.00    +0.174 C 
BRANCH  16  18
ATOM     17  O   UNL     1      32.947 -14.197 -20.854  0.00  0.00    -0.249 OA
ATOM     18  C   UNL     1      33.914 -14.939 -20.977  0.00  0.00    +0.330 C 
BRANCH  18  19
ATOM     19  O   UNL     1      34.922 -14.984 -20.068  0.00  0.00    -0.479 OA
ATOM     20  H   UNL     1      35.061 -15.758 -19.560  0.00  0.00    +0.295 HD
ENDBRANCH  18  19
ENDBRANCH  16  18
BRANCH  16  21
ATOM     21  C   UNL     1      34.586 -15.269 -23.426  0.00  0.00    +0.040 C 
BRANCH  21  22
ATOM     22  C   UNL     1      33.488 -14.935 -24.440  0.00  0.00    +0.111 C 
BRANCH  22  24
ATOM     23  O   UNL     1      33.507 -15.094 -26.850  0.00  0.00    -0.250 OA
ATOM     24  C   UNL     1      33.645 -15.640 -25.763  0.00  0.00    +0.314 C 
BRANCH  24  25
ATOM     25  O   UNL     1      33.939 -16.958 -25.625  0.00  0.00    -0.480 OA
ATOM     26  H   UNL     1      33.823 -17.542 -26.348  0.00  0.00    +0.295 HD
ENDBRANCH  24  25
ENDBRANCH  22  24
ENDBRANCH  21  22
ENDBRANCH  16  21
ENDBRANCH  14  16
ENDBRANCH  11  14
ENDBRANCH   1  11
BRANCH   9  27
ATOM     27  O   UNL     1      34.365 -23.873 -16.575  0.00  0.00    -0.471 OA
BRANCH  27  28
ATOM     28  C   UNL     1      34.909 -23.430 -15.333  0.00  0.00    +0.232 C 
BRANCH  28  29
ATOM     29  C   UNL     1      36.234 -24.098 -15.112  0.00  0.00    +0.021 C 
ATOM     30  C   UNL     1      36.282 -25.438 -14.726  0.00  0.00    -0.000 C 
ATOM     31  C   UNL     1      37.416 -23.380 -15.290  0.00  0.00    -0.000 C 
ATOM     32  C   UNL     1      37.513 -26.059 -14.519  0.00  0.00    +0.010 C 
ATOM     33  C   UNL     1      38.647 -24.002 -15.084  0.00  0.00    +0.010 C 
ATOM     34  C   UNL     1      38.696 -25.341 -14.698  0.00  0.00    +0.068 C 
BRANCH  34  36
ATOM     35  N   UNL     1      40.983 -26.496 -14.316  0.00  0.00    -0.191 NA
ATOM     36  C   UNL     1      39.958 -25.979 -14.487  0.00  0.00    +0.100 C 
ENDBRANCH  34  36
ENDBRANCH  28  29
ENDBRANCH  27  28
ENDBRANCH   9  27
TORSDOF 13
ENDMDL
MODEL 5
REMARK VINA RESULT:     -10.8      3.354      5.318
REMARK  Name = 24755471
REMARK  13 active torsions:
REMARK  status: ('A' for Active; 'I' for Inactive)
REMARK    1  A    between atoms: C_1  and  S_11
REMARK    2  A    between atoms: C_9  and  O_27
REMARK    3  A    between atoms: S_11  and  N_14
REMARK    4  A    between atoms: N_14  and  C_16
REMARK    5  A    between atoms: C_16  and  C_18
REMARK    6  A    between atoms: C_16  and  C_21
REMARK    7  A    between atoms: C_18  and  O_19
REMARK    8  A    between atoms: C_21  and  C_22
REMARK    9  A    between atoms: C_22  and  C_24
REMARK   10  A    between atoms: C_24  and  O_25
REMARK   11  A    between atoms: O_27  and  C_28
REMARK   12  A    between atoms: C_28  and  C_29
REMARK   13  A    between atoms: C_34  and  C_36
REMARK                            x       y       z     vdW  Elec       q    Type
REMARK                         _______ _______ _______ _____ _____    ______ ____
ROOT
ATOM      1  C   UNL     1      34.014 -21.806 -19.025  0.00  0.00    +0.122 C 
ATOM      2  C   UNL     1      35.389 -20.255 -20.300  0.00  0.00    +0.002 C 
ATOM      3  C   UNL     1      35.270 -21.312 -19.383  0.00  0.00    +0.020 C 
ATOM      4  C   UNL     1      34.219 -19.691 -20.862  0.00  0.00    +0.003 C 
ATOM      5  C   UNL     1      32.864 -21.251 -19.577  0.00  0.00    +0.020 C 
ATOM      6  C   UNL     1      32.964 -20.201 -20.490  0.00  0.00    +0.001 C 
ATOM      7  C   UNL     1      34.338 -18.635 -21.779  0.00  0.00    +0.037 C 
ATOM      8  C   UNL     1      36.644 -19.745 -20.671  0.00  0.00    +0.003 C 
ATOM      9  C   UNL     1      35.593 -18.141 -22.137  0.00  0.00    +0.139 C 
ATOM     10  C   UNL     1      36.743 -18.695 -21.584  0.00  0.00    +0.037 C 
ENDROOT
BRANCH   1  11
ATOM     11  S   UNL     1      33.887 -23.137 -17.868  0.00  0.00    +0.061 S 
ATOM     12  O   UNL     1      33.506 -24.329 -18.601  0.00  0.00    -0.153 OA
ATOM     13  O   UNL     1      35.100 -23.124 -17.074  0.00  0.00    -0.153 OA
BRANCH  11  14
ATOM     14  N   UNL     1      32.586 -22.632 -16.896  0.00  0.00    -0.170 NA
ATOM     15  H   UNL     1      31.860 -22.299 -17.528  0.00  0.00    +0.149 HD
BRANCH  14  16
ATOM     16  C   UNL     1      31.943 -23.589 -15.970  0.00  0.00    +0.174 C 
BRANCH  16  18
ATOM     17  O   UNL     1      33.668 -24.581 -14.571  0.00  0.00    -0.249 OA
ATOM     18  C   UNL     1      32.819 -23.716 -14.746  0.00  0.00    +0.330 C 
BRANCH  18  19
ATOM     19  O   UNL     1      32.577 -22.734 -13.840  0.00  0.00    -0.479 OA
ATOM     20  H   UNL     1      31.697 -22.525 -13.598  0.00  0.00    +0.295 HD
ENDBRANCH  18  19
ENDBRANCH  16  18
BRANCH  16  21
ATOM     21  C   UNL     1      30.499 -23.163 -15.680  0.00  0.00    +0.040 C 
BRANCH  21  22
ATOM     22  C   UNL     1      29.397 -24.082 -16.217  0.00  0.00    +0.111 C 
BRANCH  22  24
ATOM     23  O   UNL     1      27.486 -23.940 -17.688  0.00  0.00    -0.250 OA
ATOM     24  C   UNL     1      28.358 -23.369 -17.044  0.00  0.00    +0.314 C 
BRANCH  24  25
ATOM     25  O   UNL     1      28.499 -22.020 -17.016  0.00  0.00    -0.480 OA
ATOM     26  H   UNL     1      29.026 -21.591 -17.662  0.00  0.00    +0.295 HD
ENDBRANCH  24  25
ENDBRANCH  22  24
ENDBRANCH  21  22
ENDBRANCH  16  21
ENDBRANCH  14  16
ENDBRANCH  11  14
ENDBRANCH   1  11
BRANCH   9  27
ATOM     27  O   UNL     1      35.691 -17.117 -23.029  0.00  0.00    -0.471 OA
BRANCH  27  28
ATOM     28  C   UNL     1      34.573 -16.892 -23.885  0.00  0.00    +0.232 C 
BRANCH  28  29
ATOM     29  C   UNL     1      33.883 -15.627 -23.469  0.00  0.00    +0.021 C 
ATOM     30  C   UNL     1      33.478 -14.704 -24.433  0.00  0.00    -0.000 C 
ATOM     31  C   UNL     1      33.647 -15.373 -22.117  0.00  0.00    -0.000 C 
ATOM     32  C   UNL     1      32.837 -13.528 -24.045  0.00  0.00    +0.010 C 
ATOM     33  C   UNL     1      33.006 -14.197 -21.730  0.00  0.00    +0.010 C 
ATOM     34  C   UNL     1      32.601 -13.274 -22.694  0.00  0.00    +0.068 C 
BRANCH  34  36
ATOM     35  N   UNL     1      31.410 -11.089 -21.975  0.00  0.00    -0.191 NA
ATOM     36  C   UNL     1      31.943 -12.068 -22.298  0.00  0.00    +0.100 C 
ENDBRANCH  34  36
ENDBRANCH  28  29
ENDBRANCH  27  28
ENDBRANCH   9  27
TORSDOF 13
ENDMDL
MODEL 6
REMARK VINA RESULT:     -10.8      1.418      2.325
REMARK  Name = 24755471
REMARK  13 active torsions:
REMARK  status: ('A' for Active; 'I' for Inactive)
REMARK    1  A    between atoms: C_1  and  S_11
REMARK    2  A    between atoms: C_9  and  O_27
REMARK    3  A    between atoms: S_11  and  N_14
REMARK    4  A    between atoms: N_14  and  C_16
REMARK    5  A    between atoms: C_16  and  C_18
REMARK    6  A    between atoms: C_16  and  C_21
REMARK    7  A    between atoms: C_18  and  O_19
REMARK    8  A    between atoms: C_21  and  C_22
REMARK    9  A    between atoms: C_22  and  C_24
REMARK   10  A    between atoms: C_24  and  O_25
REMARK   11  A    between atoms: O_27  and  C_28
REMARK   12  A    between atoms: C_28  and  C_29
REMARK   13  A    between atoms: C_34  and  C_36
REMARK                            x       y       z     vdW  Elec       q    Type
REMARK                         _______ _______ _______ _____ _____    ______ ____
ROOT
ATOM      1  C   UNL     1      35.374 -22.569 -17.143  0.00  0.00    +0.122 C 
ATOM      2  C   UNL     1      34.430 -21.438 -19.080  0.00  0.00    +0.002 C 
ATOM      3  C   UNL     1      34.272 -22.227 -17.929  0.00  0.00    +0.020 C 
ATOM      4  C   UNL     1      35.723 -20.988 -19.439  0.00  0.00    +0.003 C 
ATOM      5  C   UNL     1      36.645 -22.127 -17.497  0.00  0.00    +0.020 C 
ATOM      6  C   UNL     1      36.821 -21.341 -18.636  0.00  0.00    +0.001 C 
ATOM      7  C   UNL     1      35.881 -20.198 -20.589  0.00  0.00    +0.037 C 
ATOM      8  C   UNL     1      33.333 -21.084 -19.883  0.00  0.00    +0.003 C 
ATOM      9  C   UNL     1      34.780 -19.857 -21.374  0.00  0.00    +0.139 C 
ATOM     10  C   UNL     1      33.508 -20.299 -21.022  0.00  0.00    +0.037 C 
ENDROOT
BRANCH   1  11
ATOM     11  S   UNL     1      35.153 -23.564 -15.699  0.00  0.00    +0.061 S 
ATOM     12  O   UNL     1      35.186 -22.688 -14.544  0.00  0.00    -0.153 OA
ATOM     13  O   UNL     1      34.000 -24.410 -15.941  0.00  0.00    -0.153 OA
BRANCH  11  14
ATOM     14  N   UNL     1      36.555 -24.525 -15.719  0.00  0.00    -0.170 NA
ATOM     15  H   UNL     1      37.349 -23.886 -15.730  0.00  0.00    +0.149 HD
BRANCH  14  16
ATOM     16  C   UNL     1      36.801 -25.495 -14.630  0.00  0.00    +0.174 C 
BRANCH  16  18
ATOM     17  O   UNL     1      36.642 -27.366 -16.176  0.00  0.00    -0.249 OA
ATOM     18  C   UNL     1      37.222 -26.804 -15.255  0.00  0.00    +0.330 C 
BRANCH  18  19
ATOM     19  O   UNL     1      38.353 -27.300 -14.690  0.00  0.00    -0.479 OA
ATOM     20  H   UNL     1      39.158 -26.827 -14.759  0.00  0.00    +0.295 HD
ENDBRANCH  18  19
ENDBRANCH  16  18
BRANCH  16  21
ATOM     21  C   UNL     1      37.798 -24.922 -13.617  0.00  0.00    +0.040 C 
BRANCH  21  22
ATOM     22  C   UNL     1      37.249 -24.608 -12.223  0.00  0.00    +0.111 C 
BRANCH  22  24
ATOM     23  O   UNL     1      37.119 -22.480 -11.087  0.00  0.00    -0.250 OA
ATOM     24  C   UNL     1      37.805 -23.343 -11.618  0.00  0.00    +0.314 C 
BRANCH  24  25
ATOM     25  O   UNL     1      39.154 -23.253 -11.739  0.00  0.00    -0.480 OA
ATOM     26  H   UNL     1      39.692 -23.225 -10.971  0.00  0.00    +0.295 HD
ENDBRANCH  24  25
ENDBRANCH  22  24
ENDBRANCH  21  22
ENDBRANCH  16  21
ENDBRANCH  14  16
ENDBRANCH  11  14
ENDBRANCH   1  11
BRANCH   9  27
ATOM     27  O   UNL     1      34.949 -19.089 -22.486  0.00  0.00    -0.471 OA
BRANCH  27  28
ATOM     28  C   UNL     1      35.439 -17.763 -22.291  0.00  0.00    +0.232 C 
BRANCH  28  29
ATOM     29  C   UNL     1      34.819 -16.856 -23.313  0.00  0.00    +0.021 C 
ATOM     30  C   UNL     1      34.464 -15.553 -22.964  0.00  0.00    -0.000 C 
ATOM     31  C   UNL     1      34.596 -17.317 -24.610  0.00  0.00    -0.000 C 
ATOM     32  C   UNL     1      33.888 -14.710 -23.914  0.00  0.00    +0.010 C 
ATOM     33  C   UNL     1      34.019 -16.474 -25.560  0.00  0.00    +0.010 C 
ATOM     34  C   UNL     1      33.664 -15.171 -25.211  0.00  0.00    +0.068 C 
BRANCH  34  36
ATOM     35  N   UNL     1      32.594 -13.605 -26.975  0.00  0.00    -0.191 NA
ATOM     36  C   UNL     1      33.074 -14.306 -26.185  0.00  0.00    +0.100 C 
ENDBRANCH  34  36
ENDBRANCH  28  29
ENDBRANCH  27  28
ENDBRANCH   9  27
TORSDOF 13
ENDMDL
MODEL 7
REMARK VINA RESULT:     -10.7      2.466      4.625
REMARK  Name = 24755471
REMARK  13 active torsions:
REMARK  status: ('A' for Active; 'I' for Inactive)
REMARK    1  A    between atoms: C_1  and  S_11
REMARK    2  A    between atoms: C_9  and  O_27
REMARK    3  A    between atoms: S_11  and  N_14
REMARK    4  A    between atoms: N_14  and  C_16
REMARK    5  A    between atoms: C_16  and  C_18
REMARK    6  A    between atoms: C_16  and  C_21
REMARK    7  A    between atoms: C_18  and  O_19
REMARK    8  A    between atoms: C_21  and  C_22
REMARK    9  A    between atoms: C_22  and  C_24
REMARK   10  A    between atoms: C_24  and  O_25
REMARK   11  A    between atoms: O_27  and  C_28
REMARK   12  A    between atoms: C_28  and  C_29
REMARK   13  A    between atoms: C_34  and  C_36
REMARK                            x       y       z     vdW  Elec       q    Type
REMARK                         _______ _______ _______ _____ _____    ______ ____
ROOT
ATOM      1  C   UNL     1      35.329 -22.787 -16.665  0.00  0.00    +0.122 C 
ATOM      2  C   UNL     1      34.525 -21.716 -18.697  0.00  0.00    +0.002 C 
ATOM      3  C   UNL     1      34.283 -22.457 -17.529  0.00  0.00    +0.020 C 
ATOM      4  C   UNL     1      35.846 -21.303 -18.994  0.00  0.00    +0.003 C 
ATOM      5  C   UNL     1      36.628 -22.381 -16.958  0.00  0.00    +0.020 C 
ATOM      6  C   UNL     1      36.886 -21.644 -18.114  0.00  0.00    +0.001 C 
ATOM      7  C   UNL     1      36.087 -20.562 -20.162  0.00  0.00    +0.037 C 
ATOM      8  C   UNL     1      33.484 -21.376 -19.578  0.00  0.00    +0.003 C 
ATOM      9  C   UNL     1      35.042 -20.233 -21.025  0.00  0.00    +0.139 C 
ATOM     10  C   UNL     1      33.743 -20.639 -20.734  0.00  0.00    +0.037 C 
ENDROOT
BRANCH   1  11
ATOM     11  S   UNL     1      35.003 -23.721 -15.200  0.00  0.00    +0.061 S 
ATOM     12  O   UNL     1      34.760 -25.095 -15.592  0.00  0.00    -0.153 OA
ATOM     13  O   UNL     1      36.058 -23.406 -14.256  0.00  0.00    -0.153 OA
BRANCH  11  14
ATOM     14  N   UNL     1      33.551 -23.022 -14.657  0.00  0.00    -0.170 NA
ATOM     15  H   UNL     1      33.477 -22.111 -15.108  0.00  0.00    +0.149 HD
BRANCH  14  16
ATOM     16  C   UNL     1      32.266 -23.719 -14.886  0.00  0.00    +0.174 C 
BRANCH  16  18
ATOM     17  O   UNL     1      30.819 -23.964 -12.946  0.00  0.00    -0.249 OA
ATOM     18  C   UNL     1      31.814 -24.310 -13.571  0.00  0.00    +0.330 C 
BRANCH  18  19
ATOM     19  O   UNL     1      32.635 -25.306 -13.149  0.00  0.00    -0.479 OA
ATOM     20  H   UNL     1      33.519 -25.346 -13.454  0.00  0.00    +0.295 HD
ENDBRANCH  18  19
ENDBRANCH  16  18
BRANCH  16  21
ATOM     21  C   UNL     1      31.254 -22.774 -15.542  0.00  0.00    +0.040 C 
BRANCH  21  22
ATOM     22  C   UNL     1      30.052 -23.431 -16.227  0.00  0.00    +0.111 C 
BRANCH  22  24
ATOM     23  O   UNL     1      28.229 -22.350 -17.385  0.00  0.00    -0.250 OA
ATOM     24  C   UNL     1      28.849 -22.531 -16.345  0.00  0.00    +0.314 C 
BRANCH  24  25
ATOM     25  O   UNL     1      28.531 -21.923 -15.174  0.00  0.00    -0.480 OA
ATOM     26  H   UNL     1      28.047 -21.120 -15.180  0.00  0.00    +0.295 HD
ENDBRANCH  24  25
ENDBRANCH  22  24
ENDBRANCH  21  22
ENDBRANCH  16  21
ENDBRANCH  14  16
ENDBRANCH  11  14
ENDBRANCH   1  11
BRANCH   9  27
ATOM     27  O   UNL     1      35.292 -19.513 -22.153  0.00  0.00    -0.471 OA
BRANCH  27  28
ATOM     28  C   UNL     1      35.759 -18.176 -21.979  0.00  0.00    +0.232 C 
BRANCH  28  29
ATOM     29  C   UNL     1      35.081 -17.286 -22.979  0.00  0.00    +0.021 C 
ATOM     30  C   UNL     1      34.629 -16.023 -22.595  0.00  0.00    -0.000 C 
ATOM     31  C   UNL     1      34.900 -17.722 -24.292  0.00  0.00    -0.000 C 
ATOM     32  C   UNL     1      33.999 -15.197 -23.524  0.00  0.00    +0.010 C 
ATOM     33  C   UNL     1      34.269 -16.896 -25.220  0.00  0.00    +0.010 C 
ATOM     34  C   UNL     1      33.818 -15.633 -24.837  0.00  0.00    +0.068 C 
BRANCH  34  36
ATOM     35  N   UNL     1      32.647 -14.096 -26.562  0.00  0.00    -0.191 NA
ATOM     36  C   UNL     1      33.172 -14.785 -25.789  0.00  0.00    +0.100 C 
ENDBRANCH  34  36
ENDBRANCH  28  29
ENDBRANCH  27  28
ENDBRANCH   9  27
TORSDOF 13
ENDMDL
MODEL 8
REMARK VINA RESULT:     -10.7      6.531     13.033
REMARK  Name = 24755471
REMARK  13 active torsions:
REMARK  status: ('A' for Active; 'I' for Inactive)
REMARK    1  A    between atoms: C_1  and  S_11
REMARK    2  A    between atoms: C_9  and  O_27
REMARK    3  A    between atoms: S_11  and  N_14
REMARK    4  A    between atoms: N_14  and  C_16
REMARK    5  A    between atoms: C_16  and  C_18
REMARK    6  A    between atoms: C_16  and  C_21
REMARK    7  A    between atoms: C_18  and  O_19
REMARK    8  A    between atoms: C_21  and  C_22
REMARK    9  A    between atoms: C_22  and  C_24
REMARK   10  A    between atoms: C_24  and  O_25
REMARK   11  A    between atoms: O_27  and  C_28
REMARK   12  A    between atoms: C_28  and  C_29
REMARK   13  A    between atoms: C_34  and  C_36
REMARK                            x       y       z     vdW  Elec       q    Type
REMARK                         _______ _______ _______ _____ _____    ______ ____
ROOT
ATOM      1  C   UNL     1      32.269 -12.836 -21.472  0.00  0.00    +0.122 C 
ATOM      2  C   UNL     1      33.412 -14.614 -22.677  0.00  0.00    +0.002 C 
ATOM      3  C   UNL     1      32.805 -13.348 -22.655  0.00  0.00    +0.020 C 
ATOM      4  C   UNL     1      33.478 -15.372 -21.484  0.00  0.00    +0.003 C 
ATOM      5  C   UNL     1      32.333 -13.581 -20.299  0.00  0.00    +0.020 C 
ATOM      6  C   UNL     1      32.933 -14.841 -20.303  0.00  0.00    +0.001 C 
ATOM      7  C   UNL     1      34.085 -16.638 -21.506  0.00  0.00    +0.037 C 
ATOM      8  C   UNL     1      33.956 -15.145 -23.859  0.00  0.00    +0.003 C 
ATOM      9  C   UNL     1      34.620 -17.149 -22.689  0.00  0.00    +0.139 C 
ATOM     10  C   UNL     1      34.556 -16.405 -23.863  0.00  0.00    +0.037 C 
ENDROOT
BRANCH   1  11
ATOM     11  S   UNL     1      31.509 -11.240 -21.466  0.00  0.00    +0.061 S 
ATOM     12  O   UNL     1      30.072 -11.430 -21.463  0.00  0.00    -0.153 OA
ATOM     13  O   UNL     1      32.146 -10.473 -20.412  0.00  0.00    -0.153 OA
BRANCH  11  14
ATOM     14  N   UNL     1      31.994 -10.616 -22.971  0.00  0.00    -0.170 NA
ATOM     15  H   UNL     1      31.202 -10.091 -23.340  0.00  0.00    +0.149 HD
BRANCH  14  16
ATOM     16  C   UNL     1      33.174  -9.728 -23.056  0.00  0.00    +0.174 C 
BRANCH  16  18
ATOM     17  O   UNL     1      33.732 -11.011 -25.046  0.00  0.00    -0.249 OA
ATOM     18  C   UNL     1      34.077 -10.253 -24.148  0.00  0.00    +0.330 C 
BRANCH  18  19
ATOM     19  O   UNL     1      35.342  -9.771 -24.042  0.00  0.00    -0.479 OA
ATOM     20  H   UNL     1      35.729  -9.653 -23.197  0.00  0.00    +0.295 HD
ENDBRANCH  18  19
ENDBRANCH  16  18
BRANCH  16  21
ATOM     21  C   UNL     1      32.735  -8.271 -23.238  0.00  0.00    +0.040 C 
BRANCH  21  22
ATOM     22  C   UNL     1      33.352  -7.249 -22.278  0.00  0.00    +0.111 C 
BRANCH  22  24
ATOM     23  O   UNL     1      31.570  -6.314 -20.942  0.00  0.00    -0.250 OA
ATOM     24  C   UNL     1      32.554  -7.038 -21.016  0.00  0.00    +0.314 C 
BRANCH  24  25
ATOM     25  O   UNL     1      33.054  -7.726 -19.957  0.00  0.00    -0.480 OA
ATOM     26  H   UNL     1      33.824  -7.418 -19.522  0.00  0.00    +0.295 HD
ENDBRANCH  24  25
ENDBRANCH  22  24
ENDBRANCH  21  22
ENDBRANCH  16  21
ENDBRANCH  14  16
ENDBRANCH  11  14
ENDBRANCH   1  11
BRANCH   9  27
ATOM     27  O   UNL     1      35.207 -18.378 -22.694  0.00  0.00    -0.471 OA
BRANCH  27  28
ATOM     28  C   UNL     1      36.128 -18.661 -21.642  0.00  0.00    +0.232 C 
BRANCH  28  29
ATOM     29  C   UNL     1      35.568 -19.756 -20.782  0.00  0.00    +0.021 C 
ATOM     30  C   UNL     1      34.190 -19.963 -20.727  0.00  0.00    -0.000 C 
ATOM     31  C   UNL     1      36.426 -20.565 -20.037  0.00  0.00    -0.000 C 
ATOM     32  C   UNL     1      33.670 -20.980 -19.927  0.00  0.00    +0.010 C 
ATOM     33  C   UNL     1      35.905 -21.582 -19.237  0.00  0.00    +0.010 C 
ATOM     34  C   UNL     1      34.527 -21.789 -19.182  0.00  0.00    +0.068 C 
BRANCH  34  36
ATOM     35  N   UNL     1      33.559 -23.679 -17.698  0.00  0.00    -0.191 NA
ATOM     36  C   UNL     1      33.993 -22.832 -18.363  0.00  0.00    +0.100 C 
ENDBRANCH  34  36
ENDBRANCH  28  29
ENDBRANCH  27  28
ENDBRANCH   9  27
TORSDOF 13
ENDMDL
MODEL 9
REMARK VINA RESULT:     -10.6      6.775     13.154
REMARK  Name = 24755471
REMARK  13 active torsions:
REMARK  status: ('A' for Active; 'I' for Inactive)
REMARK    1  A    between atoms: C_1  and  S_11
REMARK    2  A    between atoms: C_9  and  O_27
REMARK    3  A    between atoms: S_11  and  N_14
REMARK    4  A    between atoms: N_14  and  C_16
REMARK    5  A    between atoms: C_16  and  C_18
REMARK    6  A    between atoms: C_16  and  C_21
REMARK    7  A    between atoms: C_18  and  O_19
REMARK    8  A    between atoms: C_21  and  C_22
REMARK    9  A    between atoms: C_22  and  C_24
REMARK   10  A    between atoms: C_24  and  O_25
REMARK   11  A    between atoms: O_27  and  C_28
REMARK   12  A    between atoms: C_28  and  C_29
REMARK   13  A    between atoms: C_34  and  C_36
REMARK                            x       y       z     vdW  Elec       q    Type
REMARK                         _______ _______ _______ _____ _____    ______ ____
ROOT
ATOM      1  C   UNL     1      32.015 -12.626 -21.447  0.00  0.00    +0.122 C 
ATOM      2  C   UNL     1      33.148 -14.370 -22.709  0.00  0.00    +0.002 C 
ATOM      3  C   UNL     1      32.460 -13.147 -22.663  0.00  0.00    +0.020 C 
ATOM      4  C   UNL     1      33.389 -15.075 -21.506  0.00  0.00    +0.003 C 
ATOM      5  C   UNL     1      32.251 -13.319 -20.264  0.00  0.00    +0.020 C 
ATOM      6  C   UNL     1      32.934 -14.536 -20.291  0.00  0.00    +0.001 C 
ATOM      7  C   UNL     1      34.077 -16.298 -21.552  0.00  0.00    +0.037 C 
ATOM      8  C   UNL     1      33.603 -14.910 -23.925  0.00  0.00    +0.003 C 
ATOM      9  C   UNL     1      34.522 -16.819 -22.768  0.00  0.00    +0.139 C 
ATOM     10  C   UNL     1      34.285 -16.127 -23.952  0.00  0.00    +0.037 C 
ENDROOT
BRANCH   1  11
ATOM     11  S   UNL     1      31.150 -11.084 -21.411  0.00  0.00    +0.061 S 
ATOM     12  O   UNL     1      30.264 -11.043 -22.558  0.00  0.00    -0.153 OA
ATOM     13  O   UNL     1      30.619 -10.930 -20.071  0.00  0.00    -0.153 OA
BRANCH  11  14
ATOM     14  N   UNL     1      32.414  -9.969 -21.635  0.00  0.00    -0.170 NA
ATOM     15  H   UNL     1      32.925 -10.267 -22.465  0.00  0.00    +0.149 HD
BRANCH  14  16
ATOM     16  C   UNL     1      32.109  -8.533 -21.811  0.00  0.00    +0.174 C 
BRANCH  16  18
ATOM     17  O   UNL     1      32.439  -6.605 -20.366  0.00  0.00    -0.249 OA
ATOM     18  C   UNL     1      32.461  -7.819 -20.528  0.00  0.00    +0.330 C 
BRANCH  18  19
ATOM     19  O   UNL     1      32.796  -8.684 -19.536  0.00  0.00    -0.479 OA
ATOM     20  H   UNL     1      33.482  -9.307 -19.670  0.00  0.00    +0.295 HD
ENDBRANCH  18  19
ENDBRANCH  16  18
BRANCH  16  21
ATOM     21  C   UNL     1      32.811  -7.986 -23.059  0.00  0.00    +0.040 C 
BRANCH  21  22
ATOM     22  C   UNL     1      34.260  -8.431 -23.276  0.00  0.00    +0.111 C 
BRANCH  22  24
ATOM     23  O   UNL     1      33.448 -10.376 -24.455  0.00  0.00    -0.250 OA
ATOM     24  C   UNL     1      34.396  -9.693 -24.089  0.00  0.00    +0.314 C 
BRANCH  24  25
ATOM     25  O   UNL     1      35.688 -10.006 -24.363  0.00  0.00    -0.480 OA
ATOM     26  H   UNL     1      35.952 -10.172 -25.246  0.00  0.00    +0.295 HD
ENDBRANCH  24  25
ENDBRANCH  22  24
ENDBRANCH  21  22
ENDBRANCH  16  21
ENDBRANCH  14  16
ENDBRANCH  11  14
ENDBRANCH   1  11
BRANCH   9  27
ATOM     27  O   UNL     1      35.189 -18.005 -22.796  0.00  0.00    -0.471 OA
BRANCH  27  28
ATOM     28  C   UNL     1      36.051 -18.291 -21.696  0.00  0.00    +0.232 C 
BRANCH  28  29
ATOM     29  C   UNL     1      35.500 -19.460 -20.932  0.00  0.00    +0.021 C 
ATOM     30  C   UNL     1      36.364 -20.320 -20.256  0.00  0.00    -0.000 C 
ATOM     31  C   UNL     1      34.124 -19.686 -20.901  0.00  0.00    -0.000 C 
ATOM     32  C   UNL     1      35.852 -21.406 -19.547  0.00  0.00    +0.010 C 
ATOM     33  C   UNL     1      33.612 -20.773 -20.192  0.00  0.00    +0.010 C 
ATOM     34  C   UNL     1      34.476 -21.633 -19.515  0.00  0.00    +0.068 C 
BRANCH  34  36
ATOM     35  N   UNL     1      33.527 -23.651 -18.198  0.00  0.00    -0.191 NA
ATOM     36  C   UNL     1      33.952 -22.747 -18.788  0.00  0.00    +0.100 C 
ENDBRANCH  34  36
ENDBRANCH  28  29
ENDBRANCH  27  28
ENDBRANCH   9  27
TORSDOF 13
ENDMDL
