MODEL 1
REMARK VINA RESULT:     -10.8      0.000      0.000
REMARK  Name = 16040261
REMARK  6 active torsions:
REMARK  status: ('A' for Active; 'I' for Inactive)
REMARK    1  A    between atoms: N_1  and  C_5
REMARK    2  A    between atoms: N_1  and  S_19
REMARK    3  A    between atoms: N_4  and  C_9
REMARK    4  A    between atoms: C_9  and  C_14
REMARK    5  A    between atoms: S_19  and  C_25
REMARK    6  A    between atoms: C_26  and  C_30
REMARK                            x       y       z     vdW  Elec       q    Type
REMARK                         _______ _______ _______ _____ _____    ______ ____
ROOT
ATOM      1  N   UNL     1      35.434 -22.605 -18.786  0.00  0.00    -0.168 NA
ATOM      2  H   UNL     1      36.055 -23.337 -18.443  0.00  0.00    +0.149 HD
ENDROOT
BRANCH   1   5
ATOM      3  O   UNL     1      36.182 -22.584 -16.016  0.00  0.00    -0.273 OA
ATOM      4  N   UNL     1      33.994 -23.391 -15.707  0.00  0.00    -0.272 N 
ATOM      5  C   UNL     1      34.470 -22.315 -17.719  0.00  0.00    +0.153 C 
ATOM      6  C   UNL     1      33.208 -23.156 -17.875  0.00  0.00    +0.048 C 
ATOM      7  C   UNL     1      32.754 -23.386 -16.447  0.00  0.00    +0.096 C 
ATOM      8  C   UNL     1      35.036 -22.769 -16.396  0.00  0.00    +0.242 C 
BRANCH   4   9
ATOM      9  C   UNL     1      34.064 -23.884 -14.349  0.00  0.00    +0.152 C 
ATOM     10  C   UNL     1      32.807 -24.614 -13.937  0.00  0.00    +0.031 C 
BRANCH   9  14
ATOM     11  O   UNL     1      38.299 -24.043 -11.604  0.00  0.00    -0.350 OA
ATOM     12  O   UNL     1      35.386 -25.620 -15.277  0.00  0.00    -0.273 OA
ATOM     13  N   UNL     1      36.131 -24.704 -13.278  0.00  0.00    -0.273 N 
ATOM     14  C   UNL     1      35.249 -24.818 -14.350  0.00  0.00    +0.244 C 
ATOM     15  C   UNL     1      37.309 -25.568 -13.203  0.00  0.00    +0.126 C 
ATOM     16  C   UNL     1      35.932 -23.854 -12.099  0.00  0.00    +0.126 C 
ATOM     17  C   UNL     1      38.538 -24.757 -12.820  0.00  0.00    +0.164 C 
ATOM     18  C   UNL     1      37.220 -23.117 -11.756  0.00  0.00    +0.164 C 
ENDBRANCH   9  14
ENDBRANCH   4   9
ENDBRANCH   1   5
BRANCH   1  19
ATOM     19  S   UNL     1      36.422 -21.322 -19.351  0.00  0.00    +0.104 S 
ATOM     20  O   UNL     1      37.371 -21.839 -20.318  0.00  0.00    -0.149 OA
ATOM     21  O   UNL     1      36.857 -20.525 -18.221  0.00  0.00    -0.149 OA
BRANCH  19  25
ATOM     22  N   UNL     1      34.055 -20.402 -20.431  0.00  0.00    -0.184 N 
ATOM     23  N   UNL     1      35.791 -19.140 -20.843  0.00  0.00    -0.312 NA
ATOM     24  N   UNL     1      33.542 -19.402 -21.163  0.00  0.00    -0.112 NA
ATOM     25  C   UNL     1      35.362 -20.206 -20.271  0.00  0.00    +0.334 C 
ATOM     26  C   UNL     1      34.632 -18.666 -21.387  0.00  0.00    +0.112 C 
ATOM     27  H   UNL     1      33.545 -21.161 -20.068  0.00  0.00    +0.179 HD
BRANCH  26  30
ATOM     28 CL   UNL     1      34.006 -13.453 -23.194  0.00  0.00    -0.075 Cl
ATOM     29  S   UNL     1      34.064 -15.917 -21.538  0.00  0.00    -0.064 S 
ATOM     30  C   UNL     1      34.586 -17.419 -22.173  0.00  0.00    +0.105 C 
ATOM     31  C   UNL     1      34.956 -17.318 -23.496  0.00  0.00    +0.019 C 
ATOM     32  C   UNL     1      34.808 -15.991 -23.995  0.00  0.00    +0.019 C 
ATOM     33  C   UNL     1      34.331 -15.128 -23.033  0.00  0.00    +0.088 C 
ENDBRANCH  26  30
ENDBRANCH  19  25
ENDBRANCH   1  19
TORSDOF 6
ENDMDL
MODEL 2
REMARK VINA RESULT:     -10.6      3.031      4.965
REMARK  Name = 16040261
REMARK  6 active torsions:
REMARK  status: ('A' for Active; 'I' for Inactive)
REMARK    1  A    between atoms: N_1  and  C_5
REMARK    2  A    between atoms: N_1  and  S_19
REMARK    3  A    between atoms: N_4  and  C_9
REMARK    4  A    between atoms: C_9  and  C_14
REMARK    5  A    between atoms: S_19  and  C_25
REMARK    6  A    between atoms: C_26  and  C_30
REMARK                            x       y       z     vdW  Elec       q    Type
REMARK                         _______ _______ _______ _____ _____    ______ ____
ROOT
ATOM      1  N   UNL     1      34.370 -21.967 -17.867  0.00  0.00    -0.168 NA
ATOM      2  H   UNL     1      33.651 -21.341 -17.505  0.00  0.00    +0.149 HD
ENDROOT
BRANCH   1   5
ATOM      3  O   UNL     1      31.882 -23.350 -17.504  0.00  0.00    -0.273 OA
ATOM      4  N   UNL     1      32.827 -23.928 -15.429  0.00  0.00    -0.272 N 
ATOM      5  C   UNL     1      34.276 -23.221 -17.111  0.00  0.00    +0.153 C 
ATOM      6  C   UNL     1      34.967 -23.099 -15.757  0.00  0.00    +0.048 C 
ATOM      7  C   UNL     1      34.151 -24.007 -14.858  0.00  0.00    +0.096 C 
ATOM      8  C   UNL     1      32.835 -23.482 -16.751  0.00  0.00    +0.242 C 
BRANCH   4   9
ATOM      9  C   UNL     1      31.662 -24.396 -14.709  0.00  0.00    +0.152 C 
ATOM     10  C   UNL     1      32.005 -24.898 -13.326  0.00  0.00    +0.031 C 
BRANCH   9  14
ATOM     11  O   UNL     1      27.264 -23.261 -16.915  0.00  0.00    -0.350 OA
ATOM     12  O   UNL     1      31.174 -22.159 -14.093  0.00  0.00    -0.273 OA
ATOM     13  N   UNL     1      29.492 -23.324 -15.191  0.00  0.00    -0.273 N 
ATOM     14  C   UNL     1      30.760 -23.189 -14.631  0.00  0.00    +0.244 C 
ATOM     15  C   UNL     1      28.556 -22.200 -15.162  0.00  0.00    +0.126 C 
ATOM     16  C   UNL     1      28.924 -24.567 -15.723  0.00  0.00    +0.126 C 
ATOM     17  C   UNL     1      27.884 -22.035 -16.518  0.00  0.00    +0.164 C 
ATOM     18  C   UNL     1      28.232 -24.304 -17.054  0.00  0.00    +0.164 C 
ENDBRANCH   9  14
ENDBRANCH   4   9
ENDBRANCH   1   5
BRANCH   1  19
ATOM     19  S   UNL     1      34.176 -22.035 -19.570  0.00  0.00    +0.104 S 
ATOM     20  O   UNL     1      32.766 -21.945 -19.895  0.00  0.00    -0.149 OA
ATOM     21  O   UNL     1      35.006 -23.099 -20.099  0.00  0.00    -0.149 OA
BRANCH  19  25
ATOM     22  N   UNL     1      36.165 -20.166 -19.981  0.00  0.00    -0.184 N 
ATOM     23  N   UNL     1      34.293 -19.745 -21.028  0.00  0.00    -0.312 NA
ATOM     24  N   UNL     1      36.425 -19.019 -20.627  0.00  0.00    -0.112 NA
ATOM     25  C   UNL     1      34.917 -20.547 -20.244  0.00  0.00    +0.334 C 
ATOM     26  C   UNL     1      35.262 -18.807 -21.245  0.00  0.00    +0.112 C 
ATOM     27  H   UNL     1      36.798 -20.650 -19.402  0.00  0.00    +0.179 HD
BRANCH  26  30
ATOM     28 CL   UNL     1      34.141 -13.783 -23.327  0.00  0.00    -0.075 Cl
ATOM     29  S   UNL     1      34.567 -16.096 -21.515  0.00  0.00    -0.064 S 
ATOM     30  C   UNL     1      35.038 -17.633 -22.108  0.00  0.00    +0.105 C 
ATOM     31  C   UNL     1      35.183 -17.634 -23.478  0.00  0.00    +0.019 C 
ATOM     32  C   UNL     1      34.903 -16.358 -24.048  0.00  0.00    +0.019 C 
ATOM     33  C   UNL     1      34.555 -15.430 -23.092  0.00  0.00    +0.088 C 
ENDBRANCH  26  30
ENDBRANCH  19  25
ENDBRANCH   1  19
TORSDOF 6
ENDMDL
MODEL 3
REMARK VINA RESULT:     -10.6      7.139     11.243
REMARK  Name = 16040261
REMARK  6 active torsions:
REMARK  status: ('A' for Active; 'I' for Inactive)
REMARK    1  A    between atoms: N_1  and  C_5
REMARK    2  A    between atoms: N_1  and  S_19
REMARK    3  A    between atoms: N_4  and  C_9
REMARK    4  A    between atoms: C_9  and  C_14
REMARK    5  A    between atoms: S_19  and  C_25
REMARK    6  A    between atoms: C_26  and  C_30
REMARK                            x       y       z     vdW  Elec       q    Type
REMARK                         _______ _______ _______ _____ _____    ______ ____
ROOT
ATOM      1  N   UNL     1      32.418 -12.545 -20.880  0.00  0.00    -0.168 NA
ATOM      2  H   UNL     1      32.347 -13.322 -20.224  0.00  0.00    +0.149 HD
ENDROOT
BRANCH   1   5
ATOM      3  O   UNL     1      32.208 -15.362 -21.386  0.00  0.00    -0.273 OA
ATOM      4  N   UNL     1      33.171 -14.780 -23.451  0.00  0.00    -0.272 N 
ATOM      5  C   UNL     1      32.157 -13.080 -22.221  0.00  0.00    +0.153 C 
ATOM      6  C   UNL     1      33.102 -12.471 -23.251  0.00  0.00    +0.048 C 
ATOM      7  C   UNL     1      33.301 -13.588 -24.256  0.00  0.00    +0.096 C 
ATOM      8  C   UNL     1      32.501 -14.549 -22.249  0.00  0.00    +0.242 C 
BRANCH   4   9
ATOM      9  C   UNL     1      33.592 -16.074 -23.941  0.00  0.00    +0.152 C 
ATOM     10  C   UNL     1      33.803 -16.082 -25.437  0.00  0.00    +0.031 C 
BRANCH   9  14
ATOM     11  O   UNL     1      35.265 -20.024 -21.277  0.00  0.00    -0.350 OA
ATOM     12  O   UNL     1      35.683 -15.419 -23.034  0.00  0.00    -0.273 OA
ATOM     13  N   UNL     1      35.101 -17.654 -22.793  0.00  0.00    -0.273 N 
ATOM     14  C   UNL     1      34.888 -16.345 -23.218  0.00  0.00    +0.244 C 
ATOM     15  C   UNL     1      36.330 -18.002 -22.080  0.00  0.00    +0.126 C 
ATOM     16  C   UNL     1      34.241 -18.801 -23.104  0.00  0.00    +0.126 C 
ATOM     17  C   UNL     1      36.014 -18.875 -20.873  0.00  0.00    +0.164 C 
ATOM     18  C   UNL     1      34.014 -19.645 -21.857  0.00  0.00    +0.164 C 
ENDBRANCH   9  14
ENDBRANCH   4   9
ENDBRANCH   1   5
BRANCH   1  19
ATOM     19  S   UNL     1      31.401 -11.292 -20.299  0.00  0.00    +0.104 S 
ATOM     20  O   UNL     1      31.472 -11.252 -18.851  0.00  0.00    -0.149 OA
ATOM     21  O   UNL     1      30.129 -11.355 -20.990  0.00  0.00    -0.149 OA
BRANCH  19  25
ATOM     22  N   UNL     1      32.545  -8.796 -20.025  0.00  0.00    -0.184 N 
ATOM     23  N   UNL     1      32.237  -9.430 -22.094  0.00  0.00    -0.312 NA
ATOM     24  N   UNL     1      33.012  -7.759 -20.737  0.00  0.00    -0.112 NA
ATOM     25  C   UNL     1      32.107  -9.740 -20.855  0.00  0.00    +0.334 C 
ATOM     26  C   UNL     1      32.803  -8.193 -21.982  0.00  0.00    +0.112 C 
ATOM     27  H   UNL     1      32.529  -8.850 -19.042  0.00  0.00    +0.179 HD
BRANCH  26  30
ATOM     28 CL   UNL     1      32.887  -4.711 -26.306  0.00  0.00    -0.075 Cl
ATOM     29  S   UNL     1      32.079  -6.303 -23.934  0.00  0.00    -0.064 S 
ATOM     30  C   UNL     1      33.161  -7.384 -23.162  0.00  0.00    +0.105 C 
ATOM     31  C   UNL     1      34.395  -7.403 -23.774  0.00  0.00    +0.019 C 
ATOM     32  C   UNL     1      34.454  -6.519 -24.890  0.00  0.00    +0.019 C 
ATOM     33  C   UNL     1      33.261  -5.858 -25.089  0.00  0.00    +0.088 C 
ENDBRANCH  26  30
ENDBRANCH  19  25
ENDBRANCH   1  19
TORSDOF 6
ENDMDL
MODEL 4
REMARK VINA RESULT:     -10.4      4.133     10.413
REMARK  Name = 16040261
REMARK  6 active torsions:
REMARK  status: ('A' for Active; 'I' for Inactive)
REMARK    1  A    between atoms: N_1  and  C_5
REMARK    2  A    between atoms: N_1  and  S_19
REMARK    3  A    between atoms: N_4  and  C_9
REMARK    4  A    between atoms: C_9  and  C_14
REMARK    5  A    between atoms: S_19  and  C_25
REMARK    6  A    between atoms: C_26  and  C_30
REMARK                            x       y       z     vdW  Elec       q    Type
REMARK                         _______ _______ _______ _____ _____    ______ ____
ROOT
ATOM      1  N   UNL     1      34.362 -21.655 -18.486  0.00  0.00    -0.168 NA
ATOM      2  H   UNL     1      35.342 -21.853 -18.284  0.00  0.00    +0.149 HD
ENDROOT
BRANCH   1   5
ATOM      3  O   UNL     1      36.615 -20.674 -19.968  0.00  0.00    -0.273 OA
ATOM      4  N   UNL     1      34.971 -19.442 -21.114  0.00  0.00    -0.272 N 
ATOM      5  C   UNL     1      34.270 -21.310 -19.909  0.00  0.00    +0.153 C 
ATOM      6  C   UNL     1      33.078 -20.399 -20.179  0.00  0.00    +0.048 C 
ATOM      7  C   UNL     1      33.546 -19.531 -21.329  0.00  0.00    +0.096 C 
ATOM      8  C   UNL     1      35.457 -20.463 -20.296  0.00  0.00    +0.242 C 
BRANCH   4   9
ATOM      9  C   UNL     1      35.782 -18.459 -21.798  0.00  0.00    +0.152 C 
ATOM     10  C   UNL     1      35.815 -18.680 -23.292  0.00  0.00    +0.031 C 
BRANCH   9  14
ATOM     11  O   UNL     1      33.711 -14.853 -24.664  0.00  0.00    -0.350 OA
ATOM     12  O   UNL     1      35.229 -16.683 -20.326  0.00  0.00    -0.273 OA
ATOM     13  N   UNL     1      34.443 -16.510 -22.504  0.00  0.00    -0.273 N 
ATOM     14  C   UNL     1      35.129 -17.140 -21.468  0.00  0.00    +0.244 C 
ATOM     15  C   UNL     1      33.785 -15.224 -22.272  0.00  0.00    +0.126 C 
ATOM     16  C   UNL     1      34.196 -17.080 -23.833  0.00  0.00    +0.126 C 
ATOM     17  C   UNL     1      34.079 -14.263 -23.414  0.00  0.00    +0.164 C 
ATOM     18  C   UNL     1      34.468 -16.041 -24.913  0.00  0.00    +0.164 C 
ENDBRANCH   9  14
ENDBRANCH   4   9
ENDBRANCH   1   5
BRANCH   1  19
ATOM     19  S   UNL     1      33.446 -22.989 -17.919  0.00  0.00    +0.104 S 
ATOM     20  O   UNL     1      33.637 -24.116 -18.812  0.00  0.00    -0.149 OA
ATOM     21  O   UNL     1      32.119 -22.533 -17.554  0.00  0.00    -0.149 OA
BRANCH  19  25
ATOM     22  N   UNL     1      33.507 -23.442 -15.197  0.00  0.00    -0.184 N 
ATOM     23  N   UNL     1      35.361 -23.940 -16.241  0.00  0.00    -0.312 NA
ATOM     24  N   UNL     1      34.305 -23.882 -14.213  0.00  0.00    -0.112 NA
ATOM     25  C   UNL     1      34.163 -23.494 -16.354  0.00  0.00    +0.334 C 
ATOM     26  C   UNL     1      35.414 -24.171 -14.897  0.00  0.00    +0.112 C 
ATOM     27  H   UNL     1      32.580 -23.129 -15.082  0.00  0.00    +0.179 HD
BRANCH  26  30
ATOM     28 CL   UNL     1      40.518 -25.944 -13.618  0.00  0.00    -0.075 Cl
ATOM     29  S   UNL     1      38.137 -24.858 -15.021  0.00  0.00    -0.064 S 
ATOM     30  C   UNL     1      36.621 -24.705 -14.239  0.00  0.00    +0.105 C 
ATOM     31  C   UNL     1      36.670 -25.137 -12.932  0.00  0.00    +0.019 C 
ATOM     32  C   UNL     1      37.967 -25.601 -12.568  0.00  0.00    +0.019 C 
ATOM     33  C   UNL     1      38.862 -25.504 -13.611  0.00  0.00    +0.088 C 
ENDBRANCH  26  30
ENDBRANCH  19  25
ENDBRANCH   1  19
TORSDOF 6
ENDMDL
MODEL 5
REMARK VINA RESULT:     -10.4      1.835      2.711
REMARK  Name = 16040261
REMARK  6 active torsions:
REMARK  status: ('A' for Active; 'I' for Inactive)
REMARK    1  A    between atoms: N_1  and  C_5
REMARK    2  A    between atoms: N_1  and  S_19
REMARK    3  A    between atoms: N_4  and  C_9
REMARK    4  A    between atoms: C_9  and  C_14
REMARK    5  A    between atoms: S_19  and  C_25
REMARK    6  A    between atoms: C_26  and  C_30
REMARK                            x       y       z     vdW  Elec       q    Type
REMARK                         _______ _______ _______ _____ _____    ______ ____
ROOT
ATOM      1  N   UNL     1      34.814 -23.146 -17.406  0.00  0.00    -0.168 NA
ATOM      2  H   UNL     1      35.669 -22.591 -17.434  0.00  0.00    +0.149 HD
ENDROOT
BRANCH   1   5
ATOM      3  O   UNL     1      36.289 -22.007 -15.223  0.00  0.00    -0.273 OA
ATOM      4  N   UNL     1      35.006 -23.505 -13.941  0.00  0.00    -0.272 N 
ATOM      5  C   UNL     1      34.227 -22.974 -16.072  0.00  0.00    +0.153 C 
ATOM      6  C   UNL     1      33.565 -24.261 -15.592  0.00  0.00    +0.048 C 
ATOM      7  C   UNL     1      33.763 -24.225 -14.090  0.00  0.00    +0.096 C 
ATOM      8  C   UNL     1      35.328 -22.746 -15.066  0.00  0.00    +0.242 C 
BRANCH   4   9
ATOM      9  C   UNL     1      35.735 -23.503 -12.691  0.00  0.00    +0.152 C 
ATOM     10  C   UNL     1      35.397 -24.695 -11.826  0.00  0.00    +0.031 C 
BRANCH   9  14
ATOM     11  O   UNL     1      38.629 -27.098 -14.739  0.00  0.00    -0.350 OA
ATOM     12  O   UNL     1      37.936 -22.622 -12.751  0.00  0.00    -0.273 OA
ATOM     13  N   UNL     1      37.589 -24.628 -13.868  0.00  0.00    -0.273 N 
ATOM     14  C   UNL     1      37.185 -23.536 -13.103  0.00  0.00    +0.244 C 
ATOM     15  C   UNL     1      38.980 -24.741 -14.307  0.00  0.00    +0.126 C 
ATOM     16  C   UNL     1      36.702 -25.663 -14.410  0.00  0.00    +0.126 C 
ATOM     17  C   UNL     1      39.491 -26.158 -14.090  0.00  0.00    +0.164 C 
ATOM     18  C   UNL     1      37.308 -27.043 -14.195  0.00  0.00    +0.164 C 
ENDBRANCH   9  14
ENDBRANCH   4   9
ENDBRANCH   1   5
BRANCH   1  19
ATOM     19  S   UNL     1      33.870 -22.698 -18.766  0.00  0.00    +0.104 S 
ATOM     20  O   UNL     1      32.605 -22.153 -18.313  0.00  0.00    -0.149 OA
ATOM     21  O   UNL     1      33.923 -23.761 -19.750  0.00  0.00    -0.149 OA
BRANCH  19  25
ATOM     22  N   UNL     1      35.975 -20.995 -19.301  0.00  0.00    -0.184 N 
ATOM     23  N   UNL     1      34.166 -20.594 -20.461  0.00  0.00    -0.312 NA
ATOM     24  N   UNL     1      36.321 -19.943 -20.058  0.00  0.00    -0.112 NA
ATOM     25  C   UNL     1      34.716 -21.337 -19.570  0.00  0.00    +0.334 C 
ATOM     26  C   UNL     1      35.193 -19.740 -20.741  0.00  0.00    +0.112 C 
ATOM     27  H   UNL     1      36.559 -21.444 -18.648  0.00  0.00    +0.179 HD
BRANCH  26  30
ATOM     28 CL   UNL     1      34.502 -14.912 -23.396  0.00  0.00    -0.075 Cl
ATOM     29  S   UNL     1      34.741 -17.027 -21.326  0.00  0.00    -0.064 S 
ATOM     30  C   UNL     1      35.065 -18.659 -21.735  0.00  0.00    +0.105 C 
ATOM     31  C   UNL     1      35.193 -18.832 -23.096  0.00  0.00    +0.019 C 
ATOM     32  C   UNL     1      35.022 -17.611 -23.811  0.00  0.00    +0.019 C 
ATOM     33  C   UNL     1      34.770 -16.551 -22.970  0.00  0.00    +0.088 C 
ENDBRANCH  26  30
ENDBRANCH  19  25
ENDBRANCH   1  19
TORSDOF 6
ENDMDL
MODEL 6
REMARK VINA RESULT:     -10.1      1.528      2.013
REMARK  Name = 16040261
REMARK  6 active torsions:
REMARK  status: ('A' for Active; 'I' for Inactive)
REMARK    1  A    between atoms: N_1  and  C_5
REMARK    2  A    between atoms: N_1  and  S_19
REMARK    3  A    between atoms: N_4  and  C_9
REMARK    4  A    between atoms: C_9  and  C_14
REMARK    5  A    between atoms: S_19  and  C_25
REMARK    6  A    between atoms: C_26  and  C_30
REMARK                            x       y       z     vdW  Elec       q    Type
REMARK                         _______ _______ _______ _____ _____    ______ ____
ROOT
ATOM      1  N   UNL     1      36.610 -20.538 -18.471  0.00  0.00    -0.168 NA
ATOM      2  H   UNL     1      35.697 -20.215 -18.152  0.00  0.00    +0.149 HD
ENDROOT
BRANCH   1   5
ATOM      3  O   UNL     1      34.550 -22.461 -17.923  0.00  0.00    -0.273 OA
ATOM      4  N   UNL     1      35.842 -22.881 -16.003  0.00  0.00    -0.272 N 
ATOM      5  C   UNL     1      36.887 -21.806 -17.786  0.00  0.00    +0.153 C 
ATOM      6  C   UNL     1      37.690 -21.578 -16.511  0.00  0.00    +0.048 C 
ATOM      7  C   UNL     1      37.209 -22.678 -15.585  0.00  0.00    +0.096 C 
ATOM      8  C   UNL     1      35.592 -22.399 -17.288  0.00  0.00    +0.242 C 
BRANCH   4   9
ATOM      9  C   UNL     1      34.904 -23.624 -15.189  0.00  0.00    +0.152 C 
ATOM     10  C   UNL     1      33.657 -24.005 -15.953  0.00  0.00    +0.031 C 
BRANCH   9  14
ATOM     11  O   UNL     1      37.837 -24.629 -11.204  0.00  0.00    -0.350 OA
ATOM     12  O   UNL     1      35.810 -25.783 -15.565  0.00  0.00    -0.273 OA
ATOM     13  N   UNL     1      36.176 -24.854 -13.469  0.00  0.00    -0.273 N 
ATOM     14  C   UNL     1      35.667 -24.854 -14.766  0.00  0.00    +0.244 C 
ATOM     15  C   UNL     1      36.933 -26.006 -12.979  0.00  0.00    +0.126 C 
ATOM     16  C   UNL     1      35.919 -23.827 -12.454  0.00  0.00    +0.126 C 
ATOM     17  C   UNL     1      38.184 -25.545 -12.245  0.00  0.00    +0.164 C 
ATOM     18  C   UNL     1      37.211 -23.458 -11.737  0.00  0.00    +0.164 C 
ENDBRANCH   9  14
ENDBRANCH   4   9
ENDBRANCH   1   5
BRANCH   1  19
ATOM     19  S   UNL     1      36.580 -20.537 -20.186  0.00  0.00    +0.104 S 
ATOM     20  O   UNL     1      36.187 -21.851 -20.659  0.00  0.00    -0.149 OA
ATOM     21  O   UNL     1      37.776 -19.885 -20.681  0.00  0.00    -0.149 OA
BRANCH  19  25
ATOM     22  N   UNL     1      34.003 -19.833 -20.879  0.00  0.00    -0.184 N 
ATOM     23  N   UNL     1      35.433 -18.180 -20.904  0.00  0.00    -0.312 NA
ATOM     24  N   UNL     1      33.254 -18.784 -21.250  0.00  0.00    -0.112 NA
ATOM     25  C   UNL     1      35.259 -19.434 -20.689  0.00  0.00    +0.334 C 
ATOM     26  C   UNL     1      34.166 -17.809 -21.250  0.00  0.00    +0.112 C 
ATOM     27  H   UNL     1      33.675 -20.754 -20.765  0.00  0.00    +0.179 HD
BRANCH  26  30
ATOM     28 CL   UNL     1      33.754 -12.784 -23.576  0.00  0.00    -0.075 Cl
ATOM     29  S   UNL     1      34.503 -15.585 -22.937  0.00  0.00    -0.064 S 
ATOM     30  C   UNL     1      33.824 -16.419 -21.603  0.00  0.00    +0.105 C 
ATOM     31  C   UNL     1      32.926 -15.637 -20.910  0.00  0.00    +0.019 C 
ATOM     32  C   UNL     1      32.794 -14.337 -21.480  0.00  0.00    +0.019 C 
ATOM     33  C   UNL     1      33.596 -14.175 -22.588  0.00  0.00    +0.088 C 
ENDBRANCH  26  30
ENDBRANCH  19  25
ENDBRANCH   1  19
TORSDOF 6
ENDMDL
MODEL 7
REMARK VINA RESULT:     -10.0      2.716      4.659
REMARK  Name = 16040261
REMARK  6 active torsions:
REMARK  status: ('A' for Active; 'I' for Inactive)
REMARK    1  A    between atoms: N_1  and  C_5
REMARK    2  A    between atoms: N_1  and  S_19
REMARK    3  A    between atoms: N_4  and  C_9
REMARK    4  A    between atoms: C_9  and  C_14
REMARK    5  A    between atoms: S_19  and  C_25
REMARK    6  A    between atoms: C_26  and  C_30
REMARK                            x       y       z     vdW  Elec       q    Type
REMARK                         _______ _______ _______ _____ _____    ______ ____
ROOT
ATOM      1  N   UNL     1      34.535 -21.576 -18.622  0.00  0.00    -0.168 NA
ATOM      2  H   UNL     1      33.720 -21.672 -19.226  0.00  0.00    +0.149 HD
ENDROOT
BRANCH   1   5
ATOM      3  O   UNL     1      32.251 -23.210 -18.030  0.00  0.00    -0.273 OA
ATOM      4  N   UNL     1      33.410 -23.615 -16.024  0.00  0.00    -0.272 N 
ATOM      5  C   UNL     1      34.639 -22.808 -17.831  0.00  0.00    +0.153 C 
ATOM      6  C   UNL     1      35.413 -22.568 -16.540  0.00  0.00    +0.048 C 
ATOM      7  C   UNL     1      34.774 -23.530 -15.558  0.00  0.00    +0.096 C 
ATOM      8  C   UNL     1      33.267 -23.213 -17.352  0.00  0.00    +0.242 C 
BRANCH   4   9
ATOM      9  C   UNL     1      32.363 -24.183 -15.203  0.00  0.00    +0.152 C 
ATOM     10  C   UNL     1      32.883 -24.694 -13.880  0.00  0.00    +0.031 C 
BRANCH   9  14
ATOM     11  O   UNL     1      27.561 -23.479 -16.597  0.00  0.00    -0.350 OA
ATOM     12  O   UNL     1      31.810 -21.967 -14.565  0.00  0.00    -0.273 OA
ATOM     13  N   UNL     1      30.060 -23.301 -15.308  0.00  0.00    -0.273 N 
ATOM     14  C   UNL     1      31.393 -23.047 -14.993  0.00  0.00    +0.244 C 
ATOM     15  C   UNL     1      29.054 -22.252 -15.137  0.00  0.00    +0.126 C 
ATOM     16  C   UNL     1      29.510 -24.605 -15.695  0.00  0.00    +0.126 C 
ATOM     17  C   UNL     1      28.139 -22.194 -16.352  0.00  0.00    +0.164 C 
ATOM     18  C   UNL     1      28.571 -24.450 -16.883  0.00  0.00    +0.164 C 
ENDBRANCH   9  14
ENDBRANCH   4   9
ENDBRANCH   1   5
BRANCH   1  19
ATOM     19  S   UNL     1      35.861 -21.142 -19.619  0.00  0.00    +0.104 S 
ATOM     20  O   UNL     1      36.226 -22.274 -20.449  0.00  0.00    -0.149 OA
ATOM     21  O   UNL     1      36.848 -20.445 -18.819  0.00  0.00    -0.149 OA
BRANCH  19  25
ATOM     22  N   UNL     1      34.775 -20.161 -21.959  0.00  0.00    -0.184 N 
ATOM     23  N   UNL     1      35.301 -18.630 -20.491  0.00  0.00    -0.312 NA
ATOM     24  N   UNL     1      34.428 -19.018 -22.569  0.00  0.00    -0.112 NA
ATOM     25  C   UNL     1      35.276 -19.885 -20.757  0.00  0.00    +0.334 C 
ATOM     26  C   UNL     1      34.766 -18.122 -21.640  0.00  0.00    +0.112 C 
ATOM     27  H   UNL     1      34.675 -21.063 -22.340  0.00  0.00    +0.179 HD
BRANCH  26  30
ATOM     28 CL   UNL     1      33.986 -13.025 -23.701  0.00  0.00    -0.075 Cl
ATOM     29  S   UNL     1      34.370 -15.953 -23.384  0.00  0.00    -0.064 S 
ATOM     30  C   UNL     1      34.575 -16.674 -21.844  0.00  0.00    +0.105 C 
ATOM     31  C   UNL     1      34.536 -15.743 -20.829  0.00  0.00    +0.019 C 
ATOM     32  C   UNL     1      34.336 -14.420 -21.322  0.00  0.00    +0.019 C 
ATOM     33  C   UNL     1      34.230 -14.392 -22.695  0.00  0.00    +0.088 C 
ENDBRANCH  26  30
ENDBRANCH  19  25
ENDBRANCH   1  19
TORSDOF 6
ENDMDL
MODEL 8
REMARK VINA RESULT:      -9.8      5.262     11.805
REMARK  Name = 16040261
REMARK  6 active torsions:
REMARK  status: ('A' for Active; 'I' for Inactive)
REMARK    1  A    between atoms: N_1  and  C_5
REMARK    2  A    between atoms: N_1  and  S_19
REMARK    3  A    between atoms: N_4  and  C_9
REMARK    4  A    between atoms: C_9  and  C_14
REMARK    5  A    between atoms: S_19  and  C_25
REMARK    6  A    between atoms: C_26  and  C_30
REMARK                            x       y       z     vdW  Elec       q    Type
REMARK                         _______ _______ _______ _____ _____    ______ ____
ROOT
ATOM      1  N   UNL     1      34.276 -17.208 -22.778  0.00  0.00    -0.168 NA
ATOM      2  H   UNL     1      34.309 -16.752 -21.866  0.00  0.00    +0.149 HD
ENDROOT
BRANCH   1   5
ATOM      3  O   UNL     1      34.973 -14.518 -22.060  0.00  0.00    -0.273 OA
ATOM      4  N   UNL     1      34.019 -14.010 -24.149  0.00  0.00    -0.272 N 
ATOM      5  C   UNL     1      34.682 -16.213 -23.777  0.00  0.00    +0.153 C 
ATOM      6  C   UNL     1      33.695 -16.165 -24.938  0.00  0.00    +0.048 C 
ATOM      7  C   UNL     1      33.728 -14.714 -25.375  0.00  0.00    +0.096 C 
ATOM      8  C   UNL     1      34.587 -14.832 -23.176  0.00  0.00    +0.242 C 
BRANCH   4   9
ATOM      9  C   UNL     1      33.839 -12.579 -24.036  0.00  0.00    +0.152 C 
ATOM     10  C   UNL     1      33.598 -11.923 -25.376  0.00  0.00    +0.031 C 
BRANCH   9  14
ATOM     11  O   UNL     1      31.936  -8.631 -21.528  0.00  0.00    -0.350 OA
ATOM     12  O   UNL     1      32.044 -13.426 -22.739  0.00  0.00    -0.273 OA
ATOM     13  N   UNL     1      32.272 -11.117 -22.814  0.00  0.00    -0.273 N 
ATOM     14  C   UNL     1      32.637 -12.421 -23.139  0.00  0.00    +0.244 C 
ATOM     15  C   UNL     1      31.120 -10.873 -21.945  0.00  0.00    +0.126 C 
ATOM     16  C   UNL     1      32.872  -9.900 -23.371  0.00  0.00    +0.126 C 
ATOM     17  C   UNL     1      31.459  -9.823 -20.897  0.00  0.00    +0.164 C 
ATOM     18  C   UNL     1      33.134  -8.886 -22.266  0.00  0.00    +0.164 C 
ENDBRANCH   9  14
ENDBRANCH   4   9
ENDBRANCH   1   5
BRANCH   1  19
ATOM     19  S   UNL     1      35.194 -18.652 -22.659  0.00  0.00    +0.104 S 
ATOM     20  O   UNL     1      36.503 -18.344 -22.115  0.00  0.00    -0.149 OA
ATOM     21  O   UNL     1      35.047 -19.410 -23.885  0.00  0.00    -0.149 OA
BRANCH  19  25
ATOM     22  N   UNL     1      33.078 -19.852 -21.356  0.00  0.00    -0.184 N 
ATOM     23  N   UNL     1      35.043 -20.331 -20.527  0.00  0.00    -0.312 NA
ATOM     24  N   UNL     1      32.789 -20.673 -20.335  0.00  0.00    -0.112 NA
ATOM     25  C   UNL     1      34.397 -19.683 -21.428  0.00  0.00    +0.334 C 
ATOM     26  C   UNL     1      34.011 -20.934 -19.867  0.00  0.00    +0.112 C 
ATOM     27  H   UNL     1      32.418 -19.438 -21.958  0.00  0.00    +0.179 HD
BRANCH  26  30
ATOM     28 CL   UNL     1      36.083 -23.757 -15.558  0.00  0.00    -0.075 Cl
ATOM     29  S   UNL     1      35.729 -21.949 -17.886  0.00  0.00    -0.064 S 
ATOM     30  C   UNL     1      34.232 -21.819 -18.709  0.00  0.00    +0.105 C 
ATOM     31  C   UNL     1      33.269 -22.635 -18.157  0.00  0.00    +0.019 C 
ATOM     32  C   UNL     1      33.766 -23.377 -17.045  0.00  0.00    +0.019 C 
ATOM     33  C   UNL     1      35.091 -23.099 -16.790  0.00  0.00    +0.088 C 
ENDBRANCH  26  30
ENDBRANCH  19  25
ENDBRANCH   1  19
TORSDOF 6
ENDMDL
MODEL 9
REMARK VINA RESULT:      -9.8      5.225      8.767
REMARK  Name = 16040261
REMARK  6 active torsions:
REMARK  status: ('A' for Active; 'I' for Inactive)
REMARK    1  A    between atoms: N_1  and  C_5
REMARK    2  A    between atoms: N_1  and  S_19
REMARK    3  A    between atoms: N_4  and  C_9
REMARK    4  A    between atoms: C_9  and  C_14
REMARK    5  A    between atoms: S_19  and  C_25
REMARK    6  A    between atoms: C_26  and  C_30
REMARK                            x       y       z     vdW  Elec       q    Type
REMARK                         _______ _______ _______ _____ _____    ______ ____
ROOT
ATOM      1  N   UNL     1      34.520 -15.945 -25.781  0.00  0.00    -0.168 NA
ATOM      2  H   UNL     1      35.231 -15.441 -25.252  0.00  0.00    +0.149 HD
ENDROOT
BRANCH   1   5
ATOM      3  O   UNL     1      34.438 -15.653 -22.927  0.00  0.00    -0.273 OA
ATOM      4  N   UNL     1      34.806 -17.976 -22.959  0.00  0.00    -0.272 N 
ATOM      5  C   UNL     1      33.983 -16.991 -24.904  0.00  0.00    +0.153 C 
ATOM      6  C   UNL     1      34.587 -18.351 -25.236  0.00  0.00    +0.048 C 
ATOM      7  C   UNL     1      34.628 -19.059 -23.896  0.00  0.00    +0.096 C 
ATOM      8  C   UNL     1      34.437 -16.739 -23.487  0.00  0.00    +0.242 C 
BRANCH   4   9
ATOM      9  C   UNL     1      35.205 -18.216 -21.589  0.00  0.00    +0.152 C 
ATOM     10  C   UNL     1      35.367 -16.936 -20.804  0.00  0.00    +0.031 C 
BRANCH   9  14
ATOM     11  O   UNL     1      35.141 -22.709 -19.284  0.00  0.00    -0.350 OA
ATOM     12  O   UNL     1      32.919 -18.759 -21.265  0.00  0.00    -0.273 OA
ATOM     13  N   UNL     1      34.471 -20.139 -20.227  0.00  0.00    -0.273 N 
ATOM     14  C   UNL     1      34.090 -19.056 -21.016  0.00  0.00    +0.244 C 
ATOM     15  C   UNL     1      33.453 -21.009 -19.636  0.00  0.00    +0.126 C 
ATOM     16  C   UNL     1      35.842 -20.446 -19.807  0.00  0.00    +0.126 C 
ATOM     17  C   UNL     1      33.835 -22.471 -19.816  0.00  0.00    +0.164 C 
ATOM     18  C   UNL     1      36.125 -21.933 -19.974  0.00  0.00    +0.164 C 
ENDBRANCH   9  14
ENDBRANCH   4   9
ENDBRANCH   1   5
BRANCH   1  19
ATOM     19  S   UNL     1      33.430 -14.779 -26.408  0.00  0.00    +0.104 S 
ATOM     20  O   UNL     1      32.118 -15.381 -26.555  0.00  0.00    -0.149 OA
ATOM     21  O   UNL     1      34.065 -14.077 -27.506  0.00  0.00    -0.149 OA
BRANCH  19  25
ATOM     22  N   UNL     1      32.681 -13.737 -23.965  0.00  0.00    -0.184 N 
ATOM     23  N   UNL     1      33.616 -12.297 -25.317  0.00  0.00    -0.312 NA
ATOM     24  N   UNL     1      32.677 -12.600 -23.253  0.00  0.00    -0.112 NA
ATOM     25  C   UNL     1      33.235 -13.512 -25.154  0.00  0.00    +0.334 C 
ATOM     26  C   UNL     1      33.254 -11.760 -24.116  0.00  0.00    +0.112 C 
ATOM     27  H   UNL     1      32.329 -14.603 -23.656  0.00  0.00    +0.179 HD
BRANCH  26  30
ATOM     28 CL   UNL     1      32.919  -6.526 -22.290  0.00  0.00    -0.075 Cl
ATOM     29  S   UNL     1      32.374  -9.380 -22.904  0.00  0.00    -0.064 S 
ATOM     30  C   UNL     1      33.483 -10.340 -23.789  0.00  0.00    +0.105 C 
ATOM     31  C   UNL     1      34.605  -9.628 -24.153  0.00  0.00    +0.019 C 
ATOM     32  C   UNL     1      34.554  -8.278 -23.700  0.00  0.00    +0.019 C 
ATOM     33  C   UNL     1      33.394  -8.009 -23.007  0.00  0.00    +0.088 C 
ENDBRANCH  26  30
ENDBRANCH  19  25
ENDBRANCH   1  19
TORSDOF 6
ENDMDL
