MODEL 1
REMARK VINA RESULT:     -11.6      0.000      0.000
REMARK  Name = 16045418
REMARK  6 active torsions:
REMARK  status: ('A' for Active; 'I' for Inactive)
REMARK    1  A    between atoms: C_2  and  O_8
REMARK    2  A    between atoms: C_4  and  O_23
REMARK    3  A    between atoms: O_8  and  C_9
REMARK    4  A    between atoms: C_9  and  C_14
REMARK    5  A    between atoms: O_23  and  C_25
REMARK    6  A    between atoms: C_28  and  C_32
REMARK                            x       y       z     vdW  Elec       q    Type
REMARK                         _______ _______ _______ _____ _____    ______ ____
ROOT
ATOM      1 CL   UNL     1      31.233 -12.299 -20.843  0.00  0.00    -0.079 Cl
ATOM      2  C   UNL     1      34.358 -15.342 -21.982  0.00  0.00    +0.142 C 
ATOM      3  C   UNL     1      33.857 -14.481 -22.954  0.00  0.00    +0.075 C 
ATOM      4  C   UNL     1      32.890 -13.535 -22.610  0.00  0.00    +0.159 C 
ATOM      5  C   UNL     1      33.900 -15.267 -20.670  0.00  0.00    +0.038 C 
ATOM      6  C   UNL     1      32.428 -13.456 -21.297  0.00  0.00    +0.092 C 
ATOM      7  C   UNL     1      32.933 -14.323 -20.327  0.00  0.00    +0.018 C 
ENDROOT
BRANCH   2   8
ATOM      8  O   UNL     1      35.305 -16.269 -22.319  0.00  0.00    -0.469 OA
BRANCH   8   9
ATOM      9  C   UNL     1      34.825 -17.546 -22.743  0.00  0.00    +0.249 C 
BRANCH   9  14
ATOM     10  N   UNL     1      36.493 -18.764 -21.364  0.00  0.00    -0.227 N 
ATOM     11  N   UNL     1      36.668 -19.750 -20.459  0.00  0.00    -0.115 NA
ATOM     12  N   UNL     1      35.042 -21.232 -19.439  0.00  0.00    -0.335 NA
ATOM     13  N   UNL     1      33.158 -22.479 -18.675  0.00  0.00    -0.332 N 
ATOM     14  C   UNL     1      35.197 -18.578 -21.762  0.00  0.00    +0.097 C 
ATOM     15  C   UNL     1      34.482 -19.511 -21.063  0.00  0.00    +0.090 C 
ATOM     16  C   UNL     1      35.431 -20.220 -20.265  0.00  0.00    +0.105 C 
ATOM     17  C   UNL     1      33.111 -19.709 -21.135  0.00  0.00    +0.016 C 
ATOM     18  C   UNL     1      32.732 -20.750 -20.281  0.00  0.00    +0.049 C 
ATOM     19  C   UNL     1      33.688 -21.442 -19.496  0.00  0.00    +0.189 C 
ATOM     20  H   UNL     1      37.239 -18.222 -21.710  0.00  0.00    +0.175 HD
ATOM     21  H   UNL     1      33.759 -23.006 -18.100  0.00  0.00    +0.145 HD
ATOM     22  H   UNL     1      32.192 -22.668 -18.682  0.00  0.00    +0.145 HD
ENDBRANCH   9  14
ENDBRANCH   8   9
ENDBRANCH   2   8
BRANCH   4  23
ATOM     23  O   UNL     1      32.415 -12.702 -23.578  0.00  0.00    -0.452 OA
BRANCH  23  25
ATOM     24 CL   UNL     1      36.021 -10.337 -26.281  0.00  0.00    -0.082 Cl
ATOM     25  C   UNL     1      33.123 -11.538 -23.826  0.00  0.00    +0.147 C 
ATOM     26  C   UNL     1      32.841 -10.405 -23.082  0.00  0.00    +0.048 C 
ATOM     27  C   UNL     1      34.095 -11.535 -24.811  0.00  0.00    +0.049 C 
ATOM     28  C   UNL     1      33.554  -9.233 -23.331  0.00  0.00    +0.072 C 
ATOM     29  C   UNL     1      34.808 -10.363 -25.060  0.00  0.00    +0.061 C 
ATOM     30  C   UNL     1      34.537  -9.212 -24.320  0.00  0.00    +0.022 C 
BRANCH  28  32
ATOM     31  N   UNL     1      33.049  -7.094 -21.955  0.00  0.00    -0.191 NA
ATOM     32  C   UNL     1      33.276  -8.054 -22.573  0.00  0.00    +0.101 C 
ENDBRANCH  28  32
ENDBRANCH  23  25
ENDBRANCH   4  23
TORSDOF 6
ENDMDL
MODEL 2
REMARK VINA RESULT:     -11.4      1.583      2.036
REMARK  Name = 16045418
REMARK  6 active torsions:
REMARK  status: ('A' for Active; 'I' for Inactive)
REMARK    1  A    between atoms: C_2  and  O_8
REMARK    2  A    between atoms: C_4  and  O_23
REMARK    3  A    between atoms: O_8  and  C_9
REMARK    4  A    between atoms: C_9  and  C_14
REMARK    5  A    between atoms: O_23  and  C_25
REMARK    6  A    between atoms: C_28  and  C_32
REMARK                            x       y       z     vdW  Elec       q    Type
REMARK                         _______ _______ _______ _____ _____    ______ ____
ROOT
ATOM      1 CL   UNL     1      32.365 -14.168 -26.490  0.00  0.00    -0.079 Cl
ATOM      2  C   UNL     1      34.624 -16.190 -23.153  0.00  0.00    +0.142 C 
ATOM      3  C   UNL     1      33.827 -15.084 -22.867  0.00  0.00    +0.075 C 
ATOM      4  C   UNL     1      33.124 -14.453 -23.894  0.00  0.00    +0.159 C 
ATOM      5  C   UNL     1      34.724 -16.669 -24.456  0.00  0.00    +0.038 C 
ATOM      6  C   UNL     1      33.221 -14.929 -25.201  0.00  0.00    +0.092 C 
ATOM      7  C   UNL     1      34.021 -16.037 -25.482  0.00  0.00    +0.018 C 
ENDROOT
BRANCH   2   8
ATOM      8  O   UNL     1      35.313 -16.808 -22.147  0.00  0.00    -0.469 OA
BRANCH   8   9
ATOM      9  C   UNL     1      36.097 -17.944 -22.515  0.00  0.00    +0.249 C 
BRANCH   9  14
ATOM     10  N   UNL     1      37.161 -19.372 -20.785  0.00  0.00    -0.227 N 
ATOM     11  N   UNL     1      36.941 -20.314 -19.843  0.00  0.00    -0.115 NA
ATOM     12  N   UNL     1      34.872 -21.383 -19.165  0.00  0.00    -0.335 NA
ATOM     13  N   UNL     1      32.658 -22.188 -18.797  0.00  0.00    -0.332 N 
ATOM     14  C   UNL     1      36.041 -18.964 -21.456  0.00  0.00    +0.097 C 
ATOM     15  C   UNL     1      35.022 -19.694 -20.908  0.00  0.00    +0.090 C 
ATOM     16  C   UNL     1      35.621 -20.521 -19.909  0.00  0.00    +0.105 C 
ATOM     17  C   UNL     1      33.685 -19.625 -21.268  0.00  0.00    +0.016 C 
ATOM     18  C   UNL     1      32.934 -20.516 -20.493  0.00  0.00    +0.049 C 
ATOM     19  C   UNL     1      33.545 -21.328 -19.507  0.00  0.00    +0.189 C 
ATOM     20  H   UNL     1      38.057 -19.009 -20.974  0.00  0.00    +0.175 HD
ATOM     21  H   UNL     1      33.007 -22.784 -18.096  0.00  0.00    +0.145 HD
ATOM     22  H   UNL     1      31.697 -22.186 -19.008  0.00  0.00    +0.145 HD
ENDBRANCH   9  14
ENDBRANCH   8   9
ENDBRANCH   2   8
BRANCH   4  23
ATOM     23  O   UNL     1      32.350 -13.373 -23.590  0.00  0.00    -0.452 OA
BRANCH  23  25
ATOM     24 CL   UNL     1      35.744 -10.374 -25.909  0.00  0.00    -0.082 Cl
ATOM     25  C   UNL     1      32.925 -12.119 -23.701  0.00  0.00    +0.147 C 
ATOM     26  C   UNL     1      32.490 -11.101 -22.871  0.00  0.00    +0.048 C 
ATOM     27  C   UNL     1      33.922 -11.914 -24.638  0.00  0.00    +0.049 C 
ATOM     28  C   UNL     1      33.070  -9.838 -22.982  0.00  0.00    +0.072 C 
ATOM     29  C   UNL     1      34.503 -10.651 -24.750  0.00  0.00    +0.061 C 
ATOM     30  C   UNL     1      34.076  -9.613 -23.922  0.00  0.00    +0.022 C 
BRANCH  28  32
ATOM     31  N   UNL     1      32.274  -7.907 -21.444  0.00  0.00    -0.191 NA
ATOM     32  C   UNL     1      32.633  -8.774 -22.135  0.00  0.00    +0.101 C 
ENDBRANCH  28  32
ENDBRANCH  23  25
ENDBRANCH   4  23
TORSDOF 6
ENDMDL
MODEL 3
REMARK VINA RESULT:     -11.2      2.193      3.249
REMARK  Name = 16045418
REMARK  6 active torsions:
REMARK  status: ('A' for Active; 'I' for Inactive)
REMARK    1  A    between atoms: C_2  and  O_8
REMARK    2  A    between atoms: C_4  and  O_23
REMARK    3  A    between atoms: O_8  and  C_9
REMARK    4  A    between atoms: C_9  and  C_14
REMARK    5  A    between atoms: O_23  and  C_25
REMARK    6  A    between atoms: C_28  and  C_32
REMARK                            x       y       z     vdW  Elec       q    Type
REMARK                         _______ _______ _______ _____ _____    ______ ____
ROOT
ATOM      1 CL   UNL     1      32.707 -14.724 -26.127  0.00  0.00    -0.079 Cl
ATOM      2  C   UNL     1      34.839 -16.594 -22.622  0.00  0.00    +0.142 C 
ATOM      3  C   UNL     1      33.878 -15.613 -22.393  0.00  0.00    +0.075 C 
ATOM      4  C   UNL     1      33.213 -15.030 -23.472  0.00  0.00    +0.159 C 
ATOM      5  C   UNL     1      35.141 -16.996 -23.919  0.00  0.00    +0.038 C 
ATOM      6  C   UNL     1      33.512 -15.429 -24.774  0.00  0.00    +0.092 C 
ATOM      7  C   UNL     1      34.476 -16.412 -24.998  0.00  0.00    +0.018 C 
ENDROOT
BRANCH   2   8
ATOM      8  O   UNL     1      35.490 -17.166 -21.564  0.00  0.00    -0.469 OA
BRANCH   8   9
ATOM      9  C   UNL     1      35.801 -18.555 -21.682  0.00  0.00    +0.249 C 
BRANCH   9  14
ATOM     10  N   UNL     1      33.403 -19.147 -21.428  0.00  0.00    -0.227 N 
ATOM     11  N   UNL     1      32.529 -19.977 -20.819  0.00  0.00    -0.115 NA
ATOM     12  N   UNL     1      32.935 -21.787 -19.255  0.00  0.00    -0.335 NA
ATOM     13  N   UNL     1      33.744 -23.462 -17.764  0.00  0.00    -0.332 N 
ATOM     14  C   UNL     1      34.715 -19.367 -21.109  0.00  0.00    +0.097 C 
ATOM     15  C   UNL     1      34.689 -20.416 -20.231  0.00  0.00    +0.090 C 
ATOM     16  C   UNL     1      33.314 -20.766 -20.076  0.00  0.00    +0.105 C 
ATOM     17  C   UNL     1      35.792 -21.000 -19.627  0.00  0.00    +0.016 C 
ATOM     18  C   UNL     1      35.382 -22.044 -18.791  0.00  0.00    +0.049 C 
ATOM     19  C   UNL     1      34.013 -22.379 -18.649  0.00  0.00    +0.189 C 
ATOM     20  H   UNL     1      33.117 -18.440 -22.051  0.00  0.00    +0.175 HD
ATOM     21  H   UNL     1      32.816 -23.754 -17.612  0.00  0.00    +0.145 HD
ATOM     22  H   UNL     1      34.486 -23.918 -17.304  0.00  0.00    +0.145 HD
ENDBRANCH   9  14
ENDBRANCH   8   9
ENDBRANCH   2   8
BRANCH   4  23
ATOM     23  O   UNL     1      32.275 -14.072 -23.223  0.00  0.00    -0.452 OA
BRANCH  23  25
ATOM     24 CL   UNL     1      31.828  -9.297 -21.521  0.00  0.00    -0.082 Cl
ATOM     25  C   UNL     1      32.667 -12.749 -23.325  0.00  0.00    +0.147 C 
ATOM     26  C   UNL     1      33.605 -12.394 -24.279  0.00  0.00    +0.048 C 
ATOM     27  C   UNL     1      32.112 -11.812 -22.471  0.00  0.00    +0.049 C 
ATOM     28  C   UNL     1      33.999 -11.060 -24.382  0.00  0.00    +0.072 C 
ATOM     29  C   UNL     1      32.506 -10.479 -22.574  0.00  0.00    +0.061 C 
ATOM     30  C   UNL     1      33.450 -10.102 -23.530  0.00  0.00    +0.022 C 
BRANCH  28  32
ATOM     31  N   UNL     1      35.755 -10.363 -26.159  0.00  0.00    -0.191 NA
ATOM     32  C   UNL     1      34.967 -10.675 -25.361  0.00  0.00    +0.101 C 
ENDBRANCH  28  32
ENDBRANCH  23  25
ENDBRANCH   4  23
TORSDOF 6
ENDMDL
MODEL 4
REMARK VINA RESULT:     -10.9      1.720      2.088
REMARK  Name = 16045418
REMARK  6 active torsions:
REMARK  status: ('A' for Active; 'I' for Inactive)
REMARK    1  A    between atoms: C_2  and  O_8
REMARK    2  A    between atoms: C_4  and  O_23
REMARK    3  A    between atoms: O_8  and  C_9
REMARK    4  A    between atoms: C_9  and  C_14
REMARK    5  A    between atoms: O_23  and  C_25
REMARK    6  A    between atoms: C_28  and  C_32
REMARK                            x       y       z     vdW  Elec       q    Type
REMARK                         _______ _______ _______ _____ _____    ______ ____
ROOT
ATOM      1 CL   UNL     1      31.882 -12.683 -20.083  0.00  0.00    -0.079 Cl
ATOM      2  C   UNL     1      34.497 -15.668 -22.221  0.00  0.00    +0.142 C 
ATOM      3  C   UNL     1      33.749 -14.759 -22.965  0.00  0.00    +0.075 C 
ATOM      4  C   UNL     1      32.937 -13.832 -22.311  0.00  0.00    +0.159 C 
ATOM      5  C   UNL     1      34.440 -15.658 -20.831  0.00  0.00    +0.038 C 
ATOM      6  C   UNL     1      32.877 -13.817 -20.917  0.00  0.00    +0.092 C 
ATOM      7  C   UNL     1      33.628 -14.731 -20.178  0.00  0.00    +0.018 C 
ENDROOT
BRANCH   2   8
ATOM      8  O   UNL     1      35.292 -16.578 -22.863  0.00  0.00    -0.469 OA
BRANCH   8   9
ATOM      9  C   UNL     1      34.762 -17.896 -23.010  0.00  0.00    +0.249 C 
BRANCH   9  14
ATOM     10  N   UNL     1      36.570 -18.781 -21.557  0.00  0.00    -0.227 N 
ATOM     11  N   UNL     1      36.859 -19.630 -20.548  0.00  0.00    -0.115 NA
ATOM     12  N   UNL     1      35.405 -21.120 -19.304  0.00  0.00    -0.335 NA
ATOM     13  N   UNL     1      33.667 -22.431 -18.332  0.00  0.00    -0.332 N 
ATOM     14  C   UNL     1      35.253 -18.764 -21.928  0.00  0.00    +0.097 C 
ATOM     15  C   UNL     1      34.646 -19.666 -21.099  0.00  0.00    +0.090 C 
ATOM     16  C   UNL     1      35.677 -20.184 -20.257  0.00  0.00    +0.105 C 
ATOM     17  C   UNL     1      33.299 -19.995 -21.099  0.00  0.00    +0.016 C 
ATOM     18  C   UNL     1      33.041 -20.955 -20.115  0.00  0.00    +0.049 C 
ATOM     19  C   UNL     1      34.076 -21.457 -19.288  0.00  0.00    +0.189 C 
ATOM     20  H   UNL     1      37.253 -18.219 -21.991  0.00  0.00    +0.175 HD
ATOM     21  H   UNL     1      34.328 -22.828 -17.720  0.00  0.00    +0.145 HD
ATOM     22  H   UNL     1      32.723 -22.707 -18.283  0.00  0.00    +0.145 HD
ENDBRANCH   9  14
ENDBRANCH   8   9
ENDBRANCH   2   8
BRANCH   4  23
ATOM     23  O   UNL     1      32.214 -12.951 -23.059  0.00  0.00    -0.452 OA
BRANCH  23  25
ATOM     24 CL   UNL     1      32.538  -7.968 -22.077  0.00  0.00    -0.082 Cl
ATOM     25  C   UNL     1      32.798 -11.732 -23.356  0.00  0.00    +0.147 C 
ATOM     26  C   UNL     1      33.753 -11.666 -24.357  0.00  0.00    +0.048 C 
ATOM     27  C   UNL     1      32.413 -10.608 -22.647  0.00  0.00    +0.049 C 
ATOM     28  C   UNL     1      34.340 -10.438 -24.657  0.00  0.00    +0.072 C 
ATOM     29  C   UNL     1      33.001  -9.379 -22.947  0.00  0.00    +0.061 C 
ATOM     30  C   UNL     1      33.965  -9.294 -23.952  0.00  0.00    +0.022 C 
BRANCH  28  32
ATOM     31  N   UNL     1      36.133 -10.282 -26.524  0.00  0.00    -0.191 NA
ATOM     32  C   UNL     1      35.328 -10.351 -25.686  0.00  0.00    +0.101 C 
ENDBRANCH  28  32
ENDBRANCH  23  25
ENDBRANCH   4  23
TORSDOF 6
ENDMDL
MODEL 5
REMARK VINA RESULT:     -10.9      2.339      4.082
REMARK  Name = 16045418
REMARK  6 active torsions:
REMARK  status: ('A' for Active; 'I' for Inactive)
REMARK    1  A    between atoms: C_2  and  O_8
REMARK    2  A    between atoms: C_4  and  O_23
REMARK    3  A    between atoms: O_8  and  C_9
REMARK    4  A    between atoms: C_9  and  C_14
REMARK    5  A    between atoms: O_23  and  C_25
REMARK    6  A    between atoms: C_28  and  C_32
REMARK                            x       y       z     vdW  Elec       q    Type
REMARK                         _______ _______ _______ _____ _____    ______ ____
ROOT
ATOM      1 CL   UNL     1      33.098 -15.547 -26.182  0.00  0.00    -0.079 Cl
ATOM      2  C   UNL     1      35.477 -18.270 -23.489  0.00  0.00    +0.142 C 
ATOM      3  C   UNL     1      35.529 -16.894 -23.287  0.00  0.00    +0.075 C 
ATOM      4  C   UNL     1      34.795 -16.044 -24.115  0.00  0.00    +0.159 C 
ATOM      5  C   UNL     1      34.699 -18.804 -24.512  0.00  0.00    +0.038 C 
ATOM      6  C   UNL     1      34.014 -16.573 -25.142  0.00  0.00    +0.092 C 
ATOM      7  C   UNL     1      33.966 -17.953 -25.341  0.00  0.00    +0.018 C 
ENDROOT
BRANCH   2   8
ATOM      8  O   UNL     1      36.197 -19.103 -22.677  0.00  0.00    -0.469 OA
BRANCH   8   9
ATOM      9  C   UNL     1      36.042 -18.911 -21.270  0.00  0.00    +0.249 C 
BRANCH   9  14
ATOM     10  N   UNL     1      33.599 -19.352 -21.202  0.00  0.00    -0.227 N 
ATOM     11  N   UNL     1      32.632 -20.124 -20.663  0.00  0.00    -0.115 NA
ATOM     12  N   UNL     1      32.802 -21.950 -19.076  0.00  0.00    -0.335 NA
ATOM     13  N   UNL     1      33.388 -23.667 -17.529  0.00  0.00    -0.332 N 
ATOM     14  C   UNL     1      34.867 -19.652 -20.784  0.00  0.00    +0.097 C 
ATOM     15  C   UNL     1      34.709 -20.694 -19.912  0.00  0.00    +0.090 C 
ATOM     16  C   UNL     1      33.306 -20.958 -19.863  0.00  0.00    +0.105 C 
ATOM     17  C   UNL     1      35.723 -21.344 -19.226  0.00  0.00    +0.016 C 
ATOM     18  C   UNL     1      35.186 -22.358 -18.426  0.00  0.00    +0.049 C 
ATOM     19  C   UNL     1      33.792 -22.606 -18.390  0.00  0.00    +0.189 C 
ATOM     20  H   UNL     1      33.408 -18.630 -21.845  0.00  0.00    +0.175 HD
ATOM     21  H   UNL     1      32.435 -23.900 -17.450  0.00  0.00    +0.145 HD
ATOM     22  H   UNL     1      34.063 -24.166 -17.014  0.00  0.00    +0.145 HD
ENDBRANCH   9  14
ENDBRANCH   8   9
ENDBRANCH   2   8
BRANCH   4  23
ATOM     23  O   UNL     1      34.860 -14.700 -23.898  0.00  0.00    -0.452 OA
BRANCH  23  25
ATOM     24 CL   UNL     1      32.133 -15.217 -19.633  0.00  0.00    -0.082 Cl
ATOM     25  C   UNL     1      33.950 -14.148 -23.013  0.00  0.00    +0.147 C 
ATOM     26  C   UNL     1      33.457 -12.878 -23.256  0.00  0.00    +0.048 C 
ATOM     27  C   UNL     1      33.555 -14.880 -21.907  0.00  0.00    +0.049 C 
ATOM     28  C   UNL     1      32.539 -12.323 -22.365  0.00  0.00    +0.072 C 
ATOM     29  C   UNL     1      32.637 -14.325 -21.016  0.00  0.00    +0.061 C 
ATOM     30  C   UNL     1      32.130 -13.046 -21.244  0.00  0.00    +0.022 C 
BRANCH  28  32
ATOM     31  N   UNL     1      31.598  -9.944 -22.791  0.00  0.00    -0.191 NA
ATOM     32  C   UNL     1      32.020 -11.012 -22.599  0.00  0.00    +0.101 C 
ENDBRANCH  28  32
ENDBRANCH  23  25
ENDBRANCH   4  23
TORSDOF 6
ENDMDL
MODEL 6
REMARK VINA RESULT:     -10.8      8.121     11.459
REMARK  Name = 16045418
REMARK  6 active torsions:
REMARK  status: ('A' for Active; 'I' for Inactive)
REMARK    1  A    between atoms: C_2  and  O_8
REMARK    2  A    between atoms: C_4  and  O_23
REMARK    3  A    between atoms: O_8  and  C_9
REMARK    4  A    between atoms: C_9  and  C_14
REMARK    5  A    between atoms: O_23  and  C_25
REMARK    6  A    between atoms: C_28  and  C_32
REMARK                            x       y       z     vdW  Elec       q    Type
REMARK                         _______ _______ _______ _____ _____    ______ ____
ROOT
ATOM      1 CL   UNL     1      29.314 -22.408 -16.827  0.00  0.00    -0.079 Cl
ATOM      2  C   UNL     1      32.609 -23.914 -14.144  0.00  0.00    +0.142 C 
ATOM      3  C   UNL     1      32.854 -23.759 -15.505  0.00  0.00    +0.075 C 
ATOM      4  C   UNL     1      31.840 -23.293 -16.343  0.00  0.00    +0.159 C 
ATOM      5  C   UNL     1      31.359 -23.609 -13.613  0.00  0.00    +0.038 C 
ATOM      6  C   UNL     1      30.586 -22.985 -15.816  0.00  0.00    +0.092 C 
ATOM      7  C   UNL     1      30.346 -23.144 -14.451  0.00  0.00    +0.018 C 
ENDROOT
BRANCH   2   8
ATOM      8  O   UNL     1      33.603 -24.372 -13.323  0.00  0.00    -0.469 OA
BRANCH   8   9
ATOM      9  C   UNL     1      34.905 -23.824 -13.533  0.00  0.00    +0.249 C 
BRANCH   9  14
ATOM     10  N   UNL     1      35.339 -25.768 -15.016  0.00  0.00    -0.227 N 
ATOM     11  N   UNL     1      36.279 -26.630 -15.459  0.00  0.00    -0.115 NA
ATOM     12  N   UNL     1      38.636 -26.781 -14.906  0.00  0.00    -0.335 NA
ATOM     13  N   UNL     1      40.875 -26.596 -14.108  0.00  0.00    -0.332 N 
ATOM     14  C   UNL     1      35.794 -24.840 -14.118  0.00  0.00    +0.097 C 
ATOM     15  C   UNL     1      37.124 -25.122 -13.970  0.00  0.00    +0.090 C 
ATOM     16  C   UNL     1      37.387 -26.240 -14.819  0.00  0.00    +0.105 C 
ATOM     17  C   UNL     1      38.015 -24.444 -13.153  0.00  0.00    +0.016 C 
ATOM     18  C   UNL     1      39.289 -25.012 -13.257  0.00  0.00    +0.049 C 
ATOM     19  C   UNL     1      39.532 -26.121 -14.104  0.00  0.00    +0.189 C 
ATOM     20  H   UNL     1      34.401 -25.804 -15.315  0.00  0.00    +0.175 HD
ATOM     21  H   UNL     1      41.124 -27.364 -14.672  0.00  0.00    +0.145 HD
ATOM     22  H   UNL     1      41.554 -26.156 -13.548  0.00  0.00    +0.145 HD
ENDBRANCH   9  14
ENDBRANCH   8   9
ENDBRANCH   2   8
BRANCH   4  23
ATOM     23  O   UNL     1      32.103 -23.147 -17.672  0.00  0.00    -0.452 OA
BRANCH  23  25
ATOM     24 CL   UNL     1      37.048 -22.565 -16.624  0.00  0.00    -0.082 Cl
ATOM     25  C   UNL     1      33.321 -22.594 -18.028  0.00  0.00    +0.147 C 
ATOM     26  C   UNL     1      33.400 -21.813 -19.168  0.00  0.00    +0.048 C 
ATOM     27  C   UNL     1      34.430 -22.835 -17.236  0.00  0.00    +0.049 C 
ATOM     28  C   UNL     1      34.627 -21.254 -19.526  0.00  0.00    +0.072 C 
ATOM     29  C   UNL     1      35.657 -22.277 -17.594  0.00  0.00    +0.061 C 
ATOM     30  C   UNL     1      35.755 -21.487 -18.739  0.00  0.00    +0.022 C 
BRANCH  28  32
ATOM     31  N   UNL     1      34.809 -19.785 -21.656  0.00  0.00    -0.191 NA
ATOM     32  C   UNL     1      34.728 -20.446 -20.700  0.00  0.00    +0.101 C 
ENDBRANCH  28  32
ENDBRANCH  23  25
ENDBRANCH   4  23
TORSDOF 6
ENDMDL
MODEL 7
REMARK VINA RESULT:     -10.7      8.888     11.656
REMARK  Name = 16045418
REMARK  6 active torsions:
REMARK  status: ('A' for Active; 'I' for Inactive)
REMARK    1  A    between atoms: C_2  and  O_8
REMARK    2  A    between atoms: C_4  and  O_23
REMARK    3  A    between atoms: O_8  and  C_9
REMARK    4  A    between atoms: C_9  and  C_14
REMARK    5  A    between atoms: O_23  and  C_25
REMARK    6  A    between atoms: C_28  and  C_32
REMARK                            x       y       z     vdW  Elec       q    Type
REMARK                         _______ _______ _______ _____ _____    ______ ____
ROOT
ATOM      1 CL   UNL     1      29.459 -22.391 -16.872  0.00  0.00    -0.079 Cl
ATOM      2  C   UNL     1      32.648 -23.923 -14.077  0.00  0.00    +0.142 C 
ATOM      3  C   UNL     1      32.920 -23.831 -15.440  0.00  0.00    +0.075 C 
ATOM      4  C   UNL     1      31.939 -23.357 -16.312  0.00  0.00    +0.159 C 
ATOM      5  C   UNL     1      31.404 -23.546 -13.580  0.00  0.00    +0.038 C 
ATOM      6  C   UNL     1      30.691 -22.979 -15.818  0.00  0.00    +0.092 C 
ATOM      7  C   UNL     1      30.423 -23.074 -14.452  0.00  0.00    +0.018 C 
ENDROOT
BRANCH   2   8
ATOM      8  O   UNL     1      33.610 -24.387 -13.223  0.00  0.00    -0.469 OA
BRANCH   8   9
ATOM      9  C   UNL     1      34.924 -23.852 -13.391  0.00  0.00    +0.249 C 
BRANCH   9  14
ATOM     10  N   UNL     1      35.333 -25.756 -14.931  0.00  0.00    -0.227 N 
ATOM     11  N   UNL     1      36.265 -26.606 -15.411  0.00  0.00    -0.115 NA
ATOM     12  N   UNL     1      38.630 -26.772 -14.900  0.00  0.00    -0.335 NA
ATOM     13  N   UNL     1      40.882 -26.609 -14.133  0.00  0.00    -0.332 N 
ATOM     14  C   UNL     1      35.802 -24.853 -14.016  0.00  0.00    +0.097 C 
ATOM     15  C   UNL     1      37.134 -25.139 -13.897  0.00  0.00    +0.090 C 
ATOM     16  C   UNL     1      37.384 -26.234 -14.778  0.00  0.00    +0.105 C 
ATOM     17  C   UNL     1      38.039 -24.482 -13.075  0.00  0.00    +0.016 C 
ATOM     18  C   UNL     1      39.310 -25.048 -13.215  0.00  0.00    +0.049 C 
ATOM     19  C   UNL     1      39.539 -26.134 -14.095  0.00  0.00    +0.189 C 
ATOM     20  H   UNL     1      34.391 -25.784 -15.216  0.00  0.00    +0.175 HD
ATOM     21  H   UNL     1      41.121 -27.362 -14.720  0.00  0.00    +0.145 HD
ATOM     22  H   UNL     1      41.570 -26.184 -13.572  0.00  0.00    +0.145 HD
ENDBRANCH   9  14
ENDBRANCH   8   9
ENDBRANCH   2   8
BRANCH   4  23
ATOM     23  O   UNL     1      32.229 -23.275 -17.641  0.00  0.00    -0.452 OA
BRANCH  23  25
ATOM     24 CL   UNL     1      34.769 -20.370 -20.959  0.00  0.00    -0.082 Cl
ATOM     25  C   UNL     1      33.423 -22.675 -18.002  0.00  0.00    +0.147 C 
ATOM     26  C   UNL     1      34.535 -22.847 -17.195  0.00  0.00    +0.048 C 
ATOM     27  C   UNL     1      33.476 -21.919 -19.159  0.00  0.00    +0.049 C 
ATOM     28  C   UNL     1      35.738 -22.243 -17.559  0.00  0.00    +0.072 C 
ATOM     29  C   UNL     1      34.680 -21.316 -19.523  0.00  0.00    +0.061 C 
ATOM     30  C   UNL     1      35.811 -21.477 -18.723  0.00  0.00    +0.022 C 
BRANCH  28  32
ATOM     31  N   UNL     1      37.840 -22.542 -16.070  0.00  0.00    -0.191 NA
ATOM     32  C   UNL     1      36.896 -22.409 -16.739  0.00  0.00    +0.101 C 
ENDBRANCH  28  32
ENDBRANCH  23  25
ENDBRANCH   4  23
TORSDOF 6
ENDMDL
MODEL 8
REMARK VINA RESULT:     -10.6      6.090     10.938
REMARK  Name = 16045418
REMARK  6 active torsions:
REMARK  status: ('A' for Active; 'I' for Inactive)
REMARK    1  A    between atoms: C_2  and  O_8
REMARK    2  A    between atoms: C_4  and  O_23
REMARK    3  A    between atoms: O_8  and  C_9
REMARK    4  A    between atoms: C_9  and  C_14
REMARK    5  A    between atoms: O_23  and  C_25
REMARK    6  A    between atoms: C_28  and  C_32
REMARK                            x       y       z     vdW  Elec       q    Type
REMARK                         _______ _______ _______ _____ _____    ______ ____
ROOT
ATOM      1 CL   UNL     1      36.300 -23.513 -15.695  0.00  0.00    -0.079 Cl
ATOM      2  C   UNL     1      35.188 -21.233 -19.422  0.00  0.00    +0.142 C 
ATOM      3  C   UNL     1      34.328 -22.216 -18.940  0.00  0.00    +0.075 C 
ATOM      4  C   UNL     1      34.664 -22.926 -17.787  0.00  0.00    +0.159 C 
ATOM      5  C   UNL     1      36.381 -20.955 -18.761  0.00  0.00    +0.038 C 
ATOM      6  C   UNL     1      35.859 -22.651 -17.121  0.00  0.00    +0.092 C 
ATOM      7  C   UNL     1      36.717 -21.665 -17.609  0.00  0.00    +0.018 C 
ENDROOT
BRANCH   2   8
ATOM      8  O   UNL     1      34.859 -20.537 -20.552  0.00  0.00    -0.469 OA
BRANCH   8   9
ATOM      9  C   UNL     1      35.912 -19.803 -21.179  0.00  0.00    +0.249 C 
BRANCH   9  14
ATOM     10  N   UNL     1      35.310 -17.445 -20.688  0.00  0.00    -0.227 N 
ATOM     11  N   UNL     1      34.856 -16.289 -21.216  0.00  0.00    -0.115 NA
ATOM     12  N   UNL     1      34.226 -15.763 -23.499  0.00  0.00    -0.335 NA
ATOM     13  N   UNL     1      33.711 -15.653 -25.824  0.00  0.00    -0.332 N 
ATOM     14  C   UNL     1      35.431 -18.472 -21.583  0.00  0.00    +0.097 C 
ATOM     15  C   UNL     1      35.027 -17.943 -22.777  0.00  0.00    +0.090 C 
ATOM     16  C   UNL     1      34.677 -16.585 -22.509  0.00  0.00    +0.105 C 
ATOM     17  C   UNL     1      34.975 -18.613 -23.990  0.00  0.00    +0.016 C 
ATOM     18  C   UNL     1      34.512 -17.754 -24.992  0.00  0.00    +0.049 C 
ATOM     19  C   UNL     1      34.170 -16.409 -24.707  0.00  0.00    +0.189 C 
ATOM     20  H   UNL     1      35.536 -17.540 -19.733  0.00  0.00    +0.175 HD
ATOM     21  H   UNL     1      33.454 -14.710 -25.707  0.00  0.00    +0.145 HD
ATOM     22  H   UNL     1      33.652 -16.073 -26.713  0.00  0.00    +0.145 HD
ENDBRANCH   9  14
ENDBRANCH   8   9
ENDBRANCH   2   8
BRANCH   4  23
ATOM     23  O   UNL     1      33.806 -23.883 -17.333  0.00  0.00    -0.452 OA
BRANCH  23  25
ATOM     24 CL   UNL     1      32.330 -22.927 -12.557  0.00  0.00    -0.082 Cl
ATOM     25  C   UNL     1      32.796 -23.484 -16.474  0.00  0.00    +0.147 C 
ATOM     26  C   UNL     1      31.555 -23.161 -16.995  0.00  0.00    +0.048 C 
ATOM     27  C   UNL     1      33.052 -23.418 -15.116  0.00  0.00    +0.049 C 
ATOM     28  C   UNL     1      30.538 -22.760 -16.130  0.00  0.00    +0.072 C 
ATOM     29  C   UNL     1      32.034 -23.017 -14.250  0.00  0.00    +0.061 C 
ATOM     30  C   UNL     1      30.777 -22.688 -14.758  0.00  0.00    +0.022 C 
BRANCH  28  32
ATOM     31  N   UNL     1      28.202 -22.145 -17.073  0.00  0.00    -0.191 NA
ATOM     32  C   UNL     1      29.250 -22.422 -16.650  0.00  0.00    +0.101 C 
ENDBRANCH  28  32
ENDBRANCH  23  25
ENDBRANCH   4  23
TORSDOF 6
ENDMDL
MODEL 9
REMARK VINA RESULT:     -10.4      2.088      3.245
REMARK  Name = 16045418
REMARK  6 active torsions:
REMARK  status: ('A' for Active; 'I' for Inactive)
REMARK    1  A    between atoms: C_2  and  O_8
REMARK    2  A    between atoms: C_4  and  O_23
REMARK    3  A    between atoms: O_8  and  C_9
REMARK    4  A    between atoms: C_9  and  C_14
REMARK    5  A    between atoms: O_23  and  C_25
REMARK    6  A    between atoms: C_28  and  C_32
REMARK                            x       y       z     vdW  Elec       q    Type
REMARK                         _______ _______ _______ _____ _____    ______ ____
ROOT
ATOM      1 CL   UNL     1      31.298 -10.839 -19.067  0.00  0.00    -0.079 Cl
ATOM      2  C   UNL     1      32.404 -13.462 -22.563  0.00  0.00    +0.142 C 
ATOM      3  C   UNL     1      31.843 -12.210 -22.799  0.00  0.00    +0.075 C 
ATOM      4  C   UNL     1      31.498 -11.391 -21.723  0.00  0.00    +0.159 C 
ATOM      5  C   UNL     1      32.623 -13.902 -21.262  0.00  0.00    +0.038 C 
ATOM      6  C   UNL     1      31.715 -11.829 -20.416  0.00  0.00    +0.092 C 
ATOM      7  C   UNL     1      32.278 -13.084 -20.186  0.00  0.00    +0.018 C 
ENDROOT
BRANCH   2   8
ATOM      8  O   UNL     1      32.742 -14.264 -23.618  0.00  0.00    -0.469 OA
BRANCH   8   9
ATOM      9  C   UNL     1      34.136 -14.503 -23.817  0.00  0.00    +0.249 C 
BRANCH   9  14
ATOM     10  N   UNL     1      34.372 -16.608 -25.114  0.00  0.00    -0.227 N 
ATOM     11  N   UNL     1      34.627 -17.931 -25.034  0.00  0.00    -0.115 NA
ATOM     12  N   UNL     1      35.115 -19.306 -23.096  0.00  0.00    -0.335 NA
ATOM     13  N   UNL     1      35.554 -20.295 -20.972  0.00  0.00    -0.332 N 
ATOM     14  C   UNL     1      34.393 -15.949 -23.914  0.00  0.00    +0.097 C 
ATOM     15  C   UNL     1      34.684 -16.915 -22.992  0.00  0.00    +0.090 C 
ATOM     16  C   UNL     1      34.822 -18.133 -23.725  0.00  0.00    +0.105 C 
ATOM     17  C   UNL     1      34.813 -16.725 -21.624  0.00  0.00    +0.016 C 
ATOM     18  C   UNL     1      35.114 -17.938 -20.998  0.00  0.00    +0.049 C 
ATOM     19  C   UNL     1      35.247 -19.136 -21.742  0.00  0.00    +0.189 C 
ATOM     20  H   UNL     1      34.184 -16.153 -25.968  0.00  0.00    +0.175 HD
ATOM     21  H   UNL     1      35.662 -21.167 -21.416  0.00  0.00    +0.145 HD
ATOM     22  H   UNL     1      35.657 -20.224 -19.995  0.00  0.00    +0.145 HD
ENDBRANCH   9  14
ENDBRANCH   8   9
ENDBRANCH   2   8
BRANCH   4  23
ATOM     23  O   UNL     1      30.950 -10.170 -21.978  0.00  0.00    -0.452 OA
BRANCH  23  25
ATOM     24 CL   UNL     1      35.247  -9.094 -24.483  0.00  0.00    -0.082 Cl
ATOM     25  C   UNL     1      31.765  -9.209 -22.552  0.00  0.00    +0.147 C 
ATOM     26  C   UNL     1      31.375  -7.882 -22.512  0.00  0.00    +0.048 C 
ATOM     27  C   UNL     1      32.949  -9.599 -23.152  0.00  0.00    +0.049 C 
ATOM     28  C   UNL     1      32.196  -6.914 -23.089  0.00  0.00    +0.072 C 
ATOM     29  C   UNL     1      33.770  -8.631 -23.730  0.00  0.00    +0.061 C 
ATOM     30  C   UNL     1      33.393  -7.288 -23.699  0.00  0.00    +0.022 C 
BRANCH  28  32
ATOM     31  N   UNL     1      31.493  -4.418 -23.032  0.00  0.00    -0.191 NA
ATOM     32  C   UNL     1      31.809  -5.538 -23.058  0.00  0.00    +0.101 C 
ENDBRANCH  28  32
ENDBRANCH  23  25
ENDBRANCH   4  23
TORSDOF 6
ENDMDL
