MODEL 1
REMARK VINA RESULT:      -4.4      0.000      0.000
REMARK  Name = 62474
REMARK  1 active torsions:
REMARK  status: ('A' for Active; 'I' for Inactive)
REMARK    1  A    between atoms: S_1  and  C_5
REMARK                            x       y       z     vdW  Elec       q    Type
REMARK                         _______ _______ _______ _____ _____    ______ ____
ROOT
ATOM      1  S   UNL     1      27.954 -22.954 -16.454  0.00  0.00    +0.043 S 
ATOM      2  O   UNL     1      27.576 -23.990 -17.657  0.00  0.00    -0.065 OA
ATOM      3  O   UNL     1      28.872 -21.965 -16.992  0.00  0.00    -0.065 OA
ATOM      4  O   UNL     1      26.716 -22.541 -15.816  0.00  0.00    -0.065 OA
ENDROOT
BRANCH   1   5
ATOM      5  C   UNL     1      28.805 -24.027 -15.416  0.00  0.00    +0.130 C 
ATOM      6  C   UNL     1      30.030 -24.405 -15.787  0.00  0.00    +0.022 C 
ENDBRANCH   1   5
TORSDOF 1
ENDMDL
MODEL 2
REMARK VINA RESULT:      -4.2      0.655      1.885
REMARK  Name = 62474
REMARK  1 active torsions:
REMARK  status: ('A' for Active; 'I' for Inactive)
REMARK    1  A    between atoms: S_1  and  C_5
REMARK                            x       y       z     vdW  Elec       q    Type
REMARK                         _______ _______ _______ _____ _____    ______ ____
ROOT
ATOM      1  S   UNL     1      28.098 -23.372 -16.487  0.00  0.00    +0.043 S 
ATOM      2  O   UNL     1      28.949 -22.178 -17.202  0.00  0.00    -0.065 OA
ATOM      3  O   UNL     1      27.007 -22.759 -15.748  0.00  0.00    -0.065 OA
ATOM      4  O   UNL     1      27.829 -24.390 -17.489  0.00  0.00    -0.065 OA
ENDROOT
BRANCH   1   5
ATOM      5  C   UNL     1      29.287 -23.947 -15.388  0.00  0.00    +0.130 C 
ATOM      6  C   UNL     1      29.073 -25.128 -14.807  0.00  0.00    +0.022 C 
ENDBRANCH   1   5
TORSDOF 1
ENDMDL
MODEL 3
REMARK VINA RESULT:      -4.2      5.987      6.686
REMARK  Name = 62474
REMARK  1 active torsions:
REMARK  status: ('A' for Active; 'I' for Inactive)
REMARK    1  A    between atoms: S_1  and  C_5
REMARK                            x       y       z     vdW  Elec       q    Type
REMARK                         _______ _______ _______ _____ _____    ______ ____
ROOT
ATOM      1  S   UNL     1      33.844 -22.580 -18.627  0.00  0.00    +0.043 S 
ATOM      2  O   UNL     1      33.963 -23.832 -19.667  0.00  0.00    -0.065 OA
ATOM      3  O   UNL     1      32.459 -22.491 -18.196  0.00  0.00    -0.065 OA
ATOM      4  O   UNL     1      34.913 -22.708 -17.651  0.00  0.00    -0.065 OA
ENDROOT
BRANCH   1   5
ATOM      5  C   UNL     1      34.198 -21.287 -19.701  0.00  0.00    +0.130 C 
ATOM      6  C   UNL     1      33.176 -20.549 -20.139  0.00  0.00    +0.022 C 
ENDBRANCH   1   5
TORSDOF 1
ENDMDL
MODEL 4
REMARK VINA RESULT:      -4.2     15.085     15.516
REMARK  Name = 62474
REMARK  1 active torsions:
REMARK  status: ('A' for Active; 'I' for Inactive)
REMARK    1  A    between atoms: S_1  and  C_5
REMARK                            x       y       z     vdW  Elec       q    Type
REMARK                         _______ _______ _______ _____ _____    ______ ____
ROOT
ATOM      1  S   UNL     1      41.831 -16.280 -16.631  0.00  0.00    +0.043 S 
ATOM      2  O   UNL     1      41.522 -17.750 -17.268  0.00  0.00    -0.065 OA
ATOM      3  O   UNL     1      40.708 -15.918 -15.783  0.00  0.00    -0.065 OA
ATOM      4  O   UNL     1      43.182 -16.302 -16.095  0.00  0.00    -0.065 OA
ENDROOT
BRANCH   1   5
ATOM      5  C   UNL     1      41.797 -15.339 -18.067  0.00  0.00    +0.130 C 
ATOM      6  C   UNL     1      41.179 -14.157 -18.018  0.00  0.00    +0.022 C 
ENDBRANCH   1   5
TORSDOF 1
ENDMDL
MODEL 5
REMARK VINA RESULT:      -4.1     15.130     15.559
REMARK  Name = 62474
REMARK  1 active torsions:
REMARK  status: ('A' for Active; 'I' for Inactive)
REMARK    1  A    between atoms: S_1  and  C_5
REMARK                            x       y       z     vdW  Elec       q    Type
REMARK                         _______ _______ _______ _____ _____    ______ ____
ROOT
ATOM      1  S   UNL     1      41.929 -16.401 -16.836  0.00  0.00    +0.043 S 
ATOM      2  O   UNL     1      40.736 -15.779 -15.913  0.00  0.00    -0.065 OA
ATOM      3  O   UNL     1      43.184 -16.204 -16.130  0.00  0.00    -0.065 OA
ATOM      4  O   UNL     1      41.520 -17.729 -17.257  0.00  0.00    -0.065 OA
ENDROOT
BRANCH   1   5
ATOM      5  C   UNL     1      41.843 -15.322 -18.171  0.00  0.00    +0.130 C 
ATOM      6  C   UNL     1      41.185 -14.175 -17.998  0.00  0.00    +0.022 C 
ENDBRANCH   1   5
TORSDOF 1
ENDMDL
MODEL 6
REMARK VINA RESULT:      -4.1     15.151     15.606
REMARK  Name = 62474
REMARK  1 active torsions:
REMARK  status: ('A' for Active; 'I' for Inactive)
REMARK    1  A    between atoms: S_1  and  C_5
REMARK                            x       y       z     vdW  Elec       q    Type
REMARK                         _______ _______ _______ _____ _____    ______ ____
ROOT
ATOM      1  S   UNL     1      41.810 -16.397 -16.737  0.00  0.00    +0.043 S 
ATOM      2  O   UNL     1      43.305 -16.061 -16.176  0.00  0.00    -0.065 OA
ATOM      3  O   UNL     1      41.795 -17.789 -17.155  0.00  0.00    -0.065 OA
ATOM      4  O   UNL     1      40.848 -15.909 -15.764  0.00  0.00    -0.065 OA
ENDROOT
BRANCH   1   5
ATOM      5  C   UNL     1      41.793 -15.380 -18.121  0.00  0.00    +0.130 C 
ATOM      6  C   UNL     1      41.228 -14.177 -17.999  0.00  0.00    +0.022 C 
ENDBRANCH   1   5
TORSDOF 1
ENDMDL
MODEL 7
REMARK VINA RESULT:      -4.0      9.246      9.469
REMARK  Name = 62474
REMARK  1 active torsions:
REMARK  status: ('A' for Active; 'I' for Inactive)
REMARK    1  A    between atoms: S_1  and  C_5
REMARK                            x       y       z     vdW  Elec       q    Type
REMARK                         _______ _______ _______ _____ _____    ______ ____
ROOT
ATOM      1  S   UNL     1      36.117 -24.236 -11.009  0.00  0.00    +0.043 S 
ATOM      2  O   UNL     1      36.748 -25.635 -11.563  0.00  0.00    -0.065 OA
ATOM      3  O   UNL     1      35.319 -24.544  -9.834  0.00  0.00    -0.065 OA
ATOM      4  O   UNL     1      37.191 -23.260 -10.936  0.00  0.00    -0.065 OA
ENDROOT
BRANCH   1   5
ATOM      5  C   UNL     1      35.082 -23.854 -12.326  0.00  0.00    +0.130 C 
ATOM      6  C   UNL     1      35.359 -24.402 -13.510  0.00  0.00    +0.022 C 
ENDBRANCH   1   5
TORSDOF 1
ENDMDL
MODEL 8
REMARK VINA RESULT:      -4.0      9.719     10.380
REMARK  Name = 62474
REMARK  1 active torsions:
REMARK  status: ('A' for Active; 'I' for Inactive)
REMARK    1  A    between atoms: S_1  and  C_5
REMARK                            x       y       z     vdW  Elec       q    Type
REMARK                         _______ _______ _______ _____ _____    ______ ____
ROOT
ATOM      1  S   UNL     1      37.266 -23.591 -11.843  0.00  0.00    +0.043 S 
ATOM      2  O   UNL     1      36.618 -23.964 -10.393  0.00  0.00    -0.065 OA
ATOM      3  O   UNL     1      36.180 -23.211 -12.730  0.00  0.00    -0.065 OA
ATOM      4  O   UNL     1      38.381 -22.689 -11.615  0.00  0.00    -0.065 OA
ENDROOT
BRANCH   1   5
ATOM      5  C   UNL     1      37.861 -25.139 -12.292  0.00  0.00    +0.130 C 
ATOM      6  C   UNL     1      38.788 -25.192 -13.250  0.00  0.00    +0.022 C 
ENDBRANCH   1   5
TORSDOF 1
ENDMDL
MODEL 9
REMARK VINA RESULT:      -3.9     14.946     15.633
REMARK  Name = 62474
REMARK  1 active torsions:
REMARK  status: ('A' for Active; 'I' for Inactive)
REMARK    1  A    between atoms: S_1  and  C_5
REMARK                            x       y       z     vdW  Elec       q    Type
REMARK                         _______ _______ _______ _____ _____    ______ ____
ROOT
ATOM      1  S   UNL     1      41.574 -15.599 -16.188  0.00  0.00    +0.043 S 
ATOM      2  O   UNL     1      41.256 -15.269 -17.753  0.00  0.00    -0.065 OA
ATOM      3  O   UNL     1      40.465 -16.377 -15.664  0.00  0.00    -0.065 OA
ATOM      4  O   UNL     1      42.934 -16.105 -16.106  0.00  0.00    -0.065 OA
ENDROOT
BRANCH   1   5
ATOM      5  C   UNL     1      41.514 -14.006 -15.547  0.00  0.00    +0.130 C 
ATOM      6  C   UNL     1      40.773 -13.805 -14.456  0.00  0.00    +0.022 C 
ENDBRANCH   1   5
TORSDOF 1
ENDMDL
