MODEL 1
REMARK VINA RESULT:      -8.8      0.000      0.000
REMARK  Name = 11962412
REMARK  5 active torsions:
REMARK  status: ('A' for Active; 'I' for Inactive)
REMARK    1  A    between atoms: C_1  and  C_3
REMARK    2  A    between atoms: C_1  and  O_9
REMARK    3  A    between atoms: C_1  and  C_15
REMARK    4  A    between atoms: O_9  and  C_12
REMARK    5  A    between atoms: C_15  and  N_16
REMARK                            x       y       z     vdW  Elec       q    Type
REMARK                         _______ _______ _______ _____ _____    ______ ____
ROOT
ATOM      1  C   UNL     1      34.959 -18.288 -21.470  0.00  0.00    +0.217 C 
ENDROOT
BRANCH   1   3
ATOM      2 CL   UNL     1      32.360 -19.721 -20.637  0.00  0.00    -0.082 Cl
ATOM      3  C   UNL     1      35.080 -19.573 -20.717  0.00  0.00    +0.030 C 
ATOM      4  C   UNL     1      33.956 -20.288 -20.302  0.00  0.00    +0.057 C 
ATOM      5  C   UNL     1      36.358 -20.056 -20.434  0.00  0.00    +0.000 C 
ATOM      6  C   UNL     1      34.110 -21.484 -19.604  0.00  0.00    +0.011 C 
ATOM      7  C   UNL     1      36.511 -21.254 -19.735  0.00  0.00    -0.000 C 
ATOM      8  C   UNL     1      35.387 -21.968 -19.319  0.00  0.00    +0.001 C 
ENDBRANCH   1   3
BRANCH   1   9
ATOM      9  O   UNL     1      35.381 -17.206 -20.629  0.00  0.00    -0.432 OA
BRANCH   9  12
ATOM     10  O   UNL     1      34.956 -14.963 -20.329  0.00  0.00    -0.227 OA
ATOM     11  N   UNL     1      33.358 -16.390 -21.164  0.00  0.00    -0.295 N 
ATOM     12  C   UNL     1      34.603 -16.086 -20.674  0.00  0.00    +0.399 C 
ATOM     13  H   UNL     1      33.142 -17.315 -21.422  0.00  0.00    +0.148 HD
ATOM     14  H   UNL     1      32.679 -15.682 -21.257  0.00  0.00    +0.148 HD
ENDBRANCH   9  12
ENDBRANCH   1   9
BRANCH   1  15
ATOM     15  C   UNL     1      35.794 -18.239 -22.765  0.00  0.00    +0.188 C 
BRANCH  15  16
ATOM     16  N   UNL     1      35.075 -17.670 -23.898  0.00  0.00    -0.109 N 
ATOM     17  N   UNL     1      34.962 -16.353 -24.056  0.00  0.00    -0.135 NA
ATOM     18  N   UNL     1      34.503 -18.447 -24.814  0.00  0.00    -0.054 NA
ATOM     19  N   UNL     1      33.957 -17.588 -25.666  0.00  0.00    -0.107 NA
ATOM     20  C   UNL     1      34.250 -16.347 -25.185  0.00  0.00    +0.242 C 
ENDBRANCH  15  16
ENDBRANCH   1  15
TORSDOF 5
ENDMDL
MODEL 2
REMARK VINA RESULT:      -8.5      1.288      1.740
REMARK  Name = 11962412
REMARK  5 active torsions:
REMARK  status: ('A' for Active; 'I' for Inactive)
REMARK    1  A    between atoms: C_1  and  C_3
REMARK    2  A    between atoms: C_1  and  O_9
REMARK    3  A    between atoms: C_1  and  C_15
REMARK    4  A    between atoms: O_9  and  C_12
REMARK    5  A    between atoms: C_15  and  N_16
REMARK                            x       y       z     vdW  Elec       q    Type
REMARK                         _______ _______ _______ _____ _____    ______ ____
ROOT
ATOM      1  C   UNL     1      34.522 -18.069 -21.615  0.00  0.00    +0.217 C 
ENDROOT
BRANCH   1   3
ATOM      2 CL   UNL     1      37.166 -19.418 -20.782  0.00  0.00    -0.082 Cl
ATOM      3  C   UNL     1      34.443 -19.368 -20.882  0.00  0.00    +0.030 C 
ATOM      4  C   UNL     1      35.589 -20.047 -20.467  0.00  0.00    +0.057 C 
ATOM      5  C   UNL     1      33.182 -19.901 -20.613  0.00  0.00    +0.000 C 
ATOM      6  C   UNL     1      35.474 -21.256 -19.784  0.00  0.00    +0.011 C 
ATOM      7  C   UNL     1      33.068 -21.111 -19.929  0.00  0.00    -0.000 C 
ATOM      8  C   UNL     1      34.214 -21.790 -19.515  0.00  0.00    +0.001 C 
ENDBRANCH   1   3
BRANCH   1   9
ATOM      9  O   UNL     1      35.163 -17.094 -20.781  0.00  0.00    -0.432 OA
BRANCH   9  12
ATOM     10  O   UNL     1      35.005 -14.858 -20.256  0.00  0.00    -0.227 OA
ATOM     11  N   UNL     1      33.191 -16.046 -21.021  0.00  0.00    -0.295 N 
ATOM     12  C   UNL     1      34.505 -15.906 -20.649  0.00  0.00    +0.399 C 
ATOM     13  H   UNL     1      32.856 -16.918 -21.329  0.00  0.00    +0.148 HD
ATOM     14  H   UNL     1      32.583 -15.271 -20.982  0.00  0.00    +0.148 HD
ENDBRANCH   9  12
ENDBRANCH   1   9
BRANCH   1  15
ATOM     15  C   UNL     1      35.300 -18.145 -22.944  0.00  0.00    +0.188 C 
BRANCH  15  16
ATOM     16  N   UNL     1      34.682 -17.384 -24.023  0.00  0.00    -0.109 N 
ATOM     17  N   UNL     1      34.490 -16.071 -23.922  0.00  0.00    -0.135 NA
ATOM     18  N   UNL     1      34.285 -17.976 -25.147  0.00  0.00    -0.054 NA
ATOM     19  N   UNL     1      33.783 -16.983 -25.870  0.00  0.00    -0.107 NA
ATOM     20  C   UNL     1      33.921 -15.859 -25.110  0.00  0.00    +0.242 C 
ENDBRANCH  15  16
ENDBRANCH   1  15
TORSDOF 5
ENDMDL
MODEL 3
REMARK VINA RESULT:      -8.4      9.737     11.103
REMARK  Name = 11962412
REMARK  5 active torsions:
REMARK  status: ('A' for Active; 'I' for Inactive)
REMARK    1  A    between atoms: C_1  and  C_3
REMARK    2  A    between atoms: C_1  and  O_9
REMARK    3  A    between atoms: C_1  and  C_15
REMARK    4  A    between atoms: O_9  and  C_12
REMARK    5  A    between atoms: C_15  and  N_16
REMARK                            x       y       z     vdW  Elec       q    Type
REMARK                         _______ _______ _______ _____ _____    ______ ____
ROOT
ATOM      1  C   UNL     1      36.262 -24.405 -13.275  0.00  0.00    +0.217 C 
ENDROOT
BRANCH   1   3
ATOM      2 CL   UNL     1      37.431 -23.062 -15.791  0.00  0.00    -0.082 Cl
ATOM      3  C   UNL     1      35.311 -23.984 -14.348  0.00  0.00    +0.030 C 
ATOM      4  C   UNL     1      35.754 -23.370 -15.520  0.00  0.00    +0.057 C 
ATOM      5  C   UNL     1      33.950 -24.221 -14.157  0.00  0.00    +0.000 C 
ATOM      6  C   UNL     1      34.836 -22.993 -16.499  0.00  0.00    +0.011 C 
ATOM      7  C   UNL     1      33.032 -23.844 -15.137  0.00  0.00    -0.000 C 
ATOM      8  C   UNL     1      33.475 -23.229 -16.308  0.00  0.00    +0.001 C 
ENDBRANCH   1   3
BRANCH   1   9
ATOM      9  O   UNL     1      35.598 -24.348 -12.005  0.00  0.00    -0.432 OA
BRANCH   9  12
ATOM     10  O   UNL     1      36.177 -24.156  -9.785  0.00  0.00    -0.227 OA
ATOM     11  N   UNL     1      37.330 -23.039 -11.431  0.00  0.00    -0.295 N 
ATOM     12  C   UNL     1      36.347 -23.878 -10.967  0.00  0.00    +0.399 C 
ATOM     13  H   UNL     1      37.410 -22.860 -12.396  0.00  0.00    +0.148 HD
ATOM     14  H   UNL     1      37.957 -22.618 -10.799  0.00  0.00    +0.148 HD
ENDBRANCH   9  12
ENDBRANCH   1   9
BRANCH   1  15
ATOM     15  C   UNL     1      36.822 -25.830 -13.458  0.00  0.00    +0.188 C 
BRANCH  15  16
ATOM     16  N   UNL     1      38.225 -25.856 -13.854  0.00  0.00    -0.109 N 
ATOM     17  N   UNL     1      39.085 -24.942 -13.414  0.00  0.00    -0.135 NA
ATOM     18  N   UNL     1      38.694 -26.794 -14.673  0.00  0.00    -0.054 NA
ATOM     19  N   UNL     1      39.980 -26.493 -14.799  0.00  0.00    -0.107 NA
ATOM     20  C   UNL     1      40.182 -25.383 -14.035  0.00  0.00    +0.242 C 
ENDBRANCH  15  16
ENDBRANCH   1  15
TORSDOF 5
ENDMDL
MODEL 4
REMARK VINA RESULT:      -8.2      2.227      3.462
REMARK  Name = 11962412
REMARK  5 active torsions:
REMARK  status: ('A' for Active; 'I' for Inactive)
REMARK    1  A    between atoms: C_1  and  C_3
REMARK    2  A    between atoms: C_1  and  O_9
REMARK    3  A    between atoms: C_1  and  C_15
REMARK    4  A    between atoms: O_9  and  C_12
REMARK    5  A    between atoms: C_15  and  N_16
REMARK                            x       y       z     vdW  Elec       q    Type
REMARK                         _______ _______ _______ _____ _____    ______ ____
ROOT
ATOM      1  C   UNL     1      34.975 -17.806 -21.880  0.00  0.00    +0.217 C 
ENDROOT
BRANCH   1   3
ATOM      2 CL   UNL     1      37.309 -19.499 -20.789  0.00  0.00    -0.082 Cl
ATOM      3  C   UNL     1      34.642 -19.043 -21.111  0.00  0.00    +0.030 C 
ATOM      4  C   UNL     1      35.635 -19.866 -20.581  0.00  0.00    +0.057 C 
ATOM      5  C   UNL     1      33.297 -19.364 -20.925  0.00  0.00    +0.000 C 
ATOM      6  C   UNL     1      35.284 -21.011 -19.867  0.00  0.00    +0.011 C 
ATOM      7  C   UNL     1      32.946 -20.510 -20.210  0.00  0.00    -0.000 C 
ATOM      8  C   UNL     1      33.940 -21.334 -19.682  0.00  0.00    +0.001 C 
ENDBRANCH   1   3
BRANCH   1   9
ATOM      9  O   UNL     1      34.112 -17.711 -23.021  0.00  0.00    -0.432 OA
BRANCH   9  12
ATOM     10  O   UNL     1      34.698 -19.100 -24.761  0.00  0.00    -0.227 OA
ATOM     11  N   UNL     1      35.265 -16.872 -24.756  0.00  0.00    -0.295 N 
ATOM     12  C   UNL     1      34.689 -17.998 -24.223  0.00  0.00    +0.399 C 
ATOM     13  H   UNL     1      35.219 -16.018 -24.270  0.00  0.00    +0.148 HD
ATOM     14  H   UNL     1      35.723 -16.919 -25.627  0.00  0.00    +0.148 HD
ENDBRANCH   9  12
ENDBRANCH   1   9
BRANCH   1  15
ATOM     15  C   UNL     1      34.835 -16.504 -21.065  0.00  0.00    +0.188 C 
BRANCH  15  16
ATOM     16  N   UNL     1      34.060 -15.474 -21.746  0.00  0.00    -0.109 N 
ATOM     17  N   UNL     1      34.631 -14.630 -22.601  0.00  0.00    -0.135 NA
ATOM     18  N   UNL     1      32.752 -15.341 -21.535  0.00  0.00    -0.054 NA
ATOM     19  N   UNL     1      32.406 -14.322 -22.312  0.00  0.00    -0.107 NA
ATOM     20  C   UNL     1      33.550 -13.920 -22.935  0.00  0.00    +0.242 C 
ENDBRANCH  15  16
ENDBRANCH   1  15
TORSDOF 5
ENDMDL
MODEL 5
REMARK VINA RESULT:      -8.0      9.099     10.772
REMARK  Name = 11962412
REMARK  5 active torsions:
REMARK  status: ('A' for Active; 'I' for Inactive)
REMARK    1  A    between atoms: C_1  and  C_3
REMARK    2  A    between atoms: C_1  and  O_9
REMARK    3  A    between atoms: C_1  and  C_15
REMARK    4  A    between atoms: O_9  and  C_12
REMARK    5  A    between atoms: C_15  and  N_16
REMARK                            x       y       z     vdW  Elec       q    Type
REMARK                         _______ _______ _______ _____ _____    ______ ____
ROOT
ATOM      1  C   UNL     1      35.429 -24.295 -14.721  0.00  0.00    +0.217 C 
ENDROOT
BRANCH   1   3
ATOM      2 CL   UNL     1      32.617 -24.561 -13.485  0.00  0.00    -0.082 Cl
ATOM      3  C   UNL     1      34.262 -23.830 -15.531  0.00  0.00    +0.030 C 
ATOM      4  C   UNL     1      32.956 -23.912 -15.049  0.00  0.00    +0.057 C 
ATOM      5  C   UNL     1      34.506 -23.300 -16.798  0.00  0.00    +0.000 C 
ATOM      6  C   UNL     1      31.894 -23.466 -15.834  0.00  0.00    +0.011 C 
ATOM      7  C   UNL     1      33.443 -22.853 -17.583  0.00  0.00    -0.000 C 
ATOM      8  C   UNL     1      32.137 -22.937 -17.101  0.00  0.00    +0.001 C 
ENDBRANCH   1   3
BRANCH   1   9
ATOM      9  O   UNL     1      36.343 -25.002 -15.570  0.00  0.00    -0.432 OA
BRANCH   9  12
ATOM     10  O   UNL     1      36.656 -27.217 -16.112  0.00  0.00    -0.227 OA
ATOM     11  N   UNL     1      36.501 -26.524 -13.926  0.00  0.00    -0.295 N 
ATOM     12  C   UNL     1      36.512 -26.325 -15.284  0.00  0.00    +0.399 C 
ATOM     13  H   UNL     1      36.381 -25.760 -13.317  0.00  0.00    +0.148 HD
ATOM     14  H   UNL     1      36.613 -27.431 -13.560  0.00  0.00    +0.148 HD
ENDBRANCH   9  12
ENDBRANCH   1   9
BRANCH   1  15
ATOM     15  C   UNL     1      36.204 -23.157 -14.027  0.00  0.00    +0.188 C 
BRANCH  15  16
ATOM     16  N   UNL     1      36.333 -23.337 -12.586  0.00  0.00    -0.109 N 
ATOM     17  N   UNL     1      35.568 -24.203 -11.926  0.00  0.00    -0.135 NA
ATOM     18  N   UNL     1      37.219 -22.640 -11.879  0.00  0.00    -0.054 NA
ATOM     19  N   UNL     1      37.043 -23.068 -10.635  0.00  0.00    -0.107 NA
ATOM     20  C   UNL     1      36.050 -24.001 -10.697  0.00  0.00    +0.242 C 
ENDBRANCH  15  16
ENDBRANCH   1  15
TORSDOF 5
ENDMDL
MODEL 6
REMARK VINA RESULT:      -8.0      3.137      5.811
REMARK  Name = 11962412
REMARK  5 active torsions:
REMARK  status: ('A' for Active; 'I' for Inactive)
REMARK    1  A    between atoms: C_1  and  C_3
REMARK    2  A    between atoms: C_1  and  O_9
REMARK    3  A    between atoms: C_1  and  C_15
REMARK    4  A    between atoms: O_9  and  C_12
REMARK    5  A    between atoms: C_15  and  N_16
REMARK                            x       y       z     vdW  Elec       q    Type
REMARK                         _______ _______ _______ _____ _____    ______ ____
ROOT
ATOM      1  C   UNL     1      34.257 -16.584 -22.658  0.00  0.00    +0.217 C 
ENDROOT
BRANCH   1   3
ATOM      2 CL   UNL     1      32.085 -15.877 -20.588  0.00  0.00    -0.082 Cl
ATOM      3  C   UNL     1      33.689 -15.203 -22.686  0.00  0.00    +0.030 C 
ATOM      4  C   UNL     1      32.703 -14.798 -21.785  0.00  0.00    +0.057 C 
ATOM      5  C   UNL     1      34.170 -14.308 -23.642  0.00  0.00    +0.000 C 
ATOM      6  C   UNL     1      32.199 -13.499 -21.841  0.00  0.00    +0.011 C 
ATOM      7  C   UNL     1      33.665 -13.009 -23.697  0.00  0.00    -0.000 C 
ATOM      8  C   UNL     1      32.679 -12.604 -22.797  0.00  0.00    +0.001 C 
ENDBRANCH   1   3
BRANCH   1   9
ATOM      9  O   UNL     1      35.047 -16.794 -23.837  0.00  0.00    -0.432 OA
BRANCH   9  12
ATOM     10  O   UNL     1      33.994 -17.366 -25.803  0.00  0.00    -0.227 OA
ATOM     11  N   UNL     1      34.697 -18.963 -24.306  0.00  0.00    -0.295 N 
ATOM     12  C   UNL     1      34.531 -17.673 -24.744  0.00  0.00    +0.399 C 
ATOM     13  H   UNL     1      35.139 -19.137 -23.444  0.00  0.00    +0.148 HD
ATOM     14  H   UNL     1      34.375 -19.715 -24.855  0.00  0.00    +0.148 HD
ENDBRANCH   9  12
ENDBRANCH   1   9
BRANCH   1  15
ATOM     15  C   UNL     1      35.145 -16.872 -21.431  0.00  0.00    +0.188 C 
BRANCH  15  16
ATOM     16  N   UNL     1      35.119 -18.268 -21.011  0.00  0.00    -0.109 N 
ATOM     17  N   UNL     1      34.009 -18.997 -21.098  0.00  0.00    -0.135 NA
ATOM     18  N   UNL     1      36.205 -18.863 -20.524  0.00  0.00    -0.054 NA
ATOM     19  N   UNL     1      35.801 -20.099 -20.258  0.00  0.00    -0.107 NA
ATOM     20  C   UNL     1      34.485 -20.146 -20.612  0.00  0.00    +0.242 C 
ENDBRANCH  15  16
ENDBRANCH   1  15
TORSDOF 5
ENDMDL
MODEL 7
REMARK VINA RESULT:      -7.9      7.671      9.535
REMARK  Name = 11962412
REMARK  5 active torsions:
REMARK  status: ('A' for Active; 'I' for Inactive)
REMARK    1  A    between atoms: C_1  and  C_3
REMARK    2  A    between atoms: C_1  and  O_9
REMARK    3  A    between atoms: C_1  and  C_15
REMARK    4  A    between atoms: O_9  and  C_12
REMARK    5  A    between atoms: C_15  and  N_16
REMARK                            x       y       z     vdW  Elec       q    Type
REMARK                         _______ _______ _______ _____ _____    ______ ____
ROOT
ATOM      1  C   UNL     1      34.545 -23.766 -15.479  0.00  0.00    +0.217 C 
ENDROOT
BRANCH   1   3
ATOM      2 CL   UNL     1      33.118 -23.025 -18.109  0.00  0.00    -0.082 Cl
ATOM      3  C   UNL     1      33.082 -23.464 -15.420  0.00  0.00    +0.030 C 
ATOM      4  C   UNL     1      32.358 -23.122 -16.562  0.00  0.00    +0.057 C 
ATOM      5  C   UNL     1      32.442 -23.535 -14.183  0.00  0.00    +0.000 C 
ATOM      6  C   UNL     1      30.995 -22.849 -16.467  0.00  0.00    +0.011 C 
ATOM      7  C   UNL     1      31.077 -23.263 -14.088  0.00  0.00    -0.000 C 
ATOM      8  C   UNL     1      30.353 -22.918 -15.230  0.00  0.00    +0.001 C 
ENDBRANCH   1   3
BRANCH   1   9
ATOM      9  O   UNL     1      35.283 -22.537 -15.453  0.00  0.00    -0.432 OA
BRANCH   9  12
ATOM     10  O   UNL     1      36.193 -22.330 -17.557  0.00  0.00    -0.227 OA
ATOM     11  N   UNL     1      37.516 -22.506 -15.686  0.00  0.00    -0.295 N 
ATOM     12  C   UNL     1      36.313 -22.447 -16.343  0.00  0.00    +0.399 C 
ATOM     13  H   UNL     1      37.539 -22.600 -14.706  0.00  0.00    +0.148 HD
ATOM     14  H   UNL     1      38.358 -22.454 -16.195  0.00  0.00    +0.148 HD
ENDBRANCH   9  12
ENDBRANCH   1   9
BRANCH   1  15
ATOM     15  C   UNL     1      35.049 -24.651 -14.322  0.00  0.00    +0.188 C 
BRANCH  15  16
ATOM     16  N   UNL     1      36.171 -25.505 -14.691  0.00  0.00    -0.109 N 
ATOM     17  N   UNL     1      37.360 -25.377 -14.108  0.00  0.00    -0.135 NA
ATOM     18  N   UNL     1      36.047 -26.443 -15.627  0.00  0.00    -0.054 NA
ATOM     19  N   UNL     1      37.251 -26.999 -15.685  0.00  0.00    -0.107 NA
ATOM     20  C   UNL     1      38.011 -26.340 -14.765  0.00  0.00    +0.242 C 
ENDBRANCH  15  16
ENDBRANCH   1  15
TORSDOF 5
ENDMDL
MODEL 8
REMARK VINA RESULT:      -7.8      8.118      9.795
REMARK  Name = 11962412
REMARK  5 active torsions:
REMARK  status: ('A' for Active; 'I' for Inactive)
REMARK    1  A    between atoms: C_1  and  C_3
REMARK    2  A    between atoms: C_1  and  O_9
REMARK    3  A    between atoms: C_1  and  C_15
REMARK    4  A    between atoms: O_9  and  C_12
REMARK    5  A    between atoms: C_15  and  N_16
REMARK                            x       y       z     vdW  Elec       q    Type
REMARK                         _______ _______ _______ _____ _____    ______ ____
ROOT
ATOM      1  C   UNL     1      35.021 -23.733 -15.360  0.00  0.00    +0.217 C 
ENDROOT
BRANCH   1   3
ATOM      2 CL   UNL     1      37.647 -22.313 -16.127  0.00  0.00    -0.082 Cl
ATOM      3  C   UNL     1      35.073 -23.020 -16.672  0.00  0.00    +0.030 C 
ATOM      4  C   UNL     1      36.221 -22.353 -17.099  0.00  0.00    +0.057 C 
ATOM      5  C   UNL     1      33.935 -23.036 -17.479  0.00  0.00    +0.000 C 
ATOM      6  C   UNL     1      36.230 -21.700 -18.330  0.00  0.00    +0.011 C 
ATOM      7  C   UNL     1      33.945 -22.383 -18.712  0.00  0.00    -0.000 C 
ATOM      8  C   UNL     1      35.093 -21.715 -19.137  0.00  0.00    +0.001 C 
ENDBRANCH   1   3
BRANCH   1   9
ATOM      9  O   UNL     1      33.747 -23.501 -14.745  0.00  0.00    -0.432 OA
BRANCH   9  12
ATOM     10  O   UNL     1      32.682 -24.715 -13.104  0.00  0.00    -0.227 OA
ATOM     11  N   UNL     1      34.638 -23.582 -12.684  0.00  0.00    -0.295 N 
ATOM     12  C   UNL     1      33.602 -23.998 -13.483  0.00  0.00    +0.399 C 
ATOM     13  H   UNL     1      35.345 -23.006 -13.055  0.00  0.00    +0.148 HD
ATOM     14  H   UNL     1      34.674 -23.860 -11.740  0.00  0.00    +0.148 HD
ENDBRANCH   9  12
ENDBRANCH   1   9
BRANCH   1  15
ATOM     15  C   UNL     1      35.229 -25.258 -15.467  0.00  0.00    +0.188 C 
BRANCH  15  16
ATOM     16  N   UNL     1      36.528 -25.702 -14.978  0.00  0.00    -0.109 N 
ATOM     17  N   UNL     1      37.146 -25.070 -13.983  0.00  0.00    -0.135 NA
ATOM     18  N   UNL     1      37.144 -26.754 -15.511  0.00  0.00    -0.054 NA
ATOM     19  N   UNL     1      38.274 -26.847 -14.821  0.00  0.00    -0.107 NA
ATOM     20  C   UNL     1      38.244 -25.827 -13.917  0.00  0.00    +0.242 C 
ENDBRANCH  15  16
ENDBRANCH   1  15
TORSDOF 5
ENDMDL
MODEL 9
REMARK VINA RESULT:      -7.6      9.391     10.760
REMARK  Name = 11962412
REMARK  5 active torsions:
REMARK  status: ('A' for Active; 'I' for Inactive)
REMARK    1  A    between atoms: C_1  and  C_3
REMARK    2  A    between atoms: C_1  and  O_9
REMARK    3  A    between atoms: C_1  and  C_15
REMARK    4  A    between atoms: O_9  and  C_12
REMARK    5  A    between atoms: C_15  and  N_16
REMARK                            x       y       z     vdW  Elec       q    Type
REMARK                         _______ _______ _______ _____ _____    ______ ____
ROOT
ATOM      1  C   UNL     1      35.441 -24.514 -14.564  0.00  0.00    +0.217 C 
ENDROOT
BRANCH   1   3
ATOM      2 CL   UNL     1      34.578 -22.951 -17.077  0.00  0.00    -0.082 Cl
ATOM      3  C   UNL     1      33.992 -24.183 -14.718  0.00  0.00    +0.030 C 
ATOM      4  C   UNL     1      33.515 -23.480 -15.824  0.00  0.00    +0.057 C 
ATOM      5  C   UNL     1      33.109 -24.599 -13.721  0.00  0.00    +0.000 C 
ATOM      6  C   UNL     1      32.155 -23.191 -15.932  0.00  0.00    +0.011 C 
ATOM      7  C   UNL     1      31.748 -24.310 -13.831  0.00  0.00    -0.000 C 
ATOM      8  C   UNL     1      31.271 -23.606 -14.936  0.00  0.00    +0.001 C 
ENDBRANCH   1   3
BRANCH   1   9
ATOM      9  O   UNL     1      35.875 -25.276 -15.698  0.00  0.00    -0.432 OA
BRANCH   9  12
ATOM     10  O   UNL     1      36.701 -27.352 -16.255  0.00  0.00    -0.227 OA
ATOM     11  N   UNL     1      36.471 -26.696 -14.063  0.00  0.00    -0.295 N 
ATOM     12  C   UNL     1      36.377 -26.514 -15.421  0.00  0.00    +0.399 C 
ATOM     13  H   UNL     1      36.193 -25.979 -13.450  0.00  0.00    +0.148 HD
ATOM     14  H   UNL     1      36.818 -27.545 -13.704  0.00  0.00    +0.148 HD
ENDBRANCH   9  12
ENDBRANCH   1   9
BRANCH   1  15
ATOM     15  C   UNL     1      36.356 -23.279 -14.440  0.00  0.00    +0.188 C 
BRANCH  15  16
ATOM     16  N   UNL     1      37.303 -23.367 -13.336  0.00  0.00    -0.109 N 
ATOM     17  N   UNL     1      38.194 -24.353 -13.265  0.00  0.00    -0.135 NA
ATOM     18  N   UNL     1      37.309 -22.466 -12.357  0.00  0.00    -0.054 NA
ATOM     19  N   UNL     1      38.286 -22.872 -11.555  0.00  0.00    -0.107 NA
ATOM     20  C   UNL     1      38.794 -24.001 -12.125  0.00  0.00    +0.242 C 
ENDBRANCH  15  16
ENDBRANCH   1  15
TORSDOF 5
ENDMDL
