MODEL 1
REMARK VINA RESULT:     -10.3      0.000      0.000
REMARK  Name = 9817550
REMARK  1 active torsions:
REMARK  status: ('A' for Active; 'I' for Inactive)
REMARK    1  A    between atoms: C_8  and  C_22
REMARK                            x       y       z     vdW  Elec       q    Type
REMARK                         _______ _______ _______ _____ _____    ______ ____
ROOT
ATOM      1  O   UNL     1      36.563 -22.492 -17.552  0.00  0.00    -0.286 OA
ATOM      2  N   UNL     1      32.234 -23.392 -16.198  0.00  0.00    -0.268 N 
ATOM      3  N   UNL     1      32.559 -22.355 -18.395  0.00  0.00    -0.298 N 
ATOM      4  N   UNL     1      30.355 -24.111 -14.972  0.00  0.00    -0.214 NA
ATOM      5  N   UNL     1      30.006 -22.802 -16.875  0.00  0.00    -0.328 N 
ATOM      6  C   UNL     1      34.333 -22.959 -16.898  0.00  0.00    +0.073 A 
ATOM      7  C   UNL     1      32.991 -22.866 -17.223  0.00  0.00    +0.122 A 
ATOM      8  C   UNL     1      34.418 -23.631 -15.662  0.00  0.00    +0.053 A 
ATOM      9  C   UNL     1      33.127 -23.925 -15.274  0.00  0.00    +0.072 A 
ATOM     10  C   UNL     1      30.833 -23.454 -16.000  0.00  0.00    +0.200 C 
ATOM     11  C   UNL     1      35.363 -22.452 -17.791  0.00  0.00    +0.200 C 
ATOM     12  C   UNL     1      32.572 -24.617 -14.179  0.00  0.00    +0.038 C 
ATOM     13  C   UNL     1      34.824 -21.868 -19.067  0.00  0.00    +0.058 C 
ATOM     14  C   UNL     1      33.496 -21.864 -19.281  0.00  0.00    +0.066 C 
ATOM     15  C   UNL     1      31.238 -24.689 -14.094  0.00  0.00    +0.103 C 
ATOM     16  H   UNL     1      31.599 -22.331 -18.612  0.00  0.00    +0.154 HD
ATOM     17  H   UNL     1      30.385 -22.314 -17.642  0.00  0.00    +0.145 HD
ATOM     18  H   UNL     1      29.031 -22.821 -16.738  0.00  0.00    +0.145 HD
ENDROOT
BRANCH   8  22
ATOM     19  N   UNL     1      36.038 -25.266 -15.139  0.00  0.00    -0.338 NA
ATOM     20  N   UNL     1      37.774 -24.850 -13.520  0.00  0.00    -0.170 NA
ATOM     21  N   UNL     1      37.635 -26.909 -14.637  0.00  0.00    -0.293 N 
ATOM     22  C   UNL     1      35.577 -24.020 -14.907  0.00  0.00    +0.147 C 
ATOM     23  C   UNL     1      36.151 -23.142 -14.011  0.00  0.00    +0.055 C 
ATOM     24  C   UNL     1      37.259 -23.617 -13.339  0.00  0.00    +0.114 C 
ATOM     25  C   UNL     1      37.124 -25.611 -14.422  0.00  0.00    +0.141 C 
ATOM     26  H   UNL     1      37.198 -27.509 -15.285  0.00  0.00    +0.155 HD
ATOM     27  H   UNL     1      38.428 -27.214 -14.141  0.00  0.00    +0.155 HD
ENDBRANCH   8  22
TORSDOF 1
ENDMDL
MODEL 2
REMARK VINA RESULT:     -10.2      0.888      1.490
REMARK  Name = 9817550
REMARK  1 active torsions:
REMARK  status: ('A' for Active; 'I' for Inactive)
REMARK    1  A    between atoms: C_8  and  C_22
REMARK                            x       y       z     vdW  Elec       q    Type
REMARK                         _______ _______ _______ _____ _____    ______ ____
ROOT
ATOM      1  O   UNL     1      36.493 -22.639 -17.226  0.00  0.00    -0.286 OA
ATOM      2  N   UNL     1      32.104 -23.471 -16.033  0.00  0.00    -0.268 N 
ATOM      3  N   UNL     1      32.527 -22.454 -18.222  0.00  0.00    -0.298 N 
ATOM      4  N   UNL     1      30.169 -24.156 -14.876  0.00  0.00    -0.214 NA
ATOM      5  N   UNL     1      29.912 -22.855 -16.799  0.00  0.00    -0.328 N 
ATOM      6  C   UNL     1      34.234 -23.071 -16.655  0.00  0.00    +0.073 A 
ATOM      7  C   UNL     1      32.907 -22.963 -17.031  0.00  0.00    +0.122 A 
ATOM      8  C   UNL     1      34.263 -23.736 -15.412  0.00  0.00    +0.053 A 
ATOM      9  C   UNL     1      32.954 -24.009 -15.072  0.00  0.00    +0.072 A 
ATOM     10  C   UNL     1      30.696 -23.512 -15.889  0.00  0.00    +0.200 C 
ATOM     11  C   UNL     1      35.304 -22.584 -17.511  0.00  0.00    +0.200 C 
ATOM     12  C   UNL     1      32.348 -24.686 -13.995  0.00  0.00    +0.038 C 
ATOM     13  C   UNL     1      34.822 -22.002 -18.810  0.00  0.00    +0.058 C 
ATOM     14  C   UNL     1      33.504 -21.981 -19.075  0.00  0.00    +0.066 C 
ATOM     15  C   UNL     1      31.010 -24.739 -13.960  0.00  0.00    +0.103 C 
ATOM     16  H   UNL     1      31.576 -22.418 -18.476  0.00  0.00    +0.154 HD
ATOM     17  H   UNL     1      30.327 -22.378 -17.553  0.00  0.00    +0.145 HD
ATOM     18  H   UNL     1      28.932 -22.860 -16.700  0.00  0.00    +0.145 HD
ENDROOT
BRANCH   8  22
ATOM     19  N   UNL     1      35.718 -23.295 -13.608  0.00  0.00    -0.338 NA
ATOM     20  N   UNL     1      37.508 -24.804 -13.032  0.00  0.00    -0.170 NA
ATOM     21  N   UNL     1      37.152 -22.832 -11.810  0.00  0.00    -0.293 N 
ATOM     22  C   UNL     1      35.387 -24.135 -14.610  0.00  0.00    +0.147 C 
ATOM     23  C   UNL     1      36.055 -25.310 -14.883  0.00  0.00    +0.055 C 
ATOM     24  C   UNL     1      37.119 -25.596 -14.052  0.00  0.00    +0.114 C 
ATOM     25  C   UNL     1      36.774 -23.686 -12.869  0.00  0.00    +0.141 C 
ATOM     26  H   UNL     1      36.651 -22.000 -11.645  0.00  0.00    +0.155 HD
ATOM     27  H   UNL     1      37.916 -23.068 -11.237  0.00  0.00    +0.155 HD
ENDBRANCH   8  22
TORSDOF 1
ENDMDL
MODEL 3
REMARK VINA RESULT:     -10.0      2.008      3.825
REMARK  Name = 9817550
REMARK  1 active torsions:
REMARK  status: ('A' for Active; 'I' for Inactive)
REMARK    1  A    between atoms: C_8  and  C_22
REMARK                            x       y       z     vdW  Elec       q    Type
REMARK                         _______ _______ _______ _____ _____    ______ ____
ROOT
ATOM      1  O   UNL     1      32.293 -25.022 -13.068  0.00  0.00    -0.286 OA
ATOM      2  N   UNL     1      33.977 -22.979 -16.860  0.00  0.00    -0.268 N 
ATOM      3  N   UNL     1      31.549 -23.270 -16.693  0.00  0.00    -0.298 N 
ATOM      4  N   UNL     1      35.420 -22.021 -18.457  0.00  0.00    -0.214 NA
ATOM      5  N   UNL     1      33.187 -22.375 -19.047  0.00  0.00    -0.328 N 
ATOM      6  C   UNL     1      33.121 -23.952 -15.015  0.00  0.00    +0.073 A 
ATOM      7  C   UNL     1      32.816 -23.391 -16.242  0.00  0.00    +0.122 A 
ATOM      8  C   UNL     1      34.512 -23.819 -14.829  0.00  0.00    +0.053 A 
ATOM      9  C   UNL     1      35.007 -23.183 -15.948  0.00  0.00    +0.072 A 
ATOM     10  C   UNL     1      34.216 -22.435 -18.145  0.00  0.00    +0.200 C 
ATOM     11  C   UNL     1      32.083 -24.500 -14.156  0.00  0.00    +0.200 C 
ATOM     12  C   UNL     1      36.288 -22.732 -16.325  0.00  0.00    +0.038 C 
ATOM     13  C   UNL     1      30.697 -24.365 -14.720  0.00  0.00    +0.058 C 
ATOM     14  C   UNL     1      30.525 -23.770 -15.914  0.00  0.00    +0.066 C 
ATOM     15  C   UNL     1      36.424 -22.168 -17.532  0.00  0.00    +0.103 C 
ATOM     16  H   UNL     1      31.360 -22.837 -17.556  0.00  0.00    +0.154 HD
ATOM     17  H   UNL     1      32.290 -22.690 -18.792  0.00  0.00    +0.145 HD
ATOM     18  H   UNL     1      33.345 -22.016 -19.950  0.00  0.00    +0.145 HD
ENDROOT
BRANCH   8  22
ATOM     19  N   UNL     1      36.197 -25.205 -13.930  0.00  0.00    -0.338 NA
ATOM     20  N   UNL     1      36.923 -24.988 -11.642  0.00  0.00    -0.170 NA
ATOM     21  N   UNL     1      37.873 -26.597 -13.061  0.00  0.00    -0.293 N 
ATOM     22  C   UNL     1      35.328 -24.197 -13.709  0.00  0.00    +0.147 C 
ATOM     23  C   UNL     1      35.200 -23.543 -12.501  0.00  0.00    +0.055 C 
ATOM     24  C   UNL     1      36.032 -23.987 -11.492  0.00  0.00    +0.114 C 
ATOM     25  C   UNL     1      36.952 -25.545 -12.868  0.00  0.00    +0.141 C 
ATOM     26  H   UNL     1      37.937 -27.041 -13.938  0.00  0.00    +0.155 HD
ATOM     27  H   UNL     1      38.452 -26.887 -12.320  0.00  0.00    +0.155 HD
ENDBRANCH   8  22
TORSDOF 1
ENDMDL
MODEL 4
REMARK VINA RESULT:      -9.1      2.197      5.904
REMARK  Name = 9817550
REMARK  1 active torsions:
REMARK  status: ('A' for Active; 'I' for Inactive)
REMARK    1  A    between atoms: C_8  and  C_22
REMARK                            x       y       z     vdW  Elec       q    Type
REMARK                         _______ _______ _______ _____ _____    ______ ____
ROOT
ATOM      1  O   UNL     1      32.587 -24.222 -12.899  0.00  0.00    -0.286 OA
ATOM      2  N   UNL     1      34.960 -22.817 -16.611  0.00  0.00    -0.268 N 
ATOM      3  N   UNL     1      36.219 -23.355 -14.578  0.00  0.00    -0.298 N 
ATOM      4  N   UNL     1      35.549 -22.102 -18.777  0.00  0.00    -0.214 NA
ATOM      5  N   UNL     1      37.184 -22.057 -17.110  0.00  0.00    -0.328 N 
ATOM      6  C   UNL     1      33.836 -23.526 -14.790  0.00  0.00    +0.073 A 
ATOM      7  C   UNL     1      35.086 -23.223 -15.300  0.00  0.00    +0.122 A 
ATOM      8  C   UNL     1      32.908 -23.374 -15.840  0.00  0.00    +0.053 A 
ATOM      9  C   UNL     1      33.622 -22.983 -16.953  0.00  0.00    +0.072 A 
ATOM     10  C   UNL     1      35.910 -22.322 -17.537  0.00  0.00    +0.200 C 
ATOM     11  C   UNL     1      33.667 -23.956 -13.410  0.00  0.00    +0.200 C 
ATOM     12  C   UNL     1      33.273 -22.729 -18.295  0.00  0.00    +0.038 C 
ATOM     13  C   UNL     1      34.957 -24.057 -12.646  0.00  0.00    +0.058 C 
ATOM     14  C   UNL     1      36.115 -23.764 -13.264  0.00  0.00    +0.066 C 
ATOM     15  C   UNL     1      34.240 -22.324 -19.129  0.00  0.00    +0.103 C 
ATOM     16  H   UNL     1      37.098 -23.163 -14.978  0.00  0.00    +0.154 HD
ATOM     17  H   UNL     1      37.436 -22.230 -16.174  0.00  0.00    +0.145 HD
ATOM     18  H   UNL     1      37.849 -21.695 -17.739  0.00  0.00    +0.145 HD
ENDROOT
BRANCH   8  22
ATOM     19  N   UNL     1      31.074 -24.728 -15.230  0.00  0.00    -0.338 NA
ATOM     20  N   UNL     1      28.814 -24.134 -15.822  0.00  0.00    -0.170 NA
ATOM     21  N   UNL     1      29.269 -26.093 -14.612  0.00  0.00    -0.293 N 
ATOM     22  C   UNL     1      31.490 -23.606 -15.852  0.00  0.00    +0.147 C 
ATOM     23  C   UNL     1      30.644 -22.710 -16.472  0.00  0.00    +0.055 C 
ATOM     24  C   UNL     1      29.301 -23.030 -16.425  0.00  0.00    +0.114 C 
ATOM     25  C   UNL     1      29.743 -24.928 -15.253  0.00  0.00    +0.141 C 
ATOM     26  H   UNL     1      29.904 -26.710 -14.180  0.00  0.00    +0.155 HD
ATOM     27  H   UNL     1      28.305 -26.289 -14.597  0.00  0.00    +0.155 HD
ENDBRANCH   8  22
TORSDOF 1
ENDMDL
MODEL 5
REMARK VINA RESULT:      -9.0      1.818      5.100
REMARK  Name = 9817550
REMARK  1 active torsions:
REMARK  status: ('A' for Active; 'I' for Inactive)
REMARK    1  A    between atoms: C_8  and  C_22
REMARK                            x       y       z     vdW  Elec       q    Type
REMARK                         _______ _______ _______ _____ _____    ______ ____
ROOT
ATOM      1  O   UNL     1      32.019 -22.820 -18.046  0.00  0.00    -0.286 OA
ATOM      2  N   UNL     1      36.002 -23.091 -15.712  0.00  0.00    -0.268 N 
ATOM      3  N   UNL     1      36.061 -22.174 -17.984  0.00  0.00    -0.298 N 
ATOM      4  N   UNL     1      37.616 -23.459 -14.036  0.00  0.00    -0.214 NA
ATOM      5  N   UNL     1      38.350 -22.923 -16.188  0.00  0.00    -0.328 N 
ATOM      6  C   UNL     1      34.074 -22.925 -16.870  0.00  0.00    +0.073 A 
ATOM      7  C   UNL     1      35.440 -22.709 -16.911  0.00  0.00    +0.122 A 
ATOM      8  C   UNL     1      33.763 -23.389 -15.576  0.00  0.00    +0.053 A 
ATOM      9  C   UNL     1      34.949 -23.441 -14.872  0.00  0.00    +0.072 A 
ATOM     10  C   UNL     1      37.349 -23.155 -15.283  0.00  0.00    +0.200 C 
ATOM     11  C   UNL     1      33.229 -22.636 -18.018  0.00  0.00    +0.200 C 
ATOM     12  C   UNL     1      35.279 -23.768 -13.542  0.00  0.00    +0.038 C 
ATOM     13  C   UNL     1      33.976 -22.071 -19.193  0.00  0.00    +0.058 C 
ATOM     14  C   UNL     1      35.304 -21.877 -19.099  0.00  0.00    +0.066 C 
ATOM     15  C   UNL     1      36.571 -23.745 -13.192  0.00  0.00    +0.103 C 
ATOM     16  H   UNL     1      37.030 -22.002 -17.973  0.00  0.00    +0.154 HD
ATOM     17  H   UNL     1      38.129 -22.696 -17.120  0.00  0.00    +0.145 HD
ATOM     18  H   UNL     1      39.292 -22.983 -15.907  0.00  0.00    +0.145 HD
ENDROOT
BRANCH   8  22
ATOM     19  N   UNL     1      31.489 -22.850 -15.254  0.00  0.00    -0.338 NA
ATOM     20  N   UNL     1      30.029 -24.259 -13.951  0.00  0.00    -0.170 NA
ATOM     21  N   UNL     1      29.231 -22.290 -14.949  0.00  0.00    -0.293 N 
ATOM     22  C   UNL     1      32.489 -23.719 -15.001  0.00  0.00    +0.147 C 
ATOM     23  C   UNL     1      32.341 -24.863 -14.244  0.00  0.00    +0.055 C 
ATOM     24  C   UNL     1      31.075 -25.084 -13.739  0.00  0.00    +0.114 C 
ATOM     25  C   UNL     1      30.302 -23.177 -14.706  0.00  0.00    +0.141 C 
ATOM     26  H   UNL     1      29.374 -21.483 -15.495  0.00  0.00    +0.155 HD
ATOM     27  H   UNL     1      28.341 -22.480 -14.574  0.00  0.00    +0.155 HD
ENDBRANCH   8  22
TORSDOF 1
ENDMDL
MODEL 6
REMARK VINA RESULT:      -8.8      1.912      5.034
REMARK  Name = 9817550
REMARK  1 active torsions:
REMARK  status: ('A' for Active; 'I' for Inactive)
REMARK    1  A    between atoms: C_8  and  C_22
REMARK                            x       y       z     vdW  Elec       q    Type
REMARK                         _______ _______ _______ _____ _____    ______ ____
ROOT
ATOM      1  O   UNL     1      32.553 -22.494 -18.780  0.00  0.00    -0.286 OA
ATOM      2  N   UNL     1      35.290 -23.347 -15.152  0.00  0.00    -0.268 N 
ATOM      3  N   UNL     1      36.303 -22.344 -17.145  0.00  0.00    -0.298 N 
ATOM      4  N   UNL     1      36.096 -23.981 -13.031  0.00  0.00    -0.214 NA
ATOM      5  N   UNL     1      37.647 -23.443 -14.693  0.00  0.00    -0.328 N 
ATOM      6  C   UNL     1      33.980 -22.898 -16.931  0.00  0.00    +0.073 A 
ATOM      7  C   UNL     1      35.271 -22.847 -16.436  0.00  0.00    +0.122 A 
ATOM      8  C   UNL     1      33.154 -23.379 -15.895  0.00  0.00    +0.053 A 
ATOM      9  C   UNL     1      33.968 -23.605 -14.804  0.00  0.00    +0.072 A 
ATOM     10  C   UNL     1      36.358 -23.592 -14.255  0.00  0.00    +0.200 C 
ATOM     11  C   UNL     1      33.671 -22.458 -18.282  0.00  0.00    +0.200 C 
ATOM     12  C   UNL     1      33.730 -24.029 -13.481  0.00  0.00    +0.038 C 
ATOM     13  C   UNL     1      34.862 -21.935 -19.036  0.00  0.00    +0.058 C 
ATOM     14  C   UNL     1      36.063 -21.908 -18.433  0.00  0.00    +0.066 C 
ATOM     15  C   UNL     1      34.785 -24.177 -12.671  0.00  0.00    +0.103 C 
ATOM     16  H   UNL     1      37.206 -22.290 -16.755  0.00  0.00    +0.154 HD
ATOM     17  H   UNL     1      37.822 -23.149 -15.616  0.00  0.00    +0.145 HD
ATOM     18  H   UNL     1      38.398 -23.628 -14.085  0.00  0.00    +0.145 HD
ENDROOT
BRANCH   8  22
ATOM     19  N   UNL     1      31.304 -24.679 -15.222  0.00  0.00    -0.338 NA
ATOM     20  N   UNL     1      29.045 -24.045 -15.776  0.00  0.00    -0.170 NA
ATOM     21  N   UNL     1      29.483 -25.992 -14.542  0.00  0.00    -0.293 N 
ATOM     22  C   UNL     1      31.731 -23.578 -15.873  0.00  0.00    +0.147 C 
ATOM     23  C   UNL     1      30.892 -22.675 -16.491  0.00  0.00    +0.055 C 
ATOM     24  C   UNL     1      29.544 -22.963 -16.409  0.00  0.00    +0.114 C 
ATOM     25  C   UNL     1      29.968 -24.850 -15.213  0.00  0.00    +0.141 C 
ATOM     26  H   UNL     1      30.113 -26.616 -14.112  0.00  0.00    +0.155 HD
ATOM     27  H   UNL     1      28.515 -26.166 -14.503  0.00  0.00    +0.155 HD
ENDBRANCH   8  22
TORSDOF 1
ENDMDL
MODEL 7
REMARK VINA RESULT:      -8.7      7.800     10.559
REMARK  Name = 9817550
REMARK  1 active torsions:
REMARK  status: ('A' for Active; 'I' for Inactive)
REMARK    1  A    between atoms: C_8  and  C_22
REMARK                            x       y       z     vdW  Elec       q    Type
REMARK                         _______ _______ _______ _____ _____    ______ ____
ROOT
ATOM      1  O   UNL     1      34.701 -17.475 -25.037  0.00  0.00    -0.286 OA
ATOM      2  N   UNL     1      32.862 -14.064 -22.515  0.00  0.00    -0.268 N 
ATOM      3  N   UNL     1      32.740 -13.883 -24.956  0.00  0.00    -0.298 N 
ATOM      4  N   UNL     1      32.117 -12.732 -20.720  0.00  0.00    -0.214 NA
ATOM      5  N   UNL     1      32.067 -11.825 -22.873  0.00  0.00    -0.328 N 
ATOM      6  C   UNL     1      33.730 -15.721 -23.775  0.00  0.00    +0.073 A 
ATOM      7  C   UNL     1      33.088 -14.495 -23.804  0.00  0.00    +0.122 A 
ATOM      8  C   UNL     1      33.842 -16.101 -22.422  0.00  0.00    +0.053 A 
ATOM      9  C   UNL     1      33.266 -15.095 -21.673  0.00  0.00    +0.072 A 
ATOM     10  C   UNL     1      32.328 -12.855 -22.008  0.00  0.00    +0.200 C 
ATOM     11  C   UNL     1      34.119 -16.399 -25.001  0.00  0.00    +0.200 C 
ATOM     12  C   UNL     1      33.029 -14.921 -20.295  0.00  0.00    +0.038 C 
ATOM     13  C   UNL     1      33.732 -15.660 -26.251  0.00  0.00    +0.058 C 
ATOM     14  C   UNL     1      33.081 -14.487 -26.149  0.00  0.00    +0.066 C 
ATOM     15  C   UNL     1      32.460 -13.776 -19.897  0.00  0.00    +0.103 C 
ATOM     16  H   UNL     1      32.255 -13.026 -24.946  0.00  0.00    +0.154 HD
ATOM     17  H   UNL     1      32.232 -11.938 -23.837  0.00  0.00    +0.145 HD
ATOM     18  H   UNL     1      31.713 -10.973 -22.530  0.00  0.00    +0.145 HD
ENDROOT
BRANCH   8  22
ATOM     19  N   UNL     1      33.486 -18.184 -21.373  0.00  0.00    -0.338 NA
ATOM     20  N   UNL     1      35.323 -19.609 -20.738  0.00  0.00    -0.170 NA
ATOM     21  N   UNL     1      33.103 -20.250 -20.329  0.00  0.00    -0.293 N 
ATOM     22  C   UNL     1      34.387 -17.300 -21.848  0.00  0.00    +0.147 C 
ATOM     23  C   UNL     1      35.751 -17.495 -21.807  0.00  0.00    +0.055 C 
ATOM     24  C   UNL     1      36.166 -18.680 -21.233  0.00  0.00    +0.114 C 
ATOM     25  C   UNL     1      34.015 -19.301 -20.838  0.00  0.00    +0.141 C 
ATOM     26  H   UNL     1      32.134 -20.077 -20.376  0.00  0.00    +0.155 HD
ATOM     27  H   UNL     1      33.434 -21.085 -19.928  0.00  0.00    +0.155 HD
ENDBRANCH   8  22
TORSDOF 1
ENDMDL
MODEL 8
REMARK VINA RESULT:      -8.6      9.778     13.413
REMARK  Name = 9817550
REMARK  1 active torsions:
REMARK  status: ('A' for Active; 'I' for Inactive)
REMARK    1  A    between atoms: C_8  and  C_22
REMARK                            x       y       z     vdW  Elec       q    Type
REMARK                         _______ _______ _______ _____ _____    ______ ____
ROOT
ATOM      1  O   UNL     1      33.726 -13.707 -20.076  0.00  0.00    -0.286 OA
ATOM      2  N   UNL     1      33.762 -15.510 -24.334  0.00  0.00    -0.268 N 
ATOM      3  N   UNL     1      34.557 -16.910 -22.486  0.00  0.00    -0.298 N 
ATOM      4  N   UNL     1      33.501 -15.828 -26.654  0.00  0.00    -0.214 NA
ATOM      5  N   UNL     1      34.713 -17.417 -25.444  0.00  0.00    -0.328 N 
ATOM      6  C   UNL     1      33.737 -14.669 -22.242  0.00  0.00    +0.073 A 
ATOM      7  C   UNL     1      34.059 -15.772 -23.014  0.00  0.00    +0.122 A 
ATOM      8  C   UNL     1      33.152 -13.716 -23.099  0.00  0.00    +0.053 A 
ATOM      9  C   UNL     1      33.138 -14.267 -24.364  0.00  0.00    +0.072 A 
ATOM     10  C   UNL     1      33.981 -16.262 -25.514  0.00  0.00    +0.200 C 
ATOM     11  C   UNL     1      33.975 -14.657 -20.807  0.00  0.00    +0.200 C 
ATOM     12  C   UNL     1      32.644 -13.833 -25.610  0.00  0.00    +0.038 C 
ATOM     13  C   UNL     1      34.557 -15.938 -20.279  0.00  0.00    +0.058 C 
ATOM     14  C   UNL     1      34.797 -16.953 -21.128  0.00  0.00    +0.066 C 
ATOM     15  C   UNL     1      32.832 -14.629 -26.671  0.00  0.00    +0.103 C 
ATOM     16  H   UNL     1      34.746 -17.690 -23.057  0.00  0.00    +0.154 HD
ATOM     17  H   UNL     1      35.063 -17.726 -24.577  0.00  0.00    +0.145 HD
ATOM     18  H   UNL     1      34.888 -17.939 -26.260  0.00  0.00    +0.145 HD
ENDROOT
BRANCH   8  22
ATOM     19  N   UNL     1      33.224 -11.374 -23.381  0.00  0.00    -0.338 NA
ATOM     20  N   UNL     1      31.646  -9.921 -22.281  0.00  0.00    -0.170 NA
ATOM     21  N   UNL     1      33.318  -9.049 -23.677  0.00  0.00    -0.293 N 
ATOM     22  C   UNL     1      32.607 -12.421 -22.796  0.00  0.00    +0.147 C 
ATOM     23  C   UNL     1      31.521 -12.303 -21.955  0.00  0.00    +0.055 C 
ATOM     24  C   UNL     1      31.079 -11.014 -21.731  0.00  0.00    +0.114 C 
ATOM     25  C   UNL     1      32.699 -10.170 -23.084  0.00  0.00    +0.141 C 
ATOM     26  H   UNL     1      34.093  -9.172 -24.273  0.00  0.00    +0.155 HD
ATOM     27  H   UNL     1      32.976  -8.145 -23.496  0.00  0.00    +0.155 HD
ENDBRANCH   8  22
TORSDOF 1
ENDMDL
MODEL 9
REMARK VINA RESULT:      -8.5     10.719     14.258
REMARK  Name = 9817550
REMARK  1 active torsions:
REMARK  status: ('A' for Active; 'I' for Inactive)
REMARK    1  A    between atoms: C_8  and  C_22
REMARK                            x       y       z     vdW  Elec       q    Type
REMARK                         _______ _______ _______ _____ _____    ______ ____
ROOT
ATOM      1  O   UNL     1      32.588 -12.545 -20.316  0.00  0.00    -0.286 OA
ATOM      2  N   UNL     1      33.378 -14.678 -24.342  0.00  0.00    -0.268 N 
ATOM      3  N   UNL     1      33.145 -16.063 -22.334  0.00  0.00    -0.298 N 
ATOM      4  N   UNL     1      33.744 -15.127 -26.626  0.00  0.00    -0.214 NA
ATOM      5  N   UNL     1      34.027 -16.866 -25.092  0.00  0.00    -0.328 N 
ATOM      6  C   UNL     1      32.971 -13.671 -22.366  0.00  0.00    +0.073 A 
ATOM      7  C   UNL     1      33.178 -14.887 -22.995  0.00  0.00    +0.122 A 
ATOM      8  C   UNL     1      32.970 -12.678 -23.366  0.00  0.00    +0.053 A 
ATOM      9  C   UNL     1      33.176 -13.320 -24.569  0.00  0.00    +0.072 A 
ATOM     10  C   UNL     1      33.714 -15.567 -25.392  0.00  0.00    +0.200 C 
ATOM     11  C   UNL     1      32.761 -13.591 -20.929  0.00  0.00    +0.200 C 
ATOM     12  C   UNL     1      33.225 -12.886 -25.910  0.00  0.00    +0.038 C 
ATOM     13  C   UNL     1      32.764 -14.927 -20.241  0.00  0.00    +0.058 C 
ATOM     14  C   UNL     1      32.945 -16.043 -20.969  0.00  0.00    +0.066 C 
ATOM     15  C   UNL     1      33.485 -13.798 -26.855  0.00  0.00    +0.103 C 
ATOM     16  H   UNL     1      33.264 -16.915 -22.813  0.00  0.00    +0.154 HD
ATOM     17  H   UNL     1      33.997 -17.177 -24.158  0.00  0.00    +0.145 HD
ATOM     18  H   UNL     1      34.281 -17.489 -25.810  0.00  0.00    +0.145 HD
ENDROOT
BRANCH   8  22
ATOM     19  N   UNL     1      33.795 -10.481 -23.610  0.00  0.00    -0.338 NA
ATOM     20  N   UNL     1      32.446  -8.558 -23.072  0.00  0.00    -0.170 NA
ATOM     21  N   UNL     1      34.642  -8.308 -23.860  0.00  0.00    -0.293 N 
ATOM     22  C   UNL     1      32.755 -11.262 -23.253  0.00  0.00    +0.147 C 
ATOM     23  C   UNL     1      31.546 -10.775 -22.803  0.00  0.00    +0.055 C 
ATOM     24  C   UNL     1      31.447  -9.399 -22.732  0.00  0.00    +0.114 C 
ATOM     25  C   UNL     1      33.575  -9.158 -23.496  0.00  0.00    +0.141 C 
ATOM     26  H   UNL     1      35.491  -8.692 -24.177  0.00  0.00    +0.155 HD
ATOM     27  H   UNL     1      34.536  -7.332 -23.798  0.00  0.00    +0.155 HD
ENDBRANCH   8  22
TORSDOF 1
ENDMDL
