MODEL 1
REMARK VINA RESULT:     -11.7      0.000      0.000
REMARK  Name = 24779724
REMARK  3 active torsions:
REMARK  status: ('A' for Active; 'I' for Inactive)
REMARK    1  A    between atoms: C_5  and  C_12
REMARK    2  A    between atoms: C_7  and  S_16
REMARK    3  A    between atoms: S_16  and  C_19
REMARK                            x       y       z     vdW  Elec       q    Type
REMARK                         _______ _______ _______ _____ _____    ______ ____
ROOT
ATOM      1  N   UNL     1      34.272 -16.123 -24.192  0.00  0.00    -0.186 N 
ATOM      2  N   UNL     1      34.105 -14.911 -23.605  0.00  0.00    -0.162 NA
ATOM      3  N   UNL     1      34.193 -17.770 -25.642  0.00  0.00    -0.126 NA
ATOM      4  N   UNL     1      34.884 -18.201 -24.527  0.00  0.00    -0.120 NA
ATOM      5  C   UNL     1      33.449 -14.058 -24.340  0.00  0.00    +0.104 C 
ATOM      6  C   UNL     1      33.831 -16.523 -25.431  0.00  0.00    +0.187 A 
ATOM      7  C   UNL     1      34.920 -17.205 -23.670  0.00  0.00    +0.217 A 
ATOM      8  C   UNL     1      32.894 -14.359 -25.700  0.00  0.00    +0.024 C 
ATOM      9  C   UNL     1      33.110 -15.584 -26.195  0.00  0.00    +0.042 C 
ENDROOT
BRANCH   5  12
ATOM     10  N   UNL     1      32.450 -11.010 -22.638  0.00  0.00    -0.208 N 
ATOM     11  N   UNL     1      33.297 -10.429 -23.505  0.00  0.00    -0.176 NA
ATOM     12  C   UNL     1      33.205 -12.691 -23.811  0.00  0.00    +0.056 C 
ATOM     13  C   UNL     1      32.359 -12.364 -22.780  0.00  0.00    +0.087 C 
ATOM     14  C   UNL     1      33.756 -11.461 -24.218  0.00  0.00    +0.121 C 
ATOM     15  C   UNL     1      31.741 -10.200 -21.677  0.00  0.00    +0.140 C 
ENDBRANCH   5  12
BRANCH   7  16
ATOM     16  S   UNL     1      35.688 -17.212 -22.057  0.00  0.00    -0.051 S 
BRANCH  16  19
ATOM     17  N   UNL     1      32.819 -21.723 -19.448  0.00  0.00    -0.248 NA
ATOM     18  C   UNL     1      34.895 -20.627 -19.992  0.00  0.00    -0.003 C 
ATOM     19  C   UNL     1      34.839 -18.567 -21.272  0.00  0.00    +0.011 C 
ATOM     20  C   UNL     1      33.487 -20.711 -20.031  0.00  0.00    +0.060 C 
ATOM     21  C   UNL     1      35.560 -19.557 -20.612  0.00  0.00    +0.060 C 
ATOM     22  C   UNL     1      33.452 -18.643 -21.316  0.00  0.00    -0.017 C 
ATOM     23  C   UNL     1      32.791 -19.707 -20.699  0.00  0.00    +0.072 C 
ATOM     24  C   UNL     1      35.596 -21.638 -19.320  0.00  0.00    -0.001 C 
ATOM     25  C   UNL     1      34.910 -22.682 -18.717  0.00  0.00    +0.020 C 
ATOM     26  C   UNL     1      33.533 -22.677 -18.810  0.00  0.00    +0.098 C 
ENDBRANCH  16  19
ENDBRANCH   7  16
TORSDOF 3
ENDMDL
MODEL 2
REMARK VINA RESULT:     -11.6      3.139      9.969
REMARK  Name = 24779724
REMARK  3 active torsions:
REMARK  status: ('A' for Active; 'I' for Inactive)
REMARK    1  A    between atoms: C_5  and  C_12
REMARK    2  A    between atoms: C_7  and  S_16
REMARK    3  A    between atoms: S_16  and  C_19
REMARK                            x       y       z     vdW  Elec       q    Type
REMARK                         _______ _______ _______ _____ _____    ______ ____
ROOT
ATOM      1  N   UNL     1      34.671 -21.677 -18.819  0.00  0.00    -0.186 N 
ATOM      2  N   UNL     1      35.666 -22.035 -17.971  0.00  0.00    -0.162 NA
ATOM      3  N   UNL     1      32.694 -21.484 -19.756  0.00  0.00    -0.126 NA
ATOM      4  N   UNL     1      33.602 -20.751 -20.493  0.00  0.00    -0.120 NA
ATOM      5  C   UNL     1      35.274 -22.804 -16.994  0.00  0.00    +0.104 C 
ATOM      6  C   UNL     1      33.345 -22.036 -18.754  0.00  0.00    +0.187 A 
ATOM      7  C   UNL     1      34.778 -20.879 -19.921  0.00  0.00    +0.217 A 
ATOM      8  C   UNL     1      33.867 -23.288 -16.808  0.00  0.00    +0.024 C 
ATOM      9  C   UNL     1      32.953 -22.881 -17.697  0.00  0.00    +0.042 C 
ENDROOT
BRANCH   5  12
ATOM     10  N   UNL     1      37.259 -24.342 -14.370  0.00  0.00    -0.208 N 
ATOM     11  N   UNL     1      38.186 -23.450 -14.759  0.00  0.00    -0.176 NA
ATOM     12  C   UNL     1      36.272 -23.261 -15.993  0.00  0.00    +0.056 C 
ATOM     13  C   UNL     1      36.094 -24.269 -15.077  0.00  0.00    +0.087 C 
ATOM     14  C   UNL     1      37.578 -22.793 -15.750  0.00  0.00    +0.121 C 
ATOM     15  C   UNL     1      37.552 -25.257 -13.293  0.00  0.00    +0.140 C 
ENDBRANCH   5  12
BRANCH   7  16
ATOM     16  S   UNL     1      36.313 -20.140 -20.458  0.00  0.00    -0.051 S 
BRANCH  16  19
ATOM     17  N   UNL     1      34.341 -15.848 -24.073  0.00  0.00    -0.248 NA
ATOM     18  C   UNL     1      34.851 -16.604 -21.843  0.00  0.00    -0.003 C 
ATOM     19  C   UNL     1      35.722 -18.848 -21.531  0.00  0.00    +0.011 C 
ATOM     20  C   UNL     1      34.784 -16.805 -23.238  0.00  0.00    +0.060 C 
ATOM     21  C   UNL     1      35.319 -17.626 -21.000  0.00  0.00    +0.060 C 
ATOM     22  C   UNL     1      35.658 -19.053 -22.904  0.00  0.00    -0.017 C 
ATOM     23  C   UNL     1      35.193 -18.037 -23.742  0.00  0.00    +0.072 C 
ATOM     24  C   UNL     1      34.440 -15.364 -21.336  0.00  0.00    -0.001 C 
ATOM     25  C   UNL     1      33.983 -14.375 -22.194  0.00  0.00    +0.020 C 
ATOM     26  C   UNL     1      33.953 -14.665 -23.543  0.00  0.00    +0.098 C 
ENDBRANCH  16  19
ENDBRANCH   7  16
TORSDOF 3
ENDMDL
MODEL 3
REMARK VINA RESULT:     -11.4      3.241     10.172
REMARK  Name = 24779724
REMARK  3 active torsions:
REMARK  status: ('A' for Active; 'I' for Inactive)
REMARK    1  A    between atoms: C_5  and  C_12
REMARK    2  A    between atoms: C_7  and  S_16
REMARK    3  A    between atoms: S_16  and  C_19
REMARK                            x       y       z     vdW  Elec       q    Type
REMARK                         _______ _______ _______ _____ _____    ______ ____
ROOT
ATOM      1  N   UNL     1      34.608 -22.010 -18.519  0.00  0.00    -0.186 N 
ATOM      2  N   UNL     1      35.622 -22.375 -17.696  0.00  0.00    -0.162 NA
ATOM      3  N   UNL     1      32.605 -21.772 -19.387  0.00  0.00    -0.126 NA
ATOM      4  N   UNL     1      33.511 -21.107 -20.188  0.00  0.00    -0.120 NA
ATOM      5  C   UNL     1      35.239 -23.088 -16.673  0.00  0.00    +0.104 C 
ATOM      6  C   UNL     1      33.273 -22.310 -18.388  0.00  0.00    +0.187 A 
ATOM      7  C   UNL     1      34.703 -21.261 -19.656  0.00  0.00    +0.217 A 
ATOM      8  C   UNL     1      33.823 -23.505 -16.413  0.00  0.00    +0.024 C 
ATOM      9  C   UNL     1      32.890 -23.096 -17.283  0.00  0.00    +0.042 C 
ENDROOT
BRANCH   5  12
ATOM     10  N   UNL     1      37.284 -24.640 -14.105  0.00  0.00    -0.208 N 
ATOM     11  N   UNL     1      38.189 -23.722 -14.487  0.00  0.00    -0.176 NA
ATOM     12  C   UNL     1      36.258 -23.545 -15.694  0.00  0.00    +0.056 C 
ATOM     13  C   UNL     1      36.110 -24.576 -14.797  0.00  0.00    +0.087 C 
ATOM     14  C   UNL     1      37.557 -23.057 -15.457  0.00  0.00    +0.121 C 
ATOM     15  C   UNL     1      37.607 -25.571 -13.051  0.00  0.00    +0.140 C 
ENDBRANCH   5  12
BRANCH   7  16
ATOM     16  S   UNL     1      36.243 -20.609 -20.282  0.00  0.00    -0.051 S 
BRANCH  16  19
ATOM     17  N   UNL     1      34.329 -16.019 -23.546  0.00  0.00    -0.248 NA
ATOM     18  C   UNL     1      34.900 -18.355 -23.392  0.00  0.00    -0.003 C 
ATOM     19  C   UNL     1      35.669 -19.242 -21.268  0.00  0.00    +0.011 C 
ATOM     20  C   UNL     1      34.760 -17.071 -22.825  0.00  0.00    +0.060 C 
ATOM     21  C   UNL     1      35.352 -19.431 -22.610  0.00  0.00    +0.060 C 
ATOM     22  C   UNL     1      35.534 -17.980 -20.703  0.00  0.00    -0.017 C 
ATOM     23  C   UNL     1      35.084 -16.910 -21.481  0.00  0.00    +0.072 C 
ATOM     24  C   UNL     1      34.574 -18.517 -24.746  0.00  0.00    -0.001 C 
ATOM     25  C   UNL     1      34.129 -17.435 -25.491  0.00  0.00    +0.020 C 
ATOM     26  C   UNL     1      34.025 -16.218 -24.849  0.00  0.00    +0.098 C 
ENDBRANCH  16  19
ENDBRANCH   7  16
TORSDOF 3
ENDMDL
MODEL 4
REMARK VINA RESULT:     -10.7      4.770     10.191
REMARK  Name = 24779724
REMARK  3 active torsions:
REMARK  status: ('A' for Active; 'I' for Inactive)
REMARK    1  A    between atoms: C_5  and  C_12
REMARK    2  A    between atoms: C_7  and  S_16
REMARK    3  A    between atoms: S_16  and  C_19
REMARK                            x       y       z     vdW  Elec       q    Type
REMARK                         _______ _______ _______ _____ _____    ______ ____
ROOT
ATOM      1  N   UNL     1      32.907 -23.268 -16.385  0.00  0.00    -0.186 N 
ATOM      2  N   UNL     1      31.617 -23.195 -16.797  0.00  0.00    -0.162 NA
ATOM      3  N   UNL     1      34.696 -23.282 -15.110  0.00  0.00    -0.126 NA
ATOM      4  N   UNL     1      35.088 -23.489 -16.416  0.00  0.00    -0.120 NA
ATOM      5  C   UNL     1      30.767 -22.995 -15.829  0.00  0.00    +0.104 C 
ATOM      6  C   UNL     1      33.386 -23.151 -15.101  0.00  0.00    +0.187 A 
ATOM      7  C   UNL     1      34.008 -23.476 -17.165  0.00  0.00    +0.217 A 
ATOM      8  C   UNL     1      31.145 -22.831 -14.388  0.00  0.00    +0.024 C 
ATOM      9  C   UNL     1      32.445 -22.918 -14.078  0.00  0.00    +0.042 C 
ENDROOT
BRANCH   5  12
ATOM     10  N   UNL     1      27.199 -22.381 -16.103  0.00  0.00    -0.208 N 
ATOM     11  N   UNL     1      27.295 -23.195 -17.168  0.00  0.00    -0.176 NA
ATOM     12  C   UNL     1      29.320 -22.902 -16.151  0.00  0.00    +0.056 C 
ATOM     13  C   UNL     1      28.384 -22.174 -15.459  0.00  0.00    +0.087 C 
ATOM     14  C   UNL     1      28.592 -23.509 -17.193  0.00  0.00    +0.121 C 
ATOM     15  C   UNL     1      25.919 -21.820 -15.742  0.00  0.00    +0.140 C 
ENDBRANCH   5  12
BRANCH   7  16
ATOM     16  S   UNL     1      33.934 -23.694 -18.936  0.00  0.00    -0.051 S 
BRANCH  16  19
ATOM     17  N   UNL     1      36.138 -18.506 -20.837  0.00  0.00    -0.248 NA
ATOM     18  C   UNL     1      34.235 -19.938 -20.474  0.00  0.00    -0.003 C 
ATOM     19  C   UNL     1      34.584 -22.137 -19.507  0.00  0.00    +0.011 C 
ATOM     20  C   UNL     1      35.619 -19.673 -20.412  0.00  0.00    +0.060 C 
ATOM     21  C   UNL     1      33.728 -21.168 -20.021  0.00  0.00    +0.060 C 
ATOM     22  C   UNL     1      35.948 -21.883 -19.444  0.00  0.00    -0.017 C 
ATOM     23  C   UNL     1      36.453 -20.661 -19.894  0.00  0.00    +0.072 C 
ATOM     24  C   UNL     1      33.396 -18.945 -20.995  0.00  0.00    -0.001 C 
ATOM     25  C   UNL     1      33.928 -17.741 -21.434  0.00  0.00    +0.020 C 
ATOM     26  C   UNL     1      35.294 -17.573 -21.334  0.00  0.00    +0.098 C 
ENDBRANCH  16  19
ENDBRANCH   7  16
TORSDOF 3
ENDMDL
MODEL 5
REMARK VINA RESULT:     -10.7      2.079      8.983
REMARK  Name = 24779724
REMARK  3 active torsions:
REMARK  status: ('A' for Active; 'I' for Inactive)
REMARK    1  A    between atoms: C_5  and  C_12
REMARK    2  A    between atoms: C_7  and  S_16
REMARK    3  A    between atoms: S_16  and  C_19
REMARK                            x       y       z     vdW  Elec       q    Type
REMARK                         _______ _______ _______ _____ _____    ______ ____
ROOT
ATOM      1  N   UNL     1      33.716 -15.774 -23.970  0.00  0.00    -0.186 N 
ATOM      2  N   UNL     1      34.033 -16.505 -22.872  0.00  0.00    -0.162 NA
ATOM      3  N   UNL     1      33.494 -15.129 -26.057  0.00  0.00    -0.126 NA
ATOM      4  N   UNL     1      32.946 -14.161 -25.239  0.00  0.00    -0.120 NA
ATOM      5  C   UNL     1      34.624 -17.634 -23.146  0.00  0.00    +0.104 C 
ATOM      6  C   UNL     1      33.952 -16.092 -25.286  0.00  0.00    +0.187 A 
ATOM      7  C   UNL     1      33.089 -14.562 -23.996  0.00  0.00    +0.217 A 
ATOM      8  C   UNL     1      34.961 -18.102 -24.530  0.00  0.00    +0.024 C 
ATOM      9  C   UNL     1      34.608 -17.311 -25.550  0.00  0.00    +0.042 C 
ENDROOT
BRANCH   5  12
ATOM     10  N   UNL     1      35.015 -20.105 -20.513  0.00  0.00    -0.208 N 
ATOM     11  N   UNL     1      36.197 -19.493 -20.324  0.00  0.00    -0.176 NA
ATOM     12  C   UNL     1      35.017 -18.529 -22.027  0.00  0.00    +0.056 C 
ATOM     13  C   UNL     1      34.271 -19.565 -21.521  0.00  0.00    +0.087 C 
ATOM     14  C   UNL     1      36.193 -18.532 -21.252  0.00  0.00    +0.121 C 
ATOM     15  C   UNL     1      34.646 -21.223 -19.679  0.00  0.00    +0.140 C 
ENDBRANCH   5  12
BRANCH   7  16
ATOM     16  S   UNL     1      32.560 -13.693 -22.528  0.00  0.00    -0.051 S 
BRANCH  16  19
ATOM     17  N   UNL     1      33.779  -8.070 -24.037  0.00  0.00    -0.248 NA
ATOM     18  C   UNL     1      32.445  -9.633 -22.779  0.00  0.00    -0.003 C 
ATOM     19  C   UNL     1      32.917 -12.006 -22.972  0.00  0.00    +0.011 C 
ATOM     20  C   UNL     1      33.487  -9.335 -23.682  0.00  0.00    +0.060 C 
ATOM     21  C   UNL     1      32.168 -10.966 -22.431  0.00  0.00    +0.060 C 
ATOM     22  C   UNL     1      33.944 -11.720 -23.862  0.00  0.00    -0.017 C 
ATOM     23  C   UNL     1      34.220 -10.395 -24.209  0.00  0.00    +0.072 C 
ATOM     24  C   UNL     1      31.707  -8.567 -22.249  0.00  0.00    -0.001 C 
ATOM     25  C   UNL     1      32.006  -7.261 -22.613  0.00  0.00    +0.020 C 
ATOM     26  C   UNL     1      33.043  -7.069 -23.503  0.00  0.00    +0.098 C 
ENDBRANCH  16  19
ENDBRANCH   7  16
TORSDOF 3
ENDMDL
MODEL 6
REMARK VINA RESULT:     -10.7      4.867     11.653
REMARK  Name = 24779724
REMARK  3 active torsions:
REMARK  status: ('A' for Active; 'I' for Inactive)
REMARK    1  A    between atoms: C_5  and  C_12
REMARK    2  A    between atoms: C_7  and  S_16
REMARK    3  A    between atoms: S_16  and  C_19
REMARK                            x       y       z     vdW  Elec       q    Type
REMARK                         _______ _______ _______ _____ _____    ______ ____
ROOT
ATOM      1  N   UNL     1      33.866 -23.758 -16.159  0.00  0.00    -0.186 N 
ATOM      2  N   UNL     1      35.043 -24.429 -16.128  0.00  0.00    -0.162 NA
ATOM      3  N   UNL     1      32.058 -22.680 -15.530  0.00  0.00    -0.126 NA
ATOM      4  N   UNL     1      32.060 -22.765 -16.908  0.00  0.00    -0.120 NA
ATOM      5  C   UNL     1      35.511 -24.615 -14.926  0.00  0.00    +0.104 C 
ATOM      6  C   UNL     1      33.145 -23.279 -15.091  0.00  0.00    +0.187 A 
ATOM      7  C   UNL     1      33.145 -23.413 -17.267  0.00  0.00    +0.217 A 
ATOM      8  C   UNL     1      34.827 -24.165 -13.671  0.00  0.00    +0.024 C 
ATOM      9  C   UNL     1      33.667 -23.509 -13.802  0.00  0.00    +0.042 C 
ENDROOT
BRANCH   5  12
ATOM     10  N   UNL     1      38.917 -25.785 -14.458  0.00  0.00    -0.208 N 
ATOM     11  N   UNL     1      38.356 -26.999 -14.590  0.00  0.00    -0.176 NA
ATOM     12  C   UNL     1      36.800 -25.334 -14.759  0.00  0.00    +0.056 C 
ATOM     13  C   UNL     1      38.028 -24.754 -14.553  0.00  0.00    +0.087 C 
ATOM     14  C   UNL     1      37.063 -26.718 -14.773  0.00  0.00    +0.121 C 
ATOM     15  C   UNL     1      40.339 -25.672 -14.240  0.00  0.00    +0.140 C 
ENDBRANCH   5  12
BRANCH   7  16
ATOM     16  S   UNL     1      33.651 -23.807 -18.934  0.00  0.00    -0.051 S 
BRANCH  16  19
ATOM     17  N   UNL     1      36.121 -18.674 -20.649  0.00  0.00    -0.248 NA
ATOM     18  C   UNL     1      34.162 -20.060 -20.438  0.00  0.00    -0.003 C 
ATOM     19  C   UNL     1      34.380 -22.266 -19.450  0.00  0.00    +0.011 C 
ATOM     20  C   UNL     1      35.542 -19.828 -20.268  0.00  0.00    +0.060 C 
ATOM     21  C   UNL     1      33.591 -21.277 -20.028  0.00  0.00    +0.060 C 
ATOM     22  C   UNL     1      35.741 -22.045 -19.280  0.00  0.00    -0.017 C 
ATOM     23  C   UNL     1      36.309 -20.835 -19.687  0.00  0.00    +0.072 C 
ATOM     24  C   UNL     1      33.390 -19.047 -21.022  0.00  0.00    -0.001 C 
ATOM     25  C   UNL     1      33.984 -17.856 -21.417  0.00  0.00    +0.020 C 
ATOM     26  C   UNL     1      35.342 -17.722 -21.209  0.00  0.00    +0.098 C 
ENDBRANCH  16  19
ENDBRANCH   7  16
TORSDOF 3
ENDMDL
MODEL 7
REMARK VINA RESULT:     -10.7      2.207      8.918
REMARK  Name = 24779724
REMARK  3 active torsions:
REMARK  status: ('A' for Active; 'I' for Inactive)
REMARK    1  A    between atoms: C_5  and  C_12
REMARK    2  A    between atoms: C_7  and  S_16
REMARK    3  A    between atoms: S_16  and  C_19
REMARK                            x       y       z     vdW  Elec       q    Type
REMARK                         _______ _______ _______ _____ _____    ______ ____
ROOT
ATOM      1  N   UNL     1      33.588 -15.474 -23.746  0.00  0.00    -0.186 N 
ATOM      2  N   UNL     1      33.919 -16.284 -22.710  0.00  0.00    -0.162 NA
ATOM      3  N   UNL     1      33.363 -14.663 -25.774  0.00  0.00    -0.126 NA
ATOM      4  N   UNL     1      32.775 -13.787 -24.885  0.00  0.00    -0.120 NA
ATOM      5  C   UNL     1      34.551 -17.366 -23.069  0.00  0.00    +0.104 C 
ATOM      6  C   UNL     1      33.847 -15.672 -25.081  0.00  0.00    +0.187 A 
ATOM      7  C   UNL     1      32.920 -14.285 -23.678  0.00  0.00    +0.217 A 
ATOM      8  C   UNL     1      34.917 -17.704 -24.483  0.00  0.00    +0.024 C 
ATOM      9  C   UNL     1      34.547 -16.842 -25.439  0.00  0.00    +0.042 C 
ENDROOT
BRANCH   5  12
ATOM     10  N   UNL     1      34.971 -19.988 -20.593  0.00  0.00    -0.208 N 
ATOM     11  N   UNL     1      36.195 -19.452 -20.456  0.00  0.00    -0.176 NA
ATOM     12  C   UNL     1      34.964 -18.338 -22.025  0.00  0.00    +0.056 C 
ATOM     13  C   UNL     1      34.194 -19.357 -21.520  0.00  0.00    +0.087 C 
ATOM     14  C   UNL     1      36.186 -18.445 -21.333  0.00  0.00    +0.121 C 
ATOM     15  C   UNL     1      34.593 -21.128 -19.791  0.00  0.00    +0.140 C 
ENDBRANCH   5  12
BRANCH   7  16
ATOM     16  S   UNL     1      32.348 -13.562 -22.148  0.00  0.00    -0.051 S 
BRANCH  16  19
ATOM     17  N   UNL     1      32.414  -7.763 -23.475  0.00  0.00    -0.248 NA
ATOM     18  C   UNL     1      33.526  -9.901 -23.478  0.00  0.00    -0.003 C 
ATOM     19  C   UNL     1      32.378 -11.827 -22.550  0.00  0.00    +0.011 C 
ATOM     20  C   UNL     1      32.419  -9.077 -23.184  0.00  0.00    +0.060 C 
ATOM     21  C   UNL     1      33.498 -11.268 -23.160  0.00  0.00    +0.060 C 
ATOM     22  C   UNL     1      31.284 -11.022 -22.257  0.00  0.00    -0.017 C 
ATOM     23  C   UNL     1      31.312  -9.662 -22.574  0.00  0.00    +0.072 C 
ATOM     24  C   UNL     1      34.640  -9.312 -24.092  0.00  0.00    -0.001 C 
ATOM     25  C   UNL     1      34.638  -7.958 -24.393  0.00  0.00    +0.020 C 
ATOM     26  C   UNL     1      33.509  -7.234 -24.067  0.00  0.00    +0.098 C 
ENDBRANCH  16  19
ENDBRANCH   7  16
TORSDOF 3
ENDMDL
MODEL 8
REMARK VINA RESULT:     -10.6      0.966      1.527
REMARK  Name = 24779724
REMARK  3 active torsions:
REMARK  status: ('A' for Active; 'I' for Inactive)
REMARK    1  A    between atoms: C_5  and  C_12
REMARK    2  A    between atoms: C_7  and  S_16
REMARK    3  A    between atoms: S_16  and  C_19
REMARK                            x       y       z     vdW  Elec       q    Type
REMARK                         _______ _______ _______ _____ _____    ______ ____
ROOT
ATOM      1  N   UNL     1      34.227 -15.692 -23.988  0.00  0.00    -0.186 N 
ATOM      2  N   UNL     1      34.124 -14.399 -23.594  0.00  0.00    -0.162 NA
ATOM      3  N   UNL     1      34.119 -17.523 -25.196  0.00  0.00    -0.126 NA
ATOM      4  N   UNL     1      34.668 -17.839 -23.970  0.00  0.00    -0.120 NA
ATOM      5  C   UNL     1      33.616 -13.612 -24.501  0.00  0.00    +0.104 C 
ATOM      6  C   UNL     1      33.858 -16.233 -25.197  0.00  0.00    +0.187 A 
ATOM      7  C   UNL     1      34.723 -16.735 -23.260  0.00  0.00    +0.217 A 
ATOM      8  C   UNL     1      33.154 -14.064 -25.853  0.00  0.00    +0.024 C 
ATOM      9  C   UNL     1      33.296 -15.362 -26.151  0.00  0.00    +0.042 C 
ENDROOT
BRANCH   5  12
ATOM     10  N   UNL     1      32.814 -10.282 -23.294  0.00  0.00    -0.208 N 
ATOM     11  N   UNL     1      33.678  -9.894 -24.248  0.00  0.00    -0.176 NA
ATOM     12  C   UNL     1      33.457 -12.168 -24.192  0.00  0.00    +0.056 C 
ATOM     13  C   UNL     1      32.646 -11.634 -23.220  0.00  0.00    +0.087 C 
ATOM     14  C   UNL     1      34.067 -11.050 -24.793  0.00  0.00    +0.121 C 
ATOM     15  C   UNL     1      32.166  -9.292 -22.467  0.00  0.00    +0.140 C 
ENDBRANCH   5  12
BRANCH   7  16
ATOM     16  S   UNL     1      35.346 -16.568 -21.595  0.00  0.00    -0.051 S 
BRANCH  16  19
ATOM     17  N   UNL     1      35.473 -22.240 -19.809  0.00  0.00    -0.248 NA
ATOM     18  C   UNL     1      34.209 -20.238 -20.255  0.00  0.00    -0.003 C 
ATOM     19  C   UNL     1      35.373 -18.266 -21.059  0.00  0.00    +0.011 C 
ATOM     20  C   UNL     1      35.422 -20.957 -20.211  0.00  0.00    +0.060 C 
ATOM     21  C   UNL     1      34.193 -18.899 -20.679  0.00  0.00    +0.060 C 
ATOM     22  C   UNL     1      36.571 -18.967 -21.017  0.00  0.00    -0.017 C 
ATOM     23  C   UNL     1      36.588 -20.299 -20.596  0.00  0.00    +0.072 C 
ATOM     24  C   UNL     1      33.037 -20.900 -19.867  0.00  0.00    -0.001 C 
ATOM     25  C   UNL     1      33.086 -22.223 -19.453  0.00  0.00    +0.020 C 
ATOM     26  C   UNL     1      34.319 -22.842 -19.443  0.00  0.00    +0.098 C 
ENDBRANCH  16  19
ENDBRANCH   7  16
TORSDOF 3
ENDMDL
MODEL 9
REMARK VINA RESULT:     -10.6      4.577     11.362
REMARK  Name = 24779724
REMARK  3 active torsions:
REMARK  status: ('A' for Active; 'I' for Inactive)
REMARK    1  A    between atoms: C_5  and  C_12
REMARK    2  A    between atoms: C_7  and  S_16
REMARK    3  A    between atoms: S_16  and  C_19
REMARK                            x       y       z     vdW  Elec       q    Type
REMARK                         _______ _______ _______ _____ _____    ______ ____
ROOT
ATOM      1  N   UNL     1      33.027 -23.290 -16.133  0.00  0.00    -0.186 N 
ATOM      2  N   UNL     1      34.127 -23.690 -15.447  0.00  0.00    -0.162 NA
ATOM      3  N   UNL     1      30.972 -22.685 -16.616  0.00  0.00    -0.126 NA
ATOM      4  N   UNL     1      31.720 -22.658 -17.775  0.00  0.00    -0.120 NA
ATOM      5  C   UNL     1      33.917 -23.864 -14.173  0.00  0.00    +0.104 C 
ATOM      6  C   UNL     1      31.765 -23.065 -15.636  0.00  0.00    +0.187 A 
ATOM      7  C   UNL     1      32.944 -23.023 -17.469  0.00  0.00    +0.217 A 
ATOM      8  C   UNL     1      32.592 -23.674 -13.498  0.00  0.00    +0.024 C 
ATOM      9  C   UNL     1      31.563 -23.278 -14.259  0.00  0.00    +0.042 C 
ENDROOT
BRANCH   5  12
ATOM     10  N   UNL     1      36.938 -25.140 -12.613  0.00  0.00    -0.208 N 
ATOM     11  N   UNL     1      36.368 -24.677 -11.486  0.00  0.00    -0.176 NA
ATOM     12  C   UNL     1      35.046 -24.297 -13.310  0.00  0.00    +0.056 C 
ATOM     13  C   UNL     1      36.186 -24.937 -13.733  0.00  0.00    +0.087 C 
ATOM     14  C   UNL     1      35.214 -24.163 -11.919  0.00  0.00    +0.121 C 
ATOM     15  C   UNL     1      38.229 -25.781 -12.552  0.00  0.00    +0.140 C 
ENDBRANCH   5  12
BRANCH   7  16
ATOM     16  S   UNL     1      34.328 -23.164 -18.590  0.00  0.00    -0.051 S 
BRANCH  16  19
ATOM     17  N   UNL     1      33.833 -18.084 -21.645  0.00  0.00    -0.248 NA
ATOM     18  C   UNL     1      35.231 -19.806 -20.704  0.00  0.00    -0.003 C 
ATOM     19  C   UNL     1      34.191 -21.643 -19.507  0.00  0.00    +0.011 C 
ATOM     20  C   UNL     1      33.967 -19.233 -20.957  0.00  0.00    +0.060 C 
ATOM     21  C   UNL     1      35.333 -21.007 -19.982  0.00  0.00    +0.060 C 
ATOM     22  C   UNL     1      32.943 -21.084 -19.751  0.00  0.00    -0.017 C 
ATOM     23  C   UNL     1      32.840 -19.891 -20.469  0.00  0.00    +0.072 C 
ATOM     24  C   UNL     1      36.364 -19.145 -21.195  0.00  0.00    -0.001 C 
ATOM     25  C   UNL     1      36.230 -17.960 -21.905  0.00  0.00    +0.020 C 
ATOM     26  C   UNL     1      34.952 -17.477 -22.101  0.00  0.00    +0.098 C 
ENDBRANCH  16  19
ENDBRANCH   7  16
TORSDOF 3
ENDMDL
