MODEL 1
REMARK VINA RESULT:     -11.5      0.000      0.000
REMARK  Name = 5243
REMARK  7 active torsions:
REMARK  status: ('A' for Active; 'I' for Inactive)
REMARK    1  A    between atoms: C_1  and  C_3
REMARK    2  A    between atoms: C_1  and  C_8
REMARK    3  A    between atoms: C_1  and  C_19
REMARK    4  A    between atoms: C_13  and  O_14
REMARK    5  A    between atoms: O_14  and  S_15
REMARK    6  A    between atoms: C_24  and  O_25
REMARK    7  A    between atoms: O_25  and  S_26
REMARK                            x       y       z     vdW  Elec       q    Type
REMARK                         _______ _______ _______ _____ _____    ______ ____
ROOT
ATOM      1  C   UNL     1      34.798 -23.137 -15.531  0.00  0.00    +0.085 C 
ENDROOT
BRANCH   1   3
ATOM      2  N   UNL     1      33.426 -24.518 -14.092  0.00  0.00    -0.248 NA
ATOM      3  C   UNL     1      33.414 -23.701 -15.141  0.00  0.00    +0.067 C 
ATOM      4  C   UNL     1      32.346 -23.316 -15.891  0.00  0.00    +0.015 C 
ATOM      5  C   UNL     1      31.115 -23.842 -15.514  0.00  0.00    +0.003 C 
ATOM      6  C   UNL     1      32.212 -25.010 -13.756  0.00  0.00    +0.098 C 
ATOM      7  C   UNL     1      31.038 -24.706 -14.427  0.00  0.00    +0.021 C 
ENDBRANCH   1   3
BRANCH   1   8
ATOM      8  C   UNL     1      34.916 -22.628 -16.928  0.00  0.00    -0.013 C 
ATOM      9  C   UNL     1      36.086 -21.992 -17.342  0.00  0.00    -0.000 C 
ATOM     10  C   UNL     1      33.854 -22.787 -17.819  0.00  0.00    -0.000 C 
ATOM     11  C   UNL     1      36.195 -21.516 -18.648  0.00  0.00    +0.040 C 
ATOM     12  C   UNL     1      33.964 -22.311 -19.126  0.00  0.00    +0.040 C 
ATOM     13  C   UNL     1      35.134 -21.675 -19.541  0.00  0.00    +0.176 C 
BRANCH  13  14
ATOM     14  O   UNL     1      35.242 -21.209 -20.815  0.00  0.00    -0.322 OA
BRANCH  14  15
ATOM     15  S   UNL     1      34.809 -19.655 -21.134  0.00  0.00    +0.282 S 
ATOM     16  O   UNL     1      34.851 -19.565 -22.764  0.00  0.00    -0.105 OA
ATOM     17  O   UNL     1      33.436 -19.452 -20.712  0.00  0.00    -0.012 OA
ATOM     18  O   UNL     1      35.860 -18.792 -20.625  0.00  0.00    -0.105 OA
ENDBRANCH  14  15
ENDBRANCH  13  14
ENDBRANCH   1   8
BRANCH   1  19
ATOM     19  C   UNL     1      35.959 -24.037 -15.049  0.00  0.00    -0.013 C 
ATOM     20  C   UNL     1      36.870 -23.500 -14.180  0.00  0.00    -0.000 C 
ATOM     21  C   UNL     1      36.014 -25.321 -15.519  0.00  0.00    -0.000 C 
ATOM     22  C   UNL     1      37.918 -24.312 -13.747  0.00  0.00    +0.040 C 
ATOM     23  C   UNL     1      37.062 -26.133 -15.085  0.00  0.00    +0.040 C 
ATOM     24  C   UNL     1      38.014 -25.629 -14.198  0.00  0.00    +0.176 C 
BRANCH  24  25
ATOM     25  O   UNL     1      39.037 -26.420 -13.775  0.00  0.00    -0.322 OA
BRANCH  25  26
ATOM     26  S   UNL     1      40.548 -26.154 -14.369  0.00  0.00    +0.282 S 
ATOM     27  O   UNL     1      40.918 -24.657 -13.837  0.00  0.00    -0.105 OA
ATOM     28  O   UNL     1      41.470 -27.089 -13.749  0.00  0.00    -0.012 OA
ATOM     29  O   UNL     1      40.447 -26.089 -15.815  0.00  0.00    -0.105 OA
ENDBRANCH  25  26
ENDBRANCH  24  25
ENDBRANCH   1  19
TORSDOF 7
ENDMDL
MODEL 2
REMARK VINA RESULT:     -11.0      2.040      7.541
REMARK  Name = 5243
REMARK  7 active torsions:
REMARK  status: ('A' for Active; 'I' for Inactive)
REMARK    1  A    between atoms: C_1  and  C_3
REMARK    2  A    between atoms: C_1  and  C_8
REMARK    3  A    between atoms: C_1  and  C_19
REMARK    4  A    between atoms: C_13  and  O_14
REMARK    5  A    between atoms: O_14  and  S_15
REMARK    6  A    between atoms: C_24  and  O_25
REMARK    7  A    between atoms: O_25  and  S_26
REMARK                            x       y       z     vdW  Elec       q    Type
REMARK                         _______ _______ _______ _____ _____    ______ ____
ROOT
ATOM      1  C   UNL     1      33.745 -23.351 -17.131  0.00  0.00    +0.085 C 
ENDROOT
BRANCH   1   3
ATOM      2  N   UNL     1      31.334 -23.162 -17.230  0.00  0.00    -0.248 NA
ATOM      3  C   UNL     1      32.390 -23.130 -16.423  0.00  0.00    +0.067 C 
ATOM      4  C   UNL     1      32.412 -22.929 -15.078  0.00  0.00    +0.015 C 
ATOM      5  C   UNL     1      31.176 -22.733 -14.471  0.00  0.00    +0.003 C 
ATOM      6  C   UNL     1      30.151 -22.966 -16.605  0.00  0.00    +0.098 C 
ATOM      7  C   UNL     1      30.019 -22.751 -15.243  0.00  0.00    +0.021 C 
ENDBRANCH   1   3
BRANCH   1   8
ATOM      8  C   UNL     1      34.919 -23.545 -16.232  0.00  0.00    -0.013 C 
ATOM      9  C   UNL     1      35.094 -24.758 -15.565  0.00  0.00    -0.000 C 
ATOM     10  C   UNL     1      35.841 -22.513 -16.057  0.00  0.00    -0.000 C 
ATOM     11  C   UNL     1      36.190 -24.938 -14.723  0.00  0.00    +0.040 C 
ATOM     12  C   UNL     1      36.939 -22.694 -15.214  0.00  0.00    +0.040 C 
ATOM     13  C   UNL     1      37.113 -23.907 -14.547  0.00  0.00    +0.176 C 
BRANCH  13  14
ATOM     14  O   UNL     1      38.183 -24.084 -13.725  0.00  0.00    -0.322 OA
BRANCH  14  15
ATOM     15  S   UNL     1      37.969 -23.954 -12.100  0.00  0.00    +0.282 S 
ATOM     16  O   UNL     1      36.595 -23.084 -11.955  0.00  0.00    -0.105 OA
ATOM     17  O   UNL     1      37.722 -25.273 -11.549  0.00  0.00    -0.012 OA
ATOM     18  O   UNL     1      39.053 -23.141 -11.577  0.00  0.00    -0.105 OA
ENDBRANCH  14  15
ENDBRANCH  13  14
ENDBRANCH   1   8
BRANCH   1  19
ATOM     19  C   UNL     1      33.963 -22.371 -18.308  0.00  0.00    -0.013 C 
ATOM     20  C   UNL     1      35.222 -22.271 -18.835  0.00  0.00    -0.000 C 
ATOM     21  C   UNL     1      32.886 -21.658 -18.757  0.00  0.00    -0.000 C 
ATOM     22  C   UNL     1      35.419 -21.386 -19.896  0.00  0.00    +0.040 C 
ATOM     23  C   UNL     1      33.083 -20.773 -19.818  0.00  0.00    +0.040 C 
ATOM     24  C   UNL     1      34.349 -20.637 -20.388  0.00  0.00    +0.176 C 
BRANCH  24  25
ATOM     25  O   UNL     1      34.542 -19.775 -21.422  0.00  0.00    -0.322 OA
BRANCH  25  26
ATOM     26  S   UNL     1      35.648 -18.568 -21.258  0.00  0.00    +0.282 S 
ATOM     27  O   UNL     1      36.117 -18.258 -22.790  0.00  0.00    -0.105 OA
ATOM     28  O   UNL     1      34.983 -17.384 -20.746  0.00  0.00    -0.012 OA
ATOM     29  O   UNL     1      36.794 -19.115 -20.555  0.00  0.00    -0.105 OA
ENDBRANCH  25  26
ENDBRANCH  24  25
ENDBRANCH   1  19
TORSDOF 7
ENDMDL
MODEL 3
REMARK VINA RESULT:     -10.7      4.073      7.044
REMARK  Name = 5243
REMARK  7 active torsions:
REMARK  status: ('A' for Active; 'I' for Inactive)
REMARK    1  A    between atoms: C_1  and  C_3
REMARK    2  A    between atoms: C_1  and  C_8
REMARK    3  A    between atoms: C_1  and  C_19
REMARK    4  A    between atoms: C_13  and  O_14
REMARK    5  A    between atoms: O_14  and  S_15
REMARK    6  A    between atoms: C_24  and  O_25
REMARK    7  A    between atoms: O_25  and  S_26
REMARK                            x       y       z     vdW  Elec       q    Type
REMARK                         _______ _______ _______ _____ _____    ______ ____
ROOT
ATOM      1  C   UNL     1      34.635 -22.923 -15.693  0.00  0.00    +0.085 C 
ENDROOT
BRANCH   1   3
ATOM      2  N   UNL     1      35.416 -25.211 -15.815  0.00  0.00    -0.248 NA
ATOM      3  C   UNL     1      35.515 -24.068 -15.144  0.00  0.00    +0.067 C 
ATOM      4  C   UNL     1      36.284 -23.799 -14.054  0.00  0.00    +0.015 C 
ATOM      5  C   UNL     1      37.064 -24.850 -13.585  0.00  0.00    +0.003 C 
ATOM      6  C   UNL     1      36.188 -26.209 -15.329  0.00  0.00    +0.098 C 
ATOM      7  C   UNL     1      37.021 -26.081 -14.229  0.00  0.00    +0.021 C 
ENDBRANCH   1   3
BRANCH   1   8
ATOM      8  C   UNL     1      33.162 -23.124 -15.565  0.00  0.00    -0.013 C 
ATOM      9  C   UNL     1      32.396 -23.409 -16.694  0.00  0.00    -0.000 C 
ATOM     10  C   UNL     1      32.552 -23.025 -14.314  0.00  0.00    -0.000 C 
ATOM     11  C   UNL     1      31.019 -23.595 -16.573  0.00  0.00    +0.040 C 
ATOM     12  C   UNL     1      31.175 -23.212 -14.193  0.00  0.00    +0.040 C 
ATOM     13  C   UNL     1      30.408 -23.497 -15.323  0.00  0.00    +0.176 C 
BRANCH  13  14
ATOM     14  O   UNL     1      29.065 -23.679 -15.206  0.00  0.00    -0.322 OA
BRANCH  14  15
ATOM     15  S   UNL     1      28.080 -23.136 -16.406  0.00  0.00    +0.282 S 
ATOM     16  O   UNL     1      26.716 -22.698 -15.624  0.00  0.00    -0.105 OA
ATOM     17  O   UNL     1      28.662 -21.943 -16.991  0.00  0.00    -0.012 OA
ATOM     18  O   UNL     1      27.750 -24.271 -17.250  0.00  0.00    -0.105 OA
ENDBRANCH  14  15
ENDBRANCH  13  14
ENDBRANCH   1   8
BRANCH   1  19
ATOM     19  C   UNL     1      35.120 -22.414 -17.070  0.00  0.00    -0.013 C 
ATOM     20  C   UNL     1      36.394 -21.922 -17.160  0.00  0.00    -0.000 C 
ATOM     21  C   UNL     1      34.250 -22.483 -18.124  0.00  0.00    -0.000 C 
ATOM     22  C   UNL     1      36.832 -21.462 -18.402  0.00  0.00    +0.040 C 
ATOM     23  C   UNL     1      34.688 -22.024 -19.366  0.00  0.00    +0.040 C 
ATOM     24  C   UNL     1      35.979 -21.513 -19.506  0.00  0.00    +0.176 C 
BRANCH  24  25
ATOM     25  O   UNL     1      36.407 -21.064 -20.717  0.00  0.00    -0.322 OA
BRANCH  25  26
ATOM     26  S   UNL     1      35.984 -19.550 -21.201  0.00  0.00    +0.282 S 
ATOM     27  O   UNL     1      35.142 -19.801 -22.576  0.00  0.00    -0.105 OA
ATOM     28  O   UNL     1      35.078 -18.978 -20.221  0.00  0.00    -0.012 OA
ATOM     29  O   UNL     1      37.201 -18.846 -21.558  0.00  0.00    -0.105 OA
ENDBRANCH  25  26
ENDBRANCH  24  25
ENDBRANCH   1  19
TORSDOF 7
ENDMDL
MODEL 4
REMARK VINA RESULT:     -10.5      3.540      8.204
REMARK  Name = 5243
REMARK  7 active torsions:
REMARK  status: ('A' for Active; 'I' for Inactive)
REMARK    1  A    between atoms: C_1  and  C_3
REMARK    2  A    between atoms: C_1  and  C_8
REMARK    3  A    between atoms: C_1  and  C_19
REMARK    4  A    between atoms: C_13  and  O_14
REMARK    5  A    between atoms: O_14  and  S_15
REMARK    6  A    between atoms: C_24  and  O_25
REMARK    7  A    between atoms: O_25  and  S_26
REMARK                            x       y       z     vdW  Elec       q    Type
REMARK                         _______ _______ _______ _____ _____    ______ ____
ROOT
ATOM      1  C   UNL     1      35.120 -22.688 -16.138  0.00  0.00    +0.085 C 
ENDROOT
BRANCH   1   3
ATOM      2  N   UNL     1      34.420 -22.482 -18.446  0.00  0.00    -0.248 NA
ATOM      3  C   UNL     1      35.396 -22.217 -17.583  0.00  0.00    +0.067 C 
ATOM      4  C   UNL     1      36.582 -21.595 -17.823  0.00  0.00    +0.015 C 
ATOM      5  C   UNL     1      36.799 -21.184 -19.134  0.00  0.00    +0.003 C 
ATOM      6  C   UNL     1      34.668 -22.069 -19.709  0.00  0.00    +0.098 C 
ATOM      7  C   UNL     1      35.829 -21.422 -20.101  0.00  0.00    +0.021 C 
ENDBRANCH   1   3
BRANCH   1   8
ATOM      8  C   UNL     1      36.126 -23.626 -15.562  0.00  0.00    -0.013 C 
ATOM      9  C   UNL     1      37.292 -23.128 -14.979  0.00  0.00    -0.000 C 
ATOM     10  C   UNL     1      35.902 -25.002 -15.607  0.00  0.00    -0.000 C 
ATOM     11  C   UNL     1      38.232 -24.006 -14.442  0.00  0.00    +0.040 C 
ATOM     12  C   UNL     1      36.844 -25.881 -15.068  0.00  0.00    +0.040 C 
ATOM     13  C   UNL     1      38.009 -25.382 -14.486  0.00  0.00    +0.176 C 
BRANCH  13  14
ATOM     14  O   UNL     1      38.928 -26.237 -13.962  0.00  0.00    -0.322 OA
BRANCH  14  15
ATOM     15  S   UNL     1      40.502 -26.094 -14.418  0.00  0.00    +0.282 S 
ATOM     16  O   UNL     1      40.915 -24.592 -13.929  0.00  0.00    -0.105 OA
ATOM     17  O   UNL     1      41.299 -27.044 -13.664  0.00  0.00    -0.012 OA
ATOM     18  O   UNL     1      40.542 -26.104 -15.869  0.00  0.00    -0.105 OA
ENDBRANCH  14  15
ENDBRANCH  13  14
ENDBRANCH   1   8
BRANCH   1  19
ATOM     19  C   UNL     1      33.641 -23.081 -15.918  0.00  0.00    -0.013 C 
ATOM     20  C   UNL     1      32.908 -23.460 -17.010  0.00  0.00    -0.000 C 
ATOM     21  C   UNL     1      33.144 -23.028 -14.644  0.00  0.00    -0.000 C 
ATOM     22  C   UNL     1      31.573 -23.814 -16.812  0.00  0.00    +0.040 C 
ATOM     23  C   UNL     1      31.809 -23.382 -14.446  0.00  0.00    +0.040 C 
ATOM     24  C   UNL     1      31.024 -23.776 -15.530  0.00  0.00    +0.176 C 
BRANCH  24  25
ATOM     25  O   UNL     1      29.721 -24.121 -15.338  0.00  0.00    -0.322 OA
BRANCH  25  26
ATOM     26  S   UNL     1      28.555 -23.336 -16.191  0.00  0.00    +0.282 S 
ATOM     27  O   UNL     1      27.989 -24.474 -17.215  0.00  0.00    -0.105 OA
ATOM     28  O   UNL     1      27.477 -22.970 -15.291  0.00  0.00    -0.012 OA
ATOM     29  O   UNL     1      29.207 -22.316 -16.992  0.00  0.00    -0.105 OA
ENDBRANCH  25  26
ENDBRANCH  24  25
ENDBRANCH   1  19
TORSDOF 7
ENDMDL
MODEL 5
REMARK VINA RESULT:     -10.5      1.535      7.421
REMARK  Name = 5243
REMARK  7 active torsions:
REMARK  status: ('A' for Active; 'I' for Inactive)
REMARK    1  A    between atoms: C_1  and  C_3
REMARK    2  A    between atoms: C_1  and  C_8
REMARK    3  A    between atoms: C_1  and  C_19
REMARK    4  A    between atoms: C_13  and  O_14
REMARK    5  A    between atoms: O_14  and  S_15
REMARK    6  A    between atoms: C_24  and  O_25
REMARK    7  A    between atoms: O_25  and  S_26
REMARK                            x       y       z     vdW  Elec       q    Type
REMARK                         _______ _______ _______ _____ _____    ______ ____
ROOT
ATOM      1  C   UNL     1      33.887 -23.322 -17.143  0.00  0.00    +0.085 C 
ENDROOT
BRANCH   1   3
ATOM      2  N   UNL     1      31.469 -23.226 -17.206  0.00  0.00    -0.248 NA
ATOM      3  C   UNL     1      32.536 -23.124 -16.420  0.00  0.00    +0.067 C 
ATOM      4  C   UNL     1      32.572 -22.870 -15.084  0.00  0.00    +0.015 C 
ATOM      5  C   UNL     1      31.339 -22.697 -14.463  0.00  0.00    +0.003 C 
ATOM      6  C   UNL     1      30.289 -23.051 -16.568  0.00  0.00    +0.098 C 
ATOM      7  C   UNL     1      30.171 -22.788 -15.213  0.00  0.00    +0.021 C 
ENDBRANCH   1   3
BRANCH   1   8
ATOM      8  C   UNL     1      35.074 -23.485 -16.256  0.00  0.00    -0.013 C 
ATOM      9  C   UNL     1      36.116 -22.559 -16.307  0.00  0.00    -0.000 C 
ATOM     10  C   UNL     1      35.143 -24.565 -15.375  0.00  0.00    -0.000 C 
ATOM     11  C   UNL     1      37.227 -22.713 -15.478  0.00  0.00    +0.040 C 
ATOM     12  C   UNL     1      36.254 -24.718 -14.545  0.00  0.00    +0.040 C 
ATOM     13  C   UNL     1      37.297 -23.792 -14.597  0.00  0.00    +0.176 C 
BRANCH  13  14
ATOM     14  O   UNL     1      38.381 -23.941 -13.788  0.00  0.00    -0.322 OA
BRANCH  14  15
ATOM     15  S   UNL     1      39.332 -25.271 -13.969  0.00  0.00    +0.282 S 
ATOM     16  O   UNL     1      38.864 -25.895 -15.403  0.00  0.00    -0.105 OA
ATOM     17  O   UNL     1      40.714 -24.848 -14.096  0.00  0.00    -0.012 OA
ATOM     18  O   UNL     1      38.957 -26.223 -12.939  0.00  0.00    -0.105 OA
ENDBRANCH  14  15
ENDBRANCH  13  14
ENDBRANCH   1   8
BRANCH   1  19
ATOM     19  C   UNL     1      34.069 -22.347 -18.328  0.00  0.00    -0.013 C 
ATOM     20  C   UNL     1      32.976 -21.643 -18.755  0.00  0.00    -0.000 C 
ATOM     21  C   UNL     1      35.314 -22.241 -18.888  0.00  0.00    -0.000 C 
ATOM     22  C   UNL     1      33.141 -20.763 -19.826  0.00  0.00    +0.040 C 
ATOM     23  C   UNL     1      35.478 -21.362 -19.958  0.00  0.00    +0.040 C 
ATOM     24  C   UNL     1      34.391 -20.622 -20.427  0.00  0.00    +0.176 C 
BRANCH  24  25
ATOM     25  O   UNL     1      34.551 -19.765 -21.472  0.00  0.00    -0.322 OA
BRANCH  25  26
ATOM     26  S   UNL     1      35.661 -18.557 -21.348  0.00  0.00    +0.282 S 
ATOM     27  O   UNL     1      36.790 -19.167 -20.340  0.00  0.00    -0.105 OA
ATOM     28  O   UNL     1      36.283 -18.353 -22.643  0.00  0.00    -0.012 OA
ATOM     29  O   UNL     1      35.026 -17.444 -20.667  0.00  0.00    -0.105 OA
ENDBRANCH  25  26
ENDBRANCH  24  25
ENDBRANCH   1  19
TORSDOF 7
ENDMDL
MODEL 6
REMARK VINA RESULT:     -10.5      4.255      6.631
REMARK  Name = 5243
REMARK  7 active torsions:
REMARK  status: ('A' for Active; 'I' for Inactive)
REMARK    1  A    between atoms: C_1  and  C_3
REMARK    2  A    between atoms: C_1  and  C_8
REMARK    3  A    between atoms: C_1  and  C_19
REMARK    4  A    between atoms: C_13  and  O_14
REMARK    5  A    between atoms: O_14  and  S_15
REMARK    6  A    between atoms: C_24  and  O_25
REMARK    7  A    between atoms: O_25  and  S_26
REMARK                            x       y       z     vdW  Elec       q    Type
REMARK                         _______ _______ _______ _____ _____    ______ ____
ROOT
ATOM      1  C   UNL     1      34.353 -23.583 -16.687  0.00  0.00    +0.085 C 
ENDROOT
BRANCH   1   3
ATOM      2  N   UNL     1      35.705 -25.185 -15.477  0.00  0.00    -0.248 NA
ATOM      3  C   UNL     1      35.249 -23.937 -15.479  0.00  0.00    +0.067 C 
ATOM      4  C   UNL     1      35.476 -22.960 -14.561  0.00  0.00    +0.015 C 
ATOM      5  C   UNL     1      36.286 -23.310 -13.486  0.00  0.00    +0.003 C 
ATOM      6  C   UNL     1      36.487 -25.490 -14.417  0.00  0.00    +0.098 C 
ATOM      7  C   UNL     1      36.805 -24.598 -13.406  0.00  0.00    +0.021 C 
ENDBRANCH   1   3
BRANCH   1   8
ATOM      8  C   UNL     1      34.954 -22.652 -17.685  0.00  0.00    -0.013 C 
ATOM      9  C   UNL     1      34.255 -22.328 -18.848  0.00  0.00    -0.000 C 
ATOM     10  C   UNL     1      36.218 -22.106 -17.455  0.00  0.00    -0.000 C 
ATOM     11  C   UNL     1      34.819 -21.458 -19.781  0.00  0.00    +0.040 C 
ATOM     12  C   UNL     1      36.781 -21.235 -18.389  0.00  0.00    +0.040 C 
ATOM     13  C   UNL     1      36.081 -20.912 -19.552  0.00  0.00    +0.176 C 
BRANCH  13  14
ATOM     14  O   UNL     1      36.631 -20.063 -20.463  0.00  0.00    -0.322 OA
BRANCH  14  15
ATOM     15  S   UNL     1      35.648 -19.035 -21.289  0.00  0.00    +0.282 S 
ATOM     16  O   UNL     1      36.609 -18.435 -22.464  0.00  0.00    -0.105 OA
ATOM     17  O   UNL     1      34.591 -19.801 -21.924  0.00  0.00    -0.012 OA
ATOM     18  O   UNL     1      35.313 -17.938 -20.399  0.00  0.00    -0.105 OA
ENDBRANCH  14  15
ENDBRANCH  13  14
ENDBRANCH   1   8
BRANCH   1  19
ATOM     19  C   UNL     1      32.899 -23.263 -16.269  0.00  0.00    -0.013 C 
ATOM     20  C   UNL     1      32.563 -23.407 -14.950  0.00  0.00    -0.000 C 
ATOM     21  C   UNL     1      32.026 -22.854 -17.240  0.00  0.00    -0.000 C 
ATOM     22  C   UNL     1      31.252 -23.119 -14.573  0.00  0.00    +0.040 C 
ATOM     23  C   UNL     1      30.714 -22.566 -16.863  0.00  0.00    +0.040 C 
ATOM     24  C   UNL     1      30.327 -22.698 -15.529  0.00  0.00    +0.176 C 
BRANCH  24  25
ATOM     25  O   UNL     1      29.047 -22.418 -15.161  0.00  0.00    -0.322 OA
BRANCH  25  26
ATOM     26  S   UNL     1      27.826 -22.735 -16.217  0.00  0.00    +0.282 S 
ATOM     27  O   UNL     1      26.475 -22.447 -15.348  0.00  0.00    -0.105 OA
ATOM     28  O   UNL     1      27.875 -21.769 -17.299  0.00  0.00    -0.012 OA
ATOM     29  O   UNL     1      27.859 -24.155 -16.513  0.00  0.00    -0.105 OA
ENDBRANCH  25  26
ENDBRANCH  24  25
ENDBRANCH   1  19
TORSDOF 7
ENDMDL
MODEL 7
REMARK VINA RESULT:     -10.0      9.671     12.982
REMARK  Name = 5243
REMARK  7 active torsions:
REMARK  status: ('A' for Active; 'I' for Inactive)
REMARK    1  A    between atoms: C_1  and  C_3
REMARK    2  A    between atoms: C_1  and  C_8
REMARK    3  A    between atoms: C_1  and  C_19
REMARK    4  A    between atoms: C_13  and  O_14
REMARK    5  A    between atoms: O_14  and  S_15
REMARK    6  A    between atoms: C_24  and  O_25
REMARK    7  A    between atoms: O_25  and  S_26
REMARK                            x       y       z     vdW  Elec       q    Type
REMARK                         _______ _______ _______ _____ _____    ______ ____
ROOT
ATOM      1  C   UNL     1      32.404 -13.505 -23.252  0.00  0.00    +0.085 C 
ENDROOT
BRANCH   1   3
ATOM      2  N   UNL     1      32.493 -14.220 -25.563  0.00  0.00    -0.248 NA
ATOM      3  C   UNL     1      32.892 -13.290 -24.702  0.00  0.00    +0.067 C 
ATOM      4  C   UNL     1      33.663 -12.196 -24.947  0.00  0.00    +0.015 C 
ATOM      5  C   UNL     1      34.085 -12.031 -26.262  0.00  0.00    +0.003 C 
ATOM      6  C   UNL     1      32.924 -14.028 -26.830  0.00  0.00    +0.098 C 
ATOM      7  C   UNL     1      33.713 -12.960 -27.227  0.00  0.00    +0.021 C 
ENDBRANCH   1   3
BRANCH   1   8
ATOM      8  C   UNL     1      32.203 -12.265 -22.449  0.00  0.00    -0.013 C 
ATOM      9  C   UNL     1      32.302 -11.015 -23.058  0.00  0.00    -0.000 C 
ATOM     10  C   UNL     1      31.918 -12.356 -21.086  0.00  0.00    -0.000 C 
ATOM     11  C   UNL     1      32.115  -9.855 -22.306  0.00  0.00    +0.040 C 
ATOM     12  C   UNL     1      31.731 -11.196 -20.333  0.00  0.00    +0.040 C 
ATOM     13  C   UNL     1      31.830  -9.945 -20.944  0.00  0.00    +0.176 C 
BRANCH  13  14
ATOM     14  O   UNL     1      31.648  -8.814 -20.210  0.00  0.00    -0.322 OA
BRANCH  14  15
ATOM     15  S   UNL     1      32.425  -7.437 -20.663  0.00  0.00    +0.282 S 
ATOM     16  O   UNL     1      32.909  -6.778 -19.250  0.00  0.00    -0.105 OA
ATOM     17  O   UNL     1      33.611  -7.792 -21.419  0.00  0.00    -0.012 OA
ATOM     18  O   UNL     1      31.436  -6.545 -21.242  0.00  0.00    -0.105 OA
ENDBRANCH  14  15
ENDBRANCH  13  14
ENDBRANCH   1   8
BRANCH   1  19
ATOM     19  C   UNL     1      33.164 -14.646 -22.537  0.00  0.00    -0.013 C 
ATOM     20  C   UNL     1      32.589 -15.205 -21.428  0.00  0.00    -0.000 C 
ATOM     21  C   UNL     1      34.371 -15.036 -23.052  0.00  0.00    -0.000 C 
ATOM     22  C   UNL     1      33.275 -16.234 -20.783  0.00  0.00    +0.040 C 
ATOM     23  C   UNL     1      35.056 -16.065 -22.406  0.00  0.00    +0.040 C 
ATOM     24  C   UNL     1      34.508 -16.664 -21.272  0.00  0.00    +0.176 C 
BRANCH  24  25
ATOM     25  O   UNL     1      35.177 -17.668 -20.641  0.00  0.00    -0.322 OA
BRANCH  25  26
ATOM     26  S   UNL     1      34.869 -19.225 -21.073  0.00  0.00    +0.282 S 
ATOM     27  O   UNL     1      35.918 -20.094 -20.175  0.00  0.00    -0.105 OA
ATOM     28  O   UNL     1      33.525 -19.574 -20.652  0.00  0.00    -0.012 OA
ATOM     29  O   UNL     1      35.255 -19.380 -22.464  0.00  0.00    -0.105 OA
ENDBRANCH  25  26
ENDBRANCH  24  25
ENDBRANCH   1  19
TORSDOF 7
ENDMDL
MODEL 8
REMARK VINA RESULT:     -10.0      9.674     12.995
REMARK  Name = 5243
REMARK  7 active torsions:
REMARK  status: ('A' for Active; 'I' for Inactive)
REMARK    1  A    between atoms: C_1  and  C_3
REMARK    2  A    between atoms: C_1  and  C_8
REMARK    3  A    between atoms: C_1  and  C_19
REMARK    4  A    between atoms: C_13  and  O_14
REMARK    5  A    between atoms: O_14  and  S_15
REMARK    6  A    between atoms: C_24  and  O_25
REMARK    7  A    between atoms: O_25  and  S_26
REMARK                            x       y       z     vdW  Elec       q    Type
REMARK                         _______ _______ _______ _____ _____    ______ ____
ROOT
ATOM      1  C   UNL     1      32.418 -13.492 -23.246  0.00  0.00    +0.085 C 
ENDROOT
BRANCH   1   3
ATOM      2  N   UNL     1      32.524 -14.198 -25.559  0.00  0.00    -0.248 NA
ATOM      3  C   UNL     1      32.918 -13.272 -24.691  0.00  0.00    +0.067 C 
ATOM      4  C   UNL     1      33.694 -12.179 -24.925  0.00  0.00    +0.015 C 
ATOM      5  C   UNL     1      34.128 -12.010 -26.235  0.00  0.00    +0.003 C 
ATOM      6  C   UNL     1      32.965 -14.001 -26.822  0.00  0.00    +0.098 C 
ATOM      7  C   UNL     1      33.761 -12.933 -27.208  0.00  0.00    +0.021 C 
ENDBRANCH   1   3
BRANCH   1   8
ATOM      8  C   UNL     1      32.216 -12.255 -22.437  0.00  0.00    -0.013 C 
ATOM      9  C   UNL     1      31.934 -12.350 -21.075  0.00  0.00    -0.000 C 
ATOM     10  C   UNL     1      32.309 -11.003 -23.046  0.00  0.00    -0.000 C 
ATOM     11  C   UNL     1      31.745 -11.193 -20.321  0.00  0.00    +0.040 C 
ATOM     12  C   UNL     1      32.119  -9.845 -22.290  0.00  0.00    +0.040 C 
ATOM     13  C   UNL     1      31.837  -9.940 -20.927  0.00  0.00    +0.176 C 
BRANCH  13  14
ATOM     14  O   UNL     1      31.651  -8.812 -20.191  0.00  0.00    -0.322 OA
BRANCH  14  15
ATOM     15  S   UNL     1      32.424  -7.431 -20.639  0.00  0.00    +0.282 S 
ATOM     16  O   UNL     1      32.852  -6.745 -19.222  0.00  0.00    -0.105 OA
ATOM     17  O   UNL     1      33.639  -7.781 -21.351  0.00  0.00    -0.012 OA
ATOM     18  O   UNL     1      31.443  -6.561 -21.263  0.00  0.00    -0.105 OA
ENDBRANCH  14  15
ENDBRANCH  13  14
ENDBRANCH   1   8
BRANCH   1  19
ATOM     19  C   UNL     1      33.168 -14.640 -22.531  0.00  0.00    -0.013 C 
ATOM     20  C   UNL     1      34.373 -15.038 -23.045  0.00  0.00    -0.000 C 
ATOM     21  C   UNL     1      32.588 -15.196 -21.424  0.00  0.00    -0.000 C 
ATOM     22  C   UNL     1      35.049 -16.074 -22.400  0.00  0.00    +0.040 C 
ATOM     23  C   UNL     1      33.264 -16.232 -20.780  0.00  0.00    +0.040 C 
ATOM     24  C   UNL     1      34.495 -16.671 -21.268  0.00  0.00    +0.176 C 
BRANCH  24  25
ATOM     25  O   UNL     1      35.156 -17.682 -20.640  0.00  0.00    -0.322 OA
BRANCH  25  26
ATOM     26  S   UNL     1      34.829 -19.235 -21.070  0.00  0.00    +0.282 S 
ATOM     27  O   UNL     1      35.896 -20.113 -20.202  0.00  0.00    -0.105 OA
ATOM     28  O   UNL     1      33.494 -19.580 -20.616  0.00  0.00    -0.012 OA
ATOM     29  O   UNL     1      35.179 -19.387 -22.470  0.00  0.00    -0.105 OA
ENDBRANCH  25  26
ENDBRANCH  24  25
ENDBRANCH   1  19
TORSDOF 7
ENDMDL
MODEL 9
REMARK VINA RESULT:      -9.9      4.040      7.320
REMARK  Name = 5243
REMARK  7 active torsions:
REMARK  status: ('A' for Active; 'I' for Inactive)
REMARK    1  A    between atoms: C_1  and  C_3
REMARK    2  A    between atoms: C_1  and  C_8
REMARK    3  A    between atoms: C_1  and  C_19
REMARK    4  A    between atoms: C_13  and  O_14
REMARK    5  A    between atoms: O_14  and  S_15
REMARK    6  A    between atoms: C_24  and  O_25
REMARK    7  A    between atoms: O_25  and  S_26
REMARK                            x       y       z     vdW  Elec       q    Type
REMARK                         _______ _______ _______ _____ _____    ______ ____
ROOT
ATOM      1  C   UNL     1      35.224 -23.099 -15.201  0.00  0.00    +0.085 C 
ENDROOT
BRANCH   1   3
ATOM      2  N   UNL     1      37.126 -23.695 -13.827  0.00  0.00    -0.248 NA
ATOM      3  C   UNL     1      36.302 -24.122 -14.779  0.00  0.00    +0.067 C 
ATOM      4  C   UNL     1      36.302 -25.328 -15.408  0.00  0.00    +0.015 C 
ATOM      5  C   UNL     1      37.286 -26.225 -15.005  0.00  0.00    +0.003 C 
ATOM      6  C   UNL     1      38.068 -24.593 -13.462  0.00  0.00    +0.098 C 
ATOM      7  C   UNL     1      38.189 -25.859 -14.014  0.00  0.00    +0.021 C 
ENDBRANCH   1   3
BRANCH   1   8
ATOM      8  C   UNL     1      33.826 -23.437 -14.807  0.00  0.00    -0.013 C 
ATOM      9  C   UNL     1      33.551 -24.653 -14.183  0.00  0.00    -0.000 C 
ATOM     10  C   UNL     1      32.793 -22.534 -15.064  0.00  0.00    -0.000 C 
ATOM     11  C   UNL     1      32.243 -24.968 -13.816  0.00  0.00    +0.040 C 
ATOM     12  C   UNL     1      31.484 -22.849 -14.695  0.00  0.00    +0.040 C 
ATOM     13  C   UNL     1      31.210 -24.067 -14.071  0.00  0.00    +0.176 C 
BRANCH  13  14
ATOM     14  O   UNL     1      29.934 -24.375 -13.713  0.00  0.00    -0.322 OA
BRANCH  14  15
ATOM     15  S   UNL     1      28.878 -24.869 -14.872  0.00  0.00    +0.282 S 
ATOM     16  O   UNL     1      29.839 -25.296 -16.121  0.00  0.00    -0.105 OA
ATOM     17  O   UNL     1      28.192 -26.061 -14.409  0.00  0.00    -0.012 OA
ATOM     18  O   UNL     1      28.111 -23.709 -15.292  0.00  0.00    -0.105 OA
ENDBRANCH  14  15
ENDBRANCH  13  14
ENDBRANCH   1   8
BRANCH   1  19
ATOM     19  C   UNL     1      35.407 -22.617 -16.659  0.00  0.00    -0.013 C 
ATOM     20  C   UNL     1      36.557 -21.944 -16.973  0.00  0.00    -0.000 C 
ATOM     21  C   UNL     1      34.411 -22.889 -17.556  0.00  0.00    -0.000 C 
ATOM     22  C   UNL     1      36.722 -21.509 -18.288  0.00  0.00    +0.040 C 
ATOM     23  C   UNL     1      34.576 -22.453 -18.871  0.00  0.00    +0.040 C 
ATOM     24  C   UNL     1      35.732 -21.763 -19.237  0.00  0.00    +0.176 C 
BRANCH  24  25
ATOM     25  O   UNL     1      35.893 -21.338 -20.520  0.00  0.00    -0.322 OA
BRANCH  25  26
ATOM     26  S   UNL     1      35.247 -19.893 -20.967  0.00  0.00    +0.282 S 
ATOM     27  O   UNL     1      33.777 -19.888 -20.260  0.00  0.00    -0.105 OA
ATOM     28  O   UNL     1      36.031 -18.823 -20.377  0.00  0.00    -0.012 OA
ATOM     29  O   UNL     1      35.039 -19.930 -22.403  0.00  0.00    -0.105 OA
ENDBRANCH  25  26
ENDBRANCH  24  25
ENDBRANCH   1  19
TORSDOF 7
ENDMDL
