MODEL 1
REMARK VINA RESULT:      -4.5      0.000      0.000
REMARK  Name = 439771
REMARK  4 active torsions:
REMARK  status: ('A' for Active; 'I' for Inactive)
REMARK    1  A    between atoms: CA_1  and  N_2
REMARK    2  A    between atoms: CA_1  and  C_7
REMARK    3  A    between atoms: CA_1  and  C_9
REMARK    4  A    between atoms: C_9  and  O_10
REMARK                            x       y       z     vdW  Elec       q    Type
REMARK                         _______ _______ _______ _____ _____    ______ ____
ROOT
ATOM      1  CA  UNL     1      38.695 -25.366 -14.601  0.00  0.00    +0.052 C 
ENDROOT
BRANCH   1   2
ATOM      2  N   UNL     1      38.015 -24.342 -15.399  0.00  0.00    +0.390 N 
ATOM      3  H1  UNL     1      38.598 -24.089 -16.197  0.00  0.00    -0.088 HD
ATOM      4  H2  UNL     1      37.849 -23.516 -14.824  0.00  0.00    -0.088 HD
ATOM      5  H3  UNL     1      37.123 -24.708 -15.733  0.00  0.00    -0.088 HD
ENDBRANCH   1   2
BRANCH   1   7
ATOM      6 CL   UNL     1      37.254 -26.204 -12.425  0.00  0.00    -0.115 Cl
ATOM      7  C   UNL     1      38.450 -25.081 -13.121  0.00  0.00    +0.084 C 
ENDBRANCH   1   7
BRANCH   1   9
ATOM      8  OXT UNL     1      41.034 -24.749 -14.274  0.00  0.00    -0.253 OA
ATOM      9  C   UNL     1      40.173 -25.303 -14.947  0.00  0.00    +0.294 C 
BRANCH   9  10
ATOM     10  O   UNL     1      40.457 -25.957 -16.104  0.00  0.00    -0.482 OA
ATOM     11  H   UNL     1      40.338 -25.526 -16.927  0.00  0.00    +0.295 HD
ENDBRANCH   9  10
ENDBRANCH   1   9
TORSDOF 4
ENDMDL
MODEL 2
REMARK VINA RESULT:      -4.3     10.636     10.940
REMARK  Name = 439771
REMARK  4 active torsions:
REMARK  status: ('A' for Active; 'I' for Inactive)
REMARK    1  A    between atoms: CA_1  and  N_2
REMARK    2  A    between atoms: CA_1  and  C_7
REMARK    3  A    between atoms: CA_1  and  C_9
REMARK    4  A    between atoms: C_9  and  O_10
REMARK                            x       y       z     vdW  Elec       q    Type
REMARK                         _______ _______ _______ _____ _____    ______ ____
ROOT
ATOM      1  CA  UNL     1      29.206 -23.114 -16.098  0.00  0.00    +0.052 C 
ENDROOT
BRANCH   1   2
ATOM      2  N   UNL     1      30.421 -22.700 -16.805  0.00  0.00    +0.390 N 
ATOM      3  H1  UNL     1      31.120 -23.442 -16.744  0.00  0.00    -0.088 HD
ATOM      4  H2  UNL     1      30.790 -21.850 -16.378  0.00  0.00    -0.088 HD
ATOM      5  H3  UNL     1      30.201 -22.521 -17.784  0.00  0.00    -0.088 HD
ENDBRANCH   1   2
BRANCH   1   7
ATOM      6 CL   UNL     1      30.239 -25.003 -14.402  0.00  0.00    -0.115 Cl
ATOM      7  C   UNL     1      29.268 -24.619 -15.848  0.00  0.00    +0.084 C 
ENDBRANCH   1   7
BRANCH   1   9
ATOM      8  OXT UNL     1      27.523 -21.625 -17.053  0.00  0.00    -0.253 OA
ATOM      9  C   UNL     1      28.022 -22.741 -16.976  0.00  0.00    +0.294 C 
BRANCH   9  10
ATOM     10  O   UNL     1      27.570 -23.797 -17.701  0.00  0.00    -0.482 OA
ATOM     11  H   UNL     1      27.459 -23.716 -18.628  0.00  0.00    +0.295 HD
ENDBRANCH   9  10
ENDBRANCH   1   9
TORSDOF 4
ENDMDL
MODEL 3
REMARK VINA RESULT:      -4.3     11.085     11.351
REMARK  Name = 439771
REMARK  4 active torsions:
REMARK  status: ('A' for Active; 'I' for Inactive)
REMARK    1  A    between atoms: CA_1  and  N_2
REMARK    2  A    between atoms: CA_1  and  C_7
REMARK    3  A    between atoms: CA_1  and  C_9
REMARK    4  A    between atoms: C_9  and  O_10
REMARK                            x       y       z     vdW  Elec       q    Type
REMARK                         _______ _______ _______ _____ _____    ______ ____
ROOT
ATOM      1  CA  UNL     1      41.163 -14.584 -16.709  0.00  0.00    +0.052 C 
ENDROOT
BRANCH   1   2
ATOM      2  N   UNL     1      41.619 -14.977 -18.045  0.00  0.00    +0.390 N 
ATOM      3  H1  UNL     1      40.892 -15.526 -18.506  0.00  0.00    -0.088 HD
ATOM      4  H2  UNL     1      42.467 -15.538 -17.964  0.00  0.00    -0.088 HD
ATOM      5  H3  UNL     1      41.815 -14.142 -18.597  0.00  0.00    -0.088 HD
ENDBRANCH   1   2
BRANCH   1   7
ATOM      6 CL   UNL     1      42.271 -12.191 -17.457  0.00  0.00    -0.115 Cl
ATOM      7  C   UNL     1      42.038 -13.439 -16.205  0.00  0.00    +0.084 C 
ENDBRANCH   1   7
BRANCH   1   9
ATOM      8  OXT UNL     1      42.279 -16.489 -15.667  0.00  0.00    -0.253 OA
ATOM      9  C   UNL     1      41.272 -15.808 -15.815  0.00  0.00    +0.294 C 
BRANCH   9  10
ATOM     10  O   UNL     1      40.109 -16.070 -15.161  0.00  0.00    -0.482 OA
ATOM     11  H   UNL     1      39.361 -15.524 -15.300  0.00  0.00    +0.295 HD
ENDBRANCH   9  10
ENDBRANCH   1   9
TORSDOF 4
ENDMDL
MODEL 4
REMARK VINA RESULT:      -4.3     10.989     11.336
REMARK  Name = 439771
REMARK  4 active torsions:
REMARK  status: ('A' for Active; 'I' for Inactive)
REMARK    1  A    between atoms: CA_1  and  N_2
REMARK    2  A    between atoms: CA_1  and  C_7
REMARK    3  A    between atoms: CA_1  and  C_9
REMARK    4  A    between atoms: C_9  and  O_10
REMARK                            x       y       z     vdW  Elec       q    Type
REMARK                         _______ _______ _______ _____ _____    ______ ____
ROOT
ATOM      1  CA  UNL     1      41.838 -14.424 -16.295  0.00  0.00    +0.052 C 
ENDROOT
BRANCH   1   2
ATOM      2  N   UNL     1      41.873 -13.068 -15.739  0.00  0.00    +0.390 N 
ATOM      3  H1  UNL     1      42.611 -13.008 -15.036  0.00  0.00    -0.088 HD
ATOM      4  H2  UNL     1      40.974 -12.854 -15.307  0.00  0.00    -0.088 HD
ATOM      5  H3  UNL     1      42.060 -12.399 -16.486  0.00  0.00    -0.088 HD
ENDBRANCH   1   2
BRANCH   1   7
ATOM      6 CL   UNL     1      42.022 -15.670 -18.730  0.00  0.00    -0.115 Cl
ATOM      7  C   UNL     1      41.344 -14.352 -17.738  0.00  0.00    +0.084 C 
ENDBRANCH   1   7
BRANCH   1   9
ATOM      8  OXT UNL     1      40.535 -16.390 -15.665  0.00  0.00    -0.253 OA
ATOM      9  C   UNL     1      40.904 -15.247 -15.424  0.00  0.00    +0.294 C 
BRANCH   9  10
ATOM     10  O   UNL     1      40.521 -14.575 -14.307  0.00  0.00    -0.482 OA
ATOM     11  H   UNL     1      40.928 -14.762 -13.485  0.00  0.00    +0.295 HD
ENDBRANCH   9  10
ENDBRANCH   1   9
TORSDOF 4
ENDMDL
MODEL 5
REMARK VINA RESULT:      -4.3      4.412      4.869
REMARK  Name = 439771
REMARK  4 active torsions:
REMARK  status: ('A' for Active; 'I' for Inactive)
REMARK    1  A    between atoms: CA_1  and  N_2
REMARK    2  A    between atoms: CA_1  and  C_7
REMARK    3  A    between atoms: CA_1  and  C_9
REMARK    4  A    between atoms: C_9  and  O_10
REMARK                            x       y       z     vdW  Elec       q    Type
REMARK                         _______ _______ _______ _____ _____    ______ ____
ROOT
ATOM      1  CA  UNL     1      36.578 -23.310 -11.864  0.00  0.00    +0.052 C 
ENDROOT
BRANCH   1   2
ATOM      2  N   UNL     1      35.882 -23.249 -13.153  0.00  0.00    +0.390 N 
ATOM      3  H1  UNL     1      34.875 -23.307 -12.999  0.00  0.00    -0.088 HD
ATOM      4  H2  UNL     1      36.181 -24.029 -13.738  0.00  0.00    -0.088 HD
ATOM      5  H3  UNL     1      36.104 -22.369 -13.618  0.00  0.00    -0.088 HD
ENDBRANCH   1   2
BRANCH   1   7
ATOM      6 CL   UNL     1      38.019 -25.584 -12.380  0.00  0.00    -0.115 Cl
ATOM      7  C   UNL     1      37.997 -23.824 -12.093  0.00  0.00    +0.084 C 
ENDBRANCH   1   7
BRANCH   1   9
ATOM      8  OXT UNL     1      35.933 -24.353  -9.753  0.00  0.00    -0.253 OA
ATOM      9  C   UNL     1      35.783 -24.242 -10.964  0.00  0.00    +0.294 C 
BRANCH   9  10
ATOM     10  O   UNL     1      34.849 -24.947 -11.654  0.00  0.00    -0.482 OA
ATOM     11  H   UNL     1      34.584 -25.793 -11.352  0.00  0.00    +0.295 HD
ENDBRANCH   9  10
ENDBRANCH   1   9
TORSDOF 4
ENDMDL
MODEL 6
REMARK VINA RESULT:      -4.2      3.247      3.579
REMARK  Name = 439771
REMARK  4 active torsions:
REMARK  status: ('A' for Active; 'I' for Inactive)
REMARK    1  A    between atoms: CA_1  and  N_2
REMARK    2  A    between atoms: CA_1  and  C_7
REMARK    3  A    between atoms: CA_1  and  C_9
REMARK    4  A    between atoms: C_9  and  O_10
REMARK                            x       y       z     vdW  Elec       q    Type
REMARK                         _______ _______ _______ _____ _____    ______ ____
ROOT
ATOM      1  CA  UNL     1      37.649 -26.588 -14.251  0.00  0.00    +0.052 C 
ENDROOT
BRANCH   1   2
ATOM      2  N   UNL     1      36.885 -26.458 -13.007  0.00  0.00    +0.390 N 
ATOM      3  H1  UNL     1      36.009 -25.970 -13.195  0.00  0.00    -0.088 HD
ATOM      4  H2  UNL     1      37.430 -25.928 -12.328  0.00  0.00    -0.088 HD
ATOM      5  H3  UNL     1      36.684 -27.386 -12.633  0.00  0.00    -0.088 HD
ENDBRANCH   1   2
BRANCH   1   7
ATOM      6 CL   UNL     1      40.290 -26.096 -14.799  0.00  0.00    -0.115 Cl
ATOM      7  C   UNL     1      38.692 -25.475 -14.310  0.00  0.00    +0.084 C 
ENDBRANCH   1   7
BRANCH   1   9
ATOM      8  OXT UNL     1      35.742 -25.686 -15.479  0.00  0.00    -0.253 OA
ATOM      9  C   UNL     1      36.661 -26.492 -15.402  0.00  0.00    +0.294 C 
BRANCH   9  10
ATOM     10  O   UNL     1      36.918 -27.405 -16.375  0.00  0.00    -0.482 OA
ATOM     11  H   UNL     1      37.792 -27.520 -16.691  0.00  0.00    +0.295 HD
ENDBRANCH   9  10
ENDBRANCH   1   9
TORSDOF 4
ENDMDL
MODEL 7
REMARK VINA RESULT:      -4.1     10.549     10.790
REMARK  Name = 439771
REMARK  4 active torsions:
REMARK  status: ('A' for Active; 'I' for Inactive)
REMARK    1  A    between atoms: CA_1  and  N_2
REMARK    2  A    between atoms: CA_1  and  C_7
REMARK    3  A    between atoms: CA_1  and  C_9
REMARK    4  A    between atoms: C_9  and  O_10
REMARK                            x       y       z     vdW  Elec       q    Type
REMARK                         _______ _______ _______ _____ _____    ______ ____
ROOT
ATOM      1  CA  UNL     1      41.169 -14.666 -16.580  0.00  0.00    +0.052 C 
ENDROOT
BRANCH   1   2
ATOM      2  N   UNL     1      42.038 -14.692 -17.760  0.00  0.00    +0.390 N 
ATOM      3  H1  UNL     1      42.088 -13.758 -18.167  0.00  0.00    -0.088 HD
ATOM      4  H2  UNL     1      41.657 -15.342 -18.448  0.00  0.00    -0.088 HD
ATOM      5  H3  UNL     1      42.973 -14.994 -17.487  0.00  0.00    -0.088 HD
ENDBRANCH   1   2
BRANCH   1   7
ATOM      6 CL   UNL     1      40.632 -13.459 -14.178  0.00  0.00    -0.115 Cl
ATOM      7  C   UNL     1      41.603 -13.518 -15.672  0.00  0.00    +0.084 C 
ENDBRANCH   1   7
BRANCH   1   9
ATOM      8  OXT UNL     1      42.363 -16.595 -15.679  0.00  0.00    -0.253 OA
ATOM      9  C   UNL     1      41.307 -16.012 -15.886  0.00  0.00    +0.294 C 
BRANCH   9  10
ATOM     10  O   UNL     1      40.106 -16.509 -15.491  0.00  0.00    -0.482 OA
ATOM     11  H   UNL     1      39.993 -17.433 -15.385  0.00  0.00    +0.295 HD
ENDBRANCH   9  10
ENDBRANCH   1   9
TORSDOF 4
ENDMDL
MODEL 8
REMARK VINA RESULT:      -4.1     10.725     11.000
REMARK  Name = 439771
REMARK  4 active torsions:
REMARK  status: ('A' for Active; 'I' for Inactive)
REMARK    1  A    between atoms: CA_1  and  N_2
REMARK    2  A    between atoms: CA_1  and  C_7
REMARK    3  A    between atoms: CA_1  and  C_9
REMARK    4  A    between atoms: C_9  and  O_10
REMARK                            x       y       z     vdW  Elec       q    Type
REMARK                         _______ _______ _______ _____ _____    ______ ____
ROOT
ATOM      1  CA  UNL     1      41.596 -14.390 -15.369  0.00  0.00    +0.052 C 
ENDROOT
BRANCH   1   2
ATOM      2  N   UNL     1      40.335 -13.970 -14.751  0.00  0.00    +0.390 N 
ATOM      3  H1  UNL     1      39.891 -13.260 -15.334  0.00  0.00    -0.088 HD
ATOM      4  H2  UNL     1      40.522 -13.583 -13.826  0.00  0.00    -0.088 HD
ATOM      5  H3  UNL     1      39.715 -14.775 -14.664  0.00  0.00    -0.088 HD
ENDBRANCH   1   2
BRANCH   1   7
ATOM      6 CL   UNL     1      41.040 -14.225 -18.048  0.00  0.00    -0.115 Cl
ATOM      7  C   UNL     1      41.845 -13.539 -16.612  0.00  0.00    +0.084 C 
ENDBRANCH   1   7
BRANCH   1   9
ATOM      8  OXT UNL     1      40.413 -16.494 -15.730  0.00  0.00    -0.253 OA
ATOM      9  C   UNL     1      41.463 -15.864 -15.716  0.00  0.00    +0.294 C 
BRANCH   9  10
ATOM     10  O   UNL     1      42.658 -16.425 -16.036  0.00  0.00    -0.482 OA
ATOM     11  H   UNL     1      43.356 -16.428 -15.412  0.00  0.00    +0.295 HD
ENDBRANCH   9  10
ENDBRANCH   1   9
TORSDOF 4
ENDMDL
MODEL 9
REMARK VINA RESULT:      -4.1      3.193      3.380
REMARK  Name = 439771
REMARK  4 active torsions:
REMARK  status: ('A' for Active; 'I' for Inactive)
REMARK    1  A    between atoms: CA_1  and  N_2
REMARK    2  A    between atoms: CA_1  and  C_7
REMARK    3  A    between atoms: CA_1  and  C_9
REMARK    4  A    between atoms: C_9  and  O_10
REMARK                            x       y       z     vdW  Elec       q    Type
REMARK                         _______ _______ _______ _____ _____    ______ ____
ROOT
ATOM      1  CA  UNL     1      36.701 -25.414 -14.466  0.00  0.00    +0.052 C 
ENDROOT
BRANCH   1   2
ATOM      2  N   UNL     1      35.274 -25.493 -14.791  0.00  0.00    +0.390 N 
ATOM      3  H1  UNL     1      34.989 -24.646 -15.283  0.00  0.00    -0.088 HD
ATOM      4  H2  UNL     1      34.734 -25.584 -13.930  0.00  0.00    -0.088 HD
ATOM      5  H3  UNL     1      35.105 -26.305 -15.386  0.00  0.00    -0.088 HD
ENDBRANCH   1   2
BRANCH   1   7
ATOM      6 CL   UNL     1      36.005 -23.156 -15.856  0.00  0.00    -0.115 Cl
ATOM      7  C   UNL     1      37.269 -24.124 -15.053  0.00  0.00    +0.084 C 
ENDBRANCH   1   7
BRANCH   1   9
ATOM      8  OXT UNL     1      38.369 -27.190 -14.610  0.00  0.00    -0.253 OA
ATOM      9  C   UNL     1      37.370 -26.642 -15.060  0.00  0.00    +0.294 C 
BRANCH   9  10
ATOM     10  O   UNL     1      36.721 -27.096 -16.163  0.00  0.00    -0.482 OA
ATOM     11  H   UNL     1      37.039 -27.851 -16.617  0.00  0.00    +0.295 HD
ENDBRANCH   9  10
ENDBRANCH   1   9
TORSDOF 4
ENDMDL
