MODEL 1
REMARK VINA RESULT:     -10.0      0.000      0.000
REMARK  Name = 4020
REMARK  2 active torsions:
REMARK  status: ('A' for Active; 'I' for Inactive)
REMARK    1  A    between atoms: C_3  and  C_14
REMARK    2  A    between atoms: C_3  and  O_20
REMARK                            x       y       z     vdW  Elec       q    Type
REMARK                         _______ _______ _______ _____ _____    ______ ____
ROOT
ATOM      1  N   UNL     1      34.926 -18.588 -23.384  0.00  0.00    -0.244 N 
ATOM      2  N   UNL     1      34.004 -17.504 -25.177  0.00  0.00    -0.227 NA
ATOM      3  C   UNL     1      35.386 -18.422 -22.018  0.00  0.00    +0.194 C 
ATOM      4  C   UNL     1      34.872 -17.003 -21.761  0.00  0.00    +0.027 C 
ATOM      5  C   UNL     1      34.343 -17.485 -23.923  0.00  0.00    +0.137 C 
ATOM      6  C   UNL     1      35.179 -19.561 -24.388  0.00  0.00    +0.090 C 
ATOM      7  C   UNL     1      34.258 -16.457 -22.911  0.00  0.00    +0.032 C 
ATOM      8  C   UNL     1      34.419 -18.906 -25.579  0.00  0.00    +0.116 C 
ATOM      9  C   UNL     1      34.955 -16.243 -20.608  0.00  0.00    +0.000 C 
ATOM     10  C   UNL     1      33.724 -15.189 -22.960  0.00  0.00    +0.003 C 
ATOM     11  C   UNL     1      34.417 -14.950 -20.629  0.00  0.00    -0.000 C 
ATOM     12  C   UNL     1      33.809 -14.431 -21.791  0.00  0.00    +0.000 C 
ENDROOT
BRANCH   3  14
ATOM     13 CL   UNL     1      33.032 -22.575 -18.327  0.00  0.00    -0.082 Cl
ATOM     14  C   UNL     1      34.794 -19.468 -21.089  0.00  0.00    +0.024 C 
ATOM     15  C   UNL     1      33.411 -19.536 -20.902  0.00  0.00    +0.001 C 
ATOM     16  C   UNL     1      35.629 -20.365 -20.420  0.00  0.00    +0.001 C 
ATOM     17  C   UNL     1      32.867 -20.497 -20.048  0.00  0.00    +0.011 C 
ATOM     18  C   UNL     1      35.084 -21.326 -19.566  0.00  0.00    +0.011 C 
ATOM     19  C   UNL     1      33.703 -21.391 -19.381  0.00  0.00    +0.058 C 
ENDBRANCH   3  14
BRANCH   3  20
ATOM     20  O   UNL     1      36.808 -18.369 -21.955  0.00  0.00    -0.364 OA
ATOM     21  H   UNL     1      37.172 -19.250 -22.136  0.00  0.00    +0.213 HD
ENDBRANCH   3  20
TORSDOF 2
ENDMDL
MODEL 2
REMARK VINA RESULT:      -8.6      5.038      7.641
REMARK  Name = 4020
REMARK  2 active torsions:
REMARK  status: ('A' for Active; 'I' for Inactive)
REMARK    1  A    between atoms: C_3  and  C_14
REMARK    2  A    between atoms: C_3  and  O_20
REMARK                            x       y       z     vdW  Elec       q    Type
REMARK                         _______ _______ _______ _____ _____    ______ ____
ROOT
ATOM      1  N   UNL     1      32.996 -13.932 -24.852  0.00  0.00    -0.244 N 
ATOM      2  N   UNL     1      33.856 -15.849 -25.761  0.00  0.00    -0.227 NA
ATOM      3  C   UNL     1      32.745 -13.230 -23.607  0.00  0.00    +0.194 C 
ATOM      4  C   UNL     1      33.519 -14.145 -22.654  0.00  0.00    +0.027 C 
ATOM      5  C   UNL     1      33.684 -15.096 -24.717  0.00  0.00    +0.137 C 
ATOM      6  C   UNL     1      32.460 -13.819 -26.163  0.00  0.00    +0.090 C 
ATOM      7  C   UNL     1      34.068 -15.257 -23.332  0.00  0.00    +0.032 C 
ATOM      8  C   UNL     1      33.164 -15.033 -26.836  0.00  0.00    +0.116 C 
ATOM      9  C   UNL     1      33.710 -14.018 -21.289  0.00  0.00    +0.000 C 
ATOM     10  C   UNL     1      34.797 -16.245 -22.710  0.00  0.00    +0.003 C 
ATOM     11  C   UNL     1      34.451 -15.008 -20.632  0.00  0.00    -0.000 C 
ATOM     12  C   UNL     1      34.987 -16.107 -21.334  0.00  0.00    +0.000 C 
ENDROOT
BRANCH   3  14
ATOM     13 CL   UNL     1      34.806  -7.561 -23.767  0.00  0.00    -0.082 Cl
ATOM     14  C   UNL     1      33.264 -11.803 -23.647  0.00  0.00    +0.024 C 
ATOM     15  C   UNL     1      32.621 -10.803 -22.914  0.00  0.00    +0.001 C 
ATOM     16  C   UNL     1      34.386 -11.487 -24.415  0.00  0.00    +0.001 C 
ATOM     17  C   UNL     1      33.098  -9.491 -22.951  0.00  0.00    +0.011 C 
ATOM     18  C   UNL     1      34.863 -10.175 -24.452  0.00  0.00    +0.011 C 
ATOM     19  C   UNL     1      34.218  -9.178 -23.720  0.00  0.00    +0.058 C 
ENDBRANCH   3  14
BRANCH   3  20
ATOM     20  O   UNL     1      31.372 -13.308 -23.239  0.00  0.00    -0.364 OA
ATOM     21  H   UNL     1      30.850 -13.603 -24.001  0.00  0.00    +0.213 HD
ENDBRANCH   3  20
TORSDOF 2
ENDMDL
MODEL 3
REMARK VINA RESULT:      -8.5      9.090     12.252
REMARK  Name = 4020
REMARK  2 active torsions:
REMARK  status: ('A' for Active; 'I' for Inactive)
REMARK    1  A    between atoms: C_3  and  C_14
REMARK    2  A    between atoms: C_3  and  O_20
REMARK                            x       y       z     vdW  Elec       q    Type
REMARK                         _______ _______ _______ _____ _____    ______ ____
ROOT
ATOM      1  N   UNL     1      33.196  -8.026 -22.422  0.00  0.00    -0.244 N 
ATOM      2  N   UNL     1      32.008  -9.634 -21.306  0.00  0.00    -0.227 NA
ATOM      3  C   UNL     1      34.156  -7.797 -23.486  0.00  0.00    +0.194 C 
ATOM      4  C   UNL     1      34.181  -9.203 -24.093  0.00  0.00    +0.027 C 
ATOM      5  C   UNL     1      32.779  -9.313 -22.302  0.00  0.00    +0.137 C 
ATOM      6  C   UNL     1      32.782  -7.260 -21.298  0.00  0.00    +0.090 C 
ATOM      7  C   UNL     1      33.359 -10.097 -23.369  0.00  0.00    +0.032 C 
ATOM      8  C   UNL     1      31.846  -8.296 -20.611  0.00  0.00    +0.116 C 
ATOM      9  C   UNL     1      34.890  -9.665 -25.188  0.00  0.00    +0.000 C 
ATOM     10  C   UNL     1      33.213 -11.427 -23.691  0.00  0.00    +0.003 C 
ATOM     11  C   UNL     1      34.757 -11.014 -25.539  0.00  0.00    -0.000 C 
ATOM     12  C   UNL     1      33.928 -11.883 -24.799  0.00  0.00    +0.000 C 
ENDROOT
BRANCH   3  14
ATOM     13 CL   UNL     1      32.301  -3.516 -27.311  0.00  0.00    -0.082 Cl
ATOM     14  C   UNL     1      33.688  -6.720 -24.449  0.00  0.00    +0.024 C 
ATOM     15  C   UNL     1      34.538  -6.270 -25.463  0.00  0.00    +0.001 C 
ATOM     16  C   UNL     1      32.409  -6.176 -24.326  0.00  0.00    +0.001 C 
ATOM     17  C   UNL     1      34.109  -5.280 -26.348  0.00  0.00    +0.011 C 
ATOM     18  C   UNL     1      31.979  -5.186 -25.210  0.00  0.00    +0.011 C 
ATOM     19  C   UNL     1      32.830  -4.738 -26.221  0.00  0.00    +0.058 C 
ENDBRANCH   3  14
BRANCH   3  20
ATOM     20  O   UNL     1      35.455  -7.544 -22.962  0.00  0.00    -0.364 OA
ATOM     21  H   UNL     1      35.565  -8.023 -22.126  0.00  0.00    +0.213 HD
ENDBRANCH   3  20
TORSDOF 2
ENDMDL
MODEL 4
REMARK VINA RESULT:      -8.5      9.100     12.226
REMARK  Name = 4020
REMARK  2 active torsions:
REMARK  status: ('A' for Active; 'I' for Inactive)
REMARK    1  A    between atoms: C_3  and  C_14
REMARK    2  A    between atoms: C_3  and  O_20
REMARK                            x       y       z     vdW  Elec       q    Type
REMARK                         _______ _______ _______ _____ _____    ______ ____
ROOT
ATOM      1  N   UNL     1      33.199  -8.017 -22.444  0.00  0.00    -0.244 N 
ATOM      2  N   UNL     1      32.005  -9.624 -21.333  0.00  0.00    -0.227 NA
ATOM      3  C   UNL     1      34.165  -7.790 -23.503  0.00  0.00    +0.194 C 
ATOM      4  C   UNL     1      34.192  -9.196 -24.109  0.00  0.00    +0.027 C 
ATOM      5  C   UNL     1      32.781  -9.304 -22.325  0.00  0.00    +0.137 C 
ATOM      6  C   UNL     1      32.781  -7.250 -21.323  0.00  0.00    +0.090 C 
ATOM      7  C   UNL     1      33.365 -10.089 -23.389  0.00  0.00    +0.032 C 
ATOM      8  C   UNL     1      31.840  -8.285 -20.639  0.00  0.00    +0.116 C 
ATOM      9  C   UNL     1      34.906  -9.659 -25.201  0.00  0.00    +0.000 C 
ATOM     10  C   UNL     1      33.220 -11.419 -23.710  0.00  0.00    +0.003 C 
ATOM     11  C   UNL     1      34.773 -11.008 -25.551  0.00  0.00    -0.000 C 
ATOM     12  C   UNL     1      33.940 -11.876 -24.815  0.00  0.00    +0.000 C 
ENDROOT
BRANCH   3  14
ATOM     13 CL   UNL     1      32.328  -3.514 -27.344  0.00  0.00    -0.082 Cl
ATOM     14  C   UNL     1      33.703  -6.713 -24.469  0.00  0.00    +0.024 C 
ATOM     15  C   UNL     1      32.421  -6.170 -24.353  0.00  0.00    +0.001 C 
ATOM     16  C   UNL     1      34.558  -6.262 -25.477  0.00  0.00    +0.001 C 
ATOM     17  C   UNL     1      31.996  -5.181 -25.242  0.00  0.00    +0.011 C 
ATOM     18  C   UNL     1      34.133  -5.273 -26.366  0.00  0.00    +0.011 C 
ATOM     19  C   UNL     1      32.852  -4.733 -26.247  0.00  0.00    +0.058 C 
ENDBRANCH   3  14
BRANCH   3  20
ATOM     20  O   UNL     1      35.462  -7.538 -22.974  0.00  0.00    -0.364 OA
ATOM     21  H   UNL     1      36.022  -7.149 -23.663  0.00  0.00    +0.213 HD
ENDBRANCH   3  20
TORSDOF 2
ENDMDL
MODEL 5
REMARK VINA RESULT:      -8.2      1.162      1.738
REMARK  Name = 4020
REMARK  2 active torsions:
REMARK  status: ('A' for Active; 'I' for Inactive)
REMARK    1  A    between atoms: C_3  and  C_14
REMARK    2  A    between atoms: C_3  and  O_20
REMARK                            x       y       z     vdW  Elec       q    Type
REMARK                         _______ _______ _______ _____ _____    ______ ____
ROOT
ATOM      1  N   UNL     1      34.593 -17.147 -23.724  0.00  0.00    -0.244 N 
ATOM      2  N   UNL     1      33.444 -15.940 -25.295  0.00  0.00    -0.227 NA
ATOM      3  C   UNL     1      35.057 -17.149 -22.350  0.00  0.00    +0.194 C 
ATOM      4  C   UNL     1      34.312 -15.911 -21.842  0.00  0.00    +0.027 C 
ATOM      5  C   UNL     1      33.812 -16.086 -24.057  0.00  0.00    +0.137 C 
ATOM      6  C   UNL     1      34.981 -17.865 -24.888  0.00  0.00    +0.090 C 
ATOM      7  C   UNL     1      33.579 -15.285 -22.876  0.00  0.00    +0.032 C 
ATOM      8  C   UNL     1      34.085 -17.153 -25.942  0.00  0.00    +0.116 C 
ATOM      9  C   UNL     1      34.296 -15.366 -20.570  0.00  0.00    +0.000 C 
ATOM     10  C   UNL     1      32.832 -14.143 -22.697  0.00  0.00    +0.003 C 
ATOM     11  C   UNL     1      33.541 -14.206 -20.359  0.00  0.00    -0.000 C 
ATOM     12  C   UNL     1      32.818 -13.603 -21.410  0.00  0.00    +0.000 C 
ENDROOT
BRANCH   3  14
ATOM     13 CL   UNL     1      33.568 -22.245 -19.482  0.00  0.00    -0.082 Cl
ATOM     14  C   UNL     1      34.682 -18.431 -21.627  0.00  0.00    +0.024 C 
ATOM     15  C   UNL     1      35.676 -19.334 -21.241  0.00  0.00    +0.001 C 
ATOM     16  C   UNL     1      33.344 -18.713 -21.346  0.00  0.00    +0.001 C 
ATOM     17  C   UNL     1      35.331 -20.513 -20.577  0.00  0.00    +0.011 C 
ATOM     18  C   UNL     1      32.999 -19.891 -20.683  0.00  0.00    +0.011 C 
ATOM     19  C   UNL     1      33.994 -20.791 -20.299  0.00  0.00    +0.058 C 
ENDBRANCH   3  14
BRANCH   3  20
ATOM     20  O   UNL     1      36.449 -16.859 -22.275  0.00  0.00    -0.364 OA
ATOM     21  H   UNL     1      36.808 -17.212 -21.446  0.00  0.00    +0.213 HD
ENDBRANCH   3  20
TORSDOF 2
ENDMDL
MODEL 6
REMARK VINA RESULT:      -8.1      5.045      8.256
REMARK  Name = 4020
REMARK  2 active torsions:
REMARK  status: ('A' for Active; 'I' for Inactive)
REMARK    1  A    between atoms: C_3  and  C_14
REMARK    2  A    between atoms: C_3  and  O_20
REMARK                            x       y       z     vdW  Elec       q    Type
REMARK                         _______ _______ _______ _____ _____    ______ ____
ROOT
ATOM      1  N   UNL     1      34.767 -23.234 -16.245  0.00  0.00    -0.244 N 
ATOM      2  N   UNL     1      34.976 -23.123 -13.967  0.00  0.00    -0.227 NA
ATOM      3  C   UNL     1      33.815 -23.338 -17.335  0.00  0.00    +0.194 C 
ATOM      4  C   UNL     1      32.519 -23.140 -16.544  0.00  0.00    +0.027 C 
ATOM      5  C   UNL     1      34.206 -23.108 -15.014  0.00  0.00    +0.137 C 
ATOM      6  C   UNL     1      36.159 -23.499 -16.134  0.00  0.00    +0.090 C 
ATOM      7  C   UNL     1      32.771 -23.010 -15.159  0.00  0.00    +0.032 C 
ATOM      8  C   UNL     1      36.344 -23.271 -14.606  0.00  0.00    +0.116 C 
ATOM      9  C   UNL     1      31.216 -23.096 -17.006  0.00  0.00    +0.000 C 
ATOM     10  C   UNL     1      31.781 -22.839 -14.218  0.00  0.00    +0.003 C 
ATOM     11  C   UNL     1      30.190 -22.918 -16.070  0.00  0.00    -0.000 C 
ATOM     12  C   UNL     1      30.470 -22.792 -14.694  0.00  0.00    +0.000 C 
ENDROOT
BRANCH   3  14
ATOM     13 CL   UNL     1      34.764 -19.137 -21.561  0.00  0.00    -0.082 Cl
ATOM     14  C   UNL     1      34.054 -22.280 -18.398  0.00  0.00    +0.024 C 
ATOM     15  C   UNL     1      32.972 -21.643 -19.009  0.00  0.00    +0.001 C 
ATOM     16  C   UNL     1      35.357 -21.941 -18.769  0.00  0.00    +0.001 C 
ATOM     17  C   UNL     1      33.191 -20.671 -19.986  0.00  0.00    +0.011 C 
ATOM     18  C   UNL     1      35.577 -20.969 -19.747  0.00  0.00    +0.011 C 
ATOM     19  C   UNL     1      34.493 -20.335 -20.355  0.00  0.00    +0.058 C 
ENDBRANCH   3  14
BRANCH   3  20
ATOM     20  O   UNL     1      33.782 -24.658 -17.867  0.00  0.00    -0.364 OA
ATOM     21  H   UNL     1      32.864 -24.909 -18.052  0.00  0.00    +0.213 HD
ENDBRANCH   3  20
TORSDOF 2
ENDMDL
MODEL 7
REMARK VINA RESULT:      -7.9      7.416      9.632
REMARK  Name = 4020
REMARK  2 active torsions:
REMARK  status: ('A' for Active; 'I' for Inactive)
REMARK    1  A    between atoms: C_3  and  C_14
REMARK    2  A    between atoms: C_3  and  O_20
REMARK                            x       y       z     vdW  Elec       q    Type
REMARK                         _______ _______ _______ _____ _____    ______ ____
ROOT
ATOM      1  N   UNL     1      35.679 -23.050 -15.800  0.00  0.00    -0.244 N 
ATOM      2  N   UNL     1      37.573 -21.796 -15.518  0.00  0.00    -0.227 NA
ATOM      3  C   UNL     1      34.814 -24.033 -15.175  0.00  0.00    +0.194 C 
ATOM      4  C   UNL     1      35.418 -24.024 -13.767  0.00  0.00    +0.027 C 
ATOM      5  C   UNL     1      36.682 -22.592 -15.007  0.00  0.00    +0.137 C 
ATOM      6  C   UNL     1      35.881 -22.644 -17.147  0.00  0.00    +0.090 C 
ATOM      7  C   UNL     1      36.536 -23.164 -13.688  0.00  0.00    +0.032 C 
ATOM      8  C   UNL     1      37.074 -21.665 -16.944  0.00  0.00    +0.116 C 
ATOM      9  C   UNL     1      35.025 -24.735 -12.647  0.00  0.00    +0.000 C 
ATOM     10  C   UNL     1      37.277 -22.981 -12.541  0.00  0.00    +0.003 C 
ATOM     11  C   UNL     1      35.758 -24.565 -11.467  0.00  0.00    -0.000 C 
ATOM     12  C   UNL     1      36.870 -23.699 -11.416  0.00  0.00    +0.000 C 
ENDROOT
BRANCH   3  14
ATOM     13 CL   UNL     1      29.015 -22.374 -15.353  0.00  0.00    -0.082 Cl
ATOM     14  C   UNL     1      33.355 -23.615 -15.220  0.00  0.00    +0.024 C 
ATOM     15  C   UNL     1      32.637 -23.445 -14.033  0.00  0.00    +0.001 C 
ATOM     16  C   UNL     1      32.725 -23.398 -16.447  0.00  0.00    +0.001 C 
ATOM     17  C   UNL     1      31.296 -23.061 -14.074  0.00  0.00    +0.011 C 
ATOM     18  C   UNL     1      31.384 -23.014 -16.488  0.00  0.00    +0.011 C 
ATOM     19  C   UNL     1      30.670 -22.846 -15.301  0.00  0.00    +0.058 C 
ENDBRANCH   3  14
BRANCH   3  20
ATOM     20  O   UNL     1      35.033 -25.332 -15.715  0.00  0.00    -0.364 OA
ATOM     21  H   UNL     1      35.821 -25.723 -15.307  0.00  0.00    +0.213 HD
ENDBRANCH   3  20
TORSDOF 2
ENDMDL
MODEL 8
REMARK VINA RESULT:      -7.8      6.052      8.681
REMARK  Name = 4020
REMARK  2 active torsions:
REMARK  status: ('A' for Active; 'I' for Inactive)
REMARK    1  A    between atoms: C_3  and  C_14
REMARK    2  A    between atoms: C_3  and  O_20
REMARK                            x       y       z     vdW  Elec       q    Type
REMARK                         _______ _______ _______ _____ _____    ______ ____
ROOT
ATOM      1  N   UNL     1      31.687 -10.727 -20.689  0.00  0.00    -0.244 N 
ATOM      2  N   UNL     1      32.145  -9.178 -19.066  0.00  0.00    -0.227 NA
ATOM      3  C   UNL     1      31.602 -10.940 -22.122  0.00  0.00    +0.194 C 
ATOM      4  C   UNL     1      32.207  -9.616 -22.599  0.00  0.00    +0.027 C 
ATOM      5  C   UNL     1      32.143  -9.499 -20.325  0.00  0.00    +0.137 C 
ATOM      6  C   UNL     1      31.154 -11.414 -19.566  0.00  0.00    +0.090 C 
ATOM      7  C   UNL     1      32.518  -8.766 -21.513  0.00  0.00    +0.032 C 
ATOM      8  C   UNL     1      31.599 -10.443 -18.434  0.00  0.00    +0.116 C 
ATOM      9  C   UNL     1      32.448  -9.186 -23.892  0.00  0.00    +0.000 C 
ATOM     10  C   UNL     1      33.059  -7.509 -21.661  0.00  0.00    +0.003 C 
ATOM     11  C   UNL     1      33.001  -7.912 -24.070  0.00  0.00    -0.000 C 
ATOM     12  C   UNL     1      33.302  -7.084 -22.968  0.00  0.00    +0.000 C 
ENDROOT
BRANCH   3  14
ATOM     13 CL   UNL     1      34.709 -15.812 -23.859  0.00  0.00    -0.082 Cl
ATOM     14  C   UNL     1      32.383 -12.166 -22.560  0.00  0.00    +0.024 C 
ATOM     15  C   UNL     1      32.216 -13.380 -21.889  0.00  0.00    +0.001 C 
ATOM     16  C   UNL     1      33.271 -12.085 -23.634  0.00  0.00    +0.001 C 
ATOM     17  C   UNL     1      32.935 -14.507 -22.291  0.00  0.00    +0.011 C 
ATOM     18  C   UNL     1      33.990 -13.212 -24.036  0.00  0.00    +0.011 C 
ATOM     19  C   UNL     1      33.821 -14.423 -23.364  0.00  0.00    +0.058 C 
ENDBRANCH   3  14
BRANCH   3  20
ATOM     20  O   UNL     1      30.248 -10.962 -22.560  0.00  0.00    -0.364 OA
ATOM     21  H   UNL     1      30.211 -11.272 -23.478  0.00  0.00    +0.213 HD
ENDBRANCH   3  20
TORSDOF 2
ENDMDL
MODEL 9
REMARK VINA RESULT:      -7.7      4.636      6.947
REMARK  Name = 4020
REMARK  2 active torsions:
REMARK  status: ('A' for Active; 'I' for Inactive)
REMARK    1  A    between atoms: C_3  and  C_14
REMARK    2  A    between atoms: C_3  and  O_20
REMARK                            x       y       z     vdW  Elec       q    Type
REMARK                         _______ _______ _______ _____ _____    ______ ____
ROOT
ATOM      1  N   UNL     1      32.064 -11.795 -22.005  0.00  0.00    -0.244 N 
ATOM      2  N   UNL     1      32.047  -9.621 -21.289  0.00  0.00    -0.227 NA
ATOM      3  C   UNL     1      32.506 -12.682 -23.066  0.00  0.00    +0.194 C 
ATOM      4  C   UNL     1      33.397 -11.706 -23.839  0.00  0.00    +0.027 C 
ATOM      5  C   UNL     1      32.487 -10.510 -22.128  0.00  0.00    +0.137 C 
ATOM      6  C   UNL     1      31.067 -11.899 -20.998  0.00  0.00    +0.090 C 
ATOM      7  C   UNL     1      33.368 -10.413 -23.270  0.00  0.00    +0.032 C 
ATOM      8  C   UNL     1      31.157 -10.466 -20.397  0.00  0.00    +0.116 C 
ATOM      9  C   UNL     1      34.160 -11.935 -24.971  0.00  0.00    +0.000 C 
ATOM     10  C   UNL     1      34.067  -9.341 -23.778  0.00  0.00    +0.003 C 
ATOM     11  C   UNL     1      34.884 -10.862 -25.506  0.00  0.00    -0.000 C 
ATOM     12  C   UNL     1      34.837  -9.582 -24.916  0.00  0.00    +0.000 C 
ENDROOT
BRANCH   3  14
ATOM     13 CL   UNL     1      35.444 -17.488 -20.904  0.00  0.00    -0.082 Cl
ATOM     14  C   UNL     1      33.246 -13.891 -22.521  0.00  0.00    +0.024 C 
ATOM     15  C   UNL     1      33.873 -14.782 -23.396  0.00  0.00    +0.001 C 
ATOM     16  C   UNL     1      33.303 -14.117 -21.145  0.00  0.00    +0.001 C 
ATOM     17  C   UNL     1      34.552 -15.893 -22.896  0.00  0.00    +0.011 C 
ATOM     18  C   UNL     1      33.983 -15.229 -20.645  0.00  0.00    +0.011 C 
ATOM     19  C   UNL     1      34.607 -16.117 -21.522  0.00  0.00    +0.058 C 
ENDBRANCH   3  14
BRANCH   3  20
ATOM     20  O   UNL     1      31.428 -13.035 -23.926  0.00  0.00    -0.364 OA
ATOM     21  H   UNL     1      30.637 -12.533 -23.675  0.00  0.00    +0.213 HD
ENDBRANCH   3  20
TORSDOF 2
ENDMDL
