MODEL 1
REMARK VINA RESULT:      -5.4      0.000      0.000
REMARK  Name = 5289553
REMARK  6 active torsions:
REMARK  status: ('A' for Active; 'I' for Inactive)
REMARK    1  A    between atoms: C_1  and  N_2
REMARK    2  A    between atoms: C_1  and  C_6
REMARK    3  A    between atoms: C_1  and  C_8
REMARK    4  A    between atoms: C_8  and  C_9
REMARK    5  A    between atoms: C_9  and  C_11
REMARK    6  A    between atoms: C_11  and  O_12
REMARK                            x       y       z     vdW  Elec       q    Type
REMARK                         _______ _______ _______ _____ _____    ______ ____
ROOT
ATOM      1  C   UNL     1      34.569 -18.520 -21.638  0.00  0.00    -0.065 C 
ENDROOT
BRANCH   1   2
ATOM      2  N   UNL     1      35.223 -17.487 -20.827  0.00  0.00    +0.382 N 
ATOM      3  H   UNL     1      35.665 -16.802 -21.441  0.00  0.00    -0.089 HD
ATOM      4  H   UNL     1      35.931 -17.919 -20.234  0.00  0.00    -0.089 HD
ATOM      5  H   UNL     1      34.527 -17.022 -20.243  0.00  0.00    -0.089 HD
ENDBRANCH   1   2
BRANCH   1   6
ATOM      6  C   UNL     1      34.347 -19.787 -20.793  0.00  0.00    -0.022 C 
ATOM      7  C   UNL     1      32.890 -20.123 -20.502  0.00  0.00    -0.002 C 
ENDBRANCH   1   6
BRANCH   1   8
ATOM      8  C   UNL     1      35.400 -18.728 -22.917  0.00  0.00    -0.010 C 
BRANCH   8   9
ATOM      9  C   UNL     1      34.627 -18.409 -24.199  0.00  0.00    +0.107 C 
BRANCH   9  11
ATOM     10  O   UNL     1      34.634 -16.593 -25.822  0.00  0.00    -0.250 OA
ATOM     11  C   UNL     1      34.947 -17.026 -24.721  0.00  0.00    +0.314 C 
BRANCH  11  12
ATOM     12  O   UNL     1      35.648 -16.301 -23.811  0.00  0.00    -0.480 OA
ATOM     13  H   UNL     1      35.215 -15.643 -23.303  0.00  0.00    +0.295 HD
ENDBRANCH  11  12
ENDBRANCH   9  11
ENDBRANCH   8   9
ENDBRANCH   1   8
TORSDOF 6
ENDMDL
MODEL 2
REMARK VINA RESULT:      -5.0      4.770      5.910
REMARK  Name = 5289553
REMARK  6 active torsions:
REMARK  status: ('A' for Active; 'I' for Inactive)
REMARK    1  A    between atoms: C_1  and  N_2
REMARK    2  A    between atoms: C_1  and  C_6
REMARK    3  A    between atoms: C_1  and  C_8
REMARK    4  A    between atoms: C_8  and  C_9
REMARK    5  A    between atoms: C_9  and  C_11
REMARK    6  A    between atoms: C_11  and  O_12
REMARK                            x       y       z     vdW  Elec       q    Type
REMARK                         _______ _______ _______ _____ _____    ______ ____
ROOT
ATOM      1  C   UNL     1      35.290 -20.017 -20.864  0.00  0.00    -0.065 C 
ENDROOT
BRANCH   1   2
ATOM      2  N   UNL     1      36.275 -19.003 -20.472  0.00  0.00    +0.382 N 
ATOM      3  H   UNL     1      37.213 -19.399 -20.534  0.00  0.00    -0.089 HD
ATOM      4  H   UNL     1      36.093 -18.706 -19.513  0.00  0.00    -0.089 HD
ATOM      5  H   UNL     1      36.202 -18.199 -21.096  0.00  0.00    -0.089 HD
ENDBRANCH   1   2
BRANCH   1   6
ATOM      6  C   UNL     1      33.947 -19.343 -21.196  0.00  0.00    -0.022 C 
ATOM      7  C   UNL     1      32.729 -19.964 -20.523  0.00  0.00    -0.002 C 
ENDBRANCH   1   6
BRANCH   1   8
ATOM      8  C   UNL     1      35.227 -21.082 -19.755  0.00  0.00    -0.010 C 
BRANCH   8   9
ATOM      9  C   UNL     1      36.606 -21.510 -19.247  0.00  0.00    +0.107 C 
BRANCH   9  11
ATOM     10  O   UNL     1      36.137 -22.617 -17.130  0.00  0.00    -0.250 OA
ATOM     11  C   UNL     1      36.627 -21.680 -17.745  0.00  0.00    +0.314 C 
BRANCH  11  12
ATOM     12  O   UNL     1      37.262 -20.644 -17.136  0.00  0.00    -0.480 OA
ATOM     13  H   UNL     1      38.186 -20.683 -16.990  0.00  0.00    +0.295 HD
ENDBRANCH  11  12
ENDBRANCH   9  11
ENDBRANCH   8   9
ENDBRANCH   1   8
TORSDOF 6
ENDMDL
MODEL 3
REMARK VINA RESULT:      -5.0     10.826     11.909
REMARK  Name = 5289553
REMARK  6 active torsions:
REMARK  status: ('A' for Active; 'I' for Inactive)
REMARK    1  A    between atoms: C_1  and  N_2
REMARK    2  A    between atoms: C_1  and  C_6
REMARK    3  A    between atoms: C_1  and  C_8
REMARK    4  A    between atoms: C_8  and  C_9
REMARK    5  A    between atoms: C_9  and  C_11
REMARK    6  A    between atoms: C_11  and  O_12
REMARK                            x       y       z     vdW  Elec       q    Type
REMARK                         _______ _______ _______ _____ _____    ______ ____
ROOT
ATOM      1  C   UNL     1      37.154 -24.397 -14.974  0.00  0.00    -0.065 C 
ENDROOT
BRANCH   1   2
ATOM      2  N   UNL     1      38.056 -23.570 -15.782  0.00  0.00    +0.382 N 
ATOM      3  H   UNL     1      38.911 -24.092 -15.978  0.00  0.00    -0.089 HD
ATOM      4  H   UNL     1      38.287 -22.719 -15.269  0.00  0.00    -0.089 HD
ATOM      5  H   UNL     1      37.599 -23.325 -16.660  0.00  0.00    -0.089 HD
ENDBRANCH   1   2
BRANCH   1   6
ATOM      6  C   UNL     1      36.551 -23.556 -13.834  0.00  0.00    -0.022 C 
ATOM      7  C   UNL     1      35.551 -24.288 -12.949  0.00  0.00    -0.002 C 
ENDBRANCH   1   6
BRANCH   1   8
ATOM      8  C   UNL     1      37.923 -25.650 -14.521  0.00  0.00    -0.010 C 
BRANCH   8   9
ATOM      9  C   UNL     1      39.288 -25.332 -13.906  0.00  0.00    +0.107 C 
BRANCH   9  11
ATOM     10  O   UNL     1      41.278 -26.723 -14.105  0.00  0.00    -0.250 OA
ATOM     11  C   UNL     1      40.411 -26.038 -14.632  0.00  0.00    +0.314 C 
BRANCH  11  12
ATOM     12  O   UNL     1      40.356 -25.815 -15.971  0.00  0.00    -0.480 OA
ATOM     13  H   UNL     1      41.131 -25.569 -16.437  0.00  0.00    +0.295 HD
ENDBRANCH  11  12
ENDBRANCH   9  11
ENDBRANCH   8   9
ENDBRANCH   1   8
TORSDOF 6
ENDMDL
MODEL 4
REMARK VINA RESULT:      -4.9      4.182      5.504
REMARK  Name = 5289553
REMARK  6 active torsions:
REMARK  status: ('A' for Active; 'I' for Inactive)
REMARK    1  A    between atoms: C_1  and  N_2
REMARK    2  A    between atoms: C_1  and  C_6
REMARK    3  A    between atoms: C_1  and  C_8
REMARK    4  A    between atoms: C_8  and  C_9
REMARK    5  A    between atoms: C_9  and  C_11
REMARK    6  A    between atoms: C_11  and  O_12
REMARK                            x       y       z     vdW  Elec       q    Type
REMARK                         _______ _______ _______ _____ _____    ______ ____
ROOT
ATOM      1  C   UNL     1      35.171 -19.366 -21.495  0.00  0.00    -0.065 C 
ENDROOT
BRANCH   1   2
ATOM      2  N   UNL     1      35.936 -18.449 -20.644  0.00  0.00    +0.382 N 
ATOM      3  H   UNL     1      36.003 -17.538 -21.100  0.00  0.00    -0.089 HD
ATOM      4  H   UNL     1      36.873 -18.824 -20.496  0.00  0.00    -0.089 HD
ATOM      5  H   UNL     1      35.466 -18.345 -19.745  0.00  0.00    -0.089 HD
ENDBRANCH   1   2
BRANCH   1   6
ATOM      6  C   UNL     1      34.596 -18.605 -22.702  0.00  0.00    -0.022 C 
ATOM      7  C   UNL     1      34.915 -19.213 -24.062  0.00  0.00    -0.002 C 
ENDBRANCH   1   6
BRANCH   1   8
ATOM      8  C   UNL     1      34.126 -20.079 -20.618  0.00  0.00    -0.010 C 
BRANCH   8   9
ATOM      9  C   UNL     1      34.720 -21.197 -19.758  0.00  0.00    +0.107 C 
BRANCH   9  11
ATOM     10  O   UNL     1      32.573 -21.899 -18.848  0.00  0.00    -0.250 OA
ATOM     11  C   UNL     1      33.667 -22.187 -19.314  0.00  0.00    +0.314 C 
BRANCH  11  12
ATOM     12  O   UNL     1      34.085 -23.469 -19.486  0.00  0.00    -0.480 OA
ATOM     13  H   UNL     1      33.540 -24.180 -19.212  0.00  0.00    +0.295 HD
ENDBRANCH  11  12
ENDBRANCH   9  11
ENDBRANCH   8   9
ENDBRANCH   1   8
TORSDOF 6
ENDMDL
MODEL 5
REMARK VINA RESULT:      -4.9      1.959      2.239
REMARK  Name = 5289553
REMARK  6 active torsions:
REMARK  status: ('A' for Active; 'I' for Inactive)
REMARK    1  A    between atoms: C_1  and  N_2
REMARK    2  A    between atoms: C_1  and  C_6
REMARK    3  A    between atoms: C_1  and  C_8
REMARK    4  A    between atoms: C_8  and  C_9
REMARK    5  A    between atoms: C_9  and  C_11
REMARK    6  A    between atoms: C_11  and  O_12
REMARK                            x       y       z     vdW  Elec       q    Type
REMARK                         _______ _______ _______ _____ _____    ______ ____
ROOT
ATOM      1  C   UNL     1      34.742 -19.229 -21.552  0.00  0.00    -0.065 C 
ENDROOT
BRANCH   1   2
ATOM      2  N   UNL     1      34.732 -19.356 -23.013  0.00  0.00    +0.382 N 
ATOM      3  H   UNL     1      34.243 -20.212 -23.276  0.00  0.00    -0.089 HD
ATOM      4  H   UNL     1      35.691 -19.393 -23.358  0.00  0.00    -0.089 HD
ATOM      5  H   UNL     1      34.254 -18.552 -23.421  0.00  0.00    -0.089 HD
ENDBRANCH   1   2
BRANCH   1   6
ATOM      6  C   UNL     1      33.358 -19.591 -20.984  0.00  0.00    -0.022 C 
ATOM      7  C   UNL     1      33.349 -20.734 -19.977  0.00  0.00    -0.002 C 
ENDBRANCH   1   6
BRANCH   1   8
ATOM      8  C   UNL     1      35.244 -17.820 -21.193  0.00  0.00    -0.010 C 
BRANCH   8   9
ATOM      9  C   UNL     1      34.252 -16.713 -21.560  0.00  0.00    +0.107 C 
BRANCH   9  11
ATOM     10  O   UNL     1      34.542 -14.571 -22.682  0.00  0.00    -0.250 OA
ATOM     11  C   UNL     1      34.826 -15.757 -22.581  0.00  0.00    +0.314 C 
BRANCH  11  12
ATOM     12  O   UNL     1      35.712 -16.379 -23.402  0.00  0.00    -0.480 OA
ATOM     13  H   UNL     1      35.404 -16.862 -24.143  0.00  0.00    +0.295 HD
ENDBRANCH  11  12
ENDBRANCH   9  11
ENDBRANCH   8   9
ENDBRANCH   1   8
TORSDOF 6
ENDMDL
MODEL 6
REMARK VINA RESULT:      -4.8      3.761      4.776
REMARK  Name = 5289553
REMARK  6 active torsions:
REMARK  status: ('A' for Active; 'I' for Inactive)
REMARK    1  A    between atoms: C_1  and  N_2
REMARK    2  A    between atoms: C_1  and  C_6
REMARK    3  A    between atoms: C_1  and  C_8
REMARK    4  A    between atoms: C_8  and  C_9
REMARK    5  A    between atoms: C_9  and  C_11
REMARK    6  A    between atoms: C_11  and  O_12
REMARK                            x       y       z     vdW  Elec       q    Type
REMARK                         _______ _______ _______ _____ _____    ______ ____
ROOT
ATOM      1  C   UNL     1      35.513 -18.500 -21.576  0.00  0.00    -0.065 C 
ENDROOT
BRANCH   1   2
ATOM      2  N   UNL     1      36.505 -19.009 -20.623  0.00  0.00    +0.382 N 
ATOM      3  H   UNL     1      37.213 -18.294 -20.455  0.00  0.00    -0.089 HD
ATOM      4  H   UNL     1      36.950 -19.843 -21.009  0.00  0.00    -0.089 HD
ATOM      5  H   UNL     1      36.044 -19.245 -19.745  0.00  0.00    -0.089 HD
ENDBRANCH   1   2
BRANCH   1   6
ATOM      6  C   UNL     1      34.933 -17.168 -21.067  0.00  0.00    -0.022 C 
ATOM      7  C   UNL     1      34.779 -16.083 -22.125  0.00  0.00    -0.002 C 
ENDBRANCH   1   6
BRANCH   1   8
ATOM      8  C   UNL     1      34.474 -19.607 -21.829  0.00  0.00    -0.010 C 
BRANCH   8   9
ATOM      9  C   UNL     1      33.451 -19.746 -20.699  0.00  0.00    +0.107 C 
BRANCH   9  11
ATOM     10  O   UNL     1      32.748 -21.871 -19.737  0.00  0.00    -0.250 OA
ATOM     11  C   UNL     1      33.625 -21.041 -19.938  0.00  0.00    +0.314 C 
BRANCH  11  12
ATOM     12  O   UNL     1      34.897 -21.182 -19.481  0.00  0.00    -0.480 OA
ATOM     13  H   UNL     1      35.563 -21.517 -20.048  0.00  0.00    +0.295 HD
ENDBRANCH  11  12
ENDBRANCH   9  11
ENDBRANCH   8   9
ENDBRANCH   1   8
TORSDOF 6
ENDMDL
MODEL 7
REMARK VINA RESULT:      -4.8     10.092     10.602
REMARK  Name = 5289553
REMARK  6 active torsions:
REMARK  status: ('A' for Active; 'I' for Inactive)
REMARK    1  A    between atoms: C_1  and  N_2
REMARK    2  A    between atoms: C_1  and  C_6
REMARK    3  A    between atoms: C_1  and  C_8
REMARK    4  A    between atoms: C_8  and  C_9
REMARK    5  A    between atoms: C_9  and  C_11
REMARK    6  A    between atoms: C_11  and  O_12
REMARK                            x       y       z     vdW  Elec       q    Type
REMARK                         _______ _______ _______ _____ _____    ______ ____
ROOT
ATOM      1  C   UNL     1      30.810 -24.572 -14.733  0.00  0.00    -0.065 C 
ENDROOT
BRANCH   1   2
ATOM      2  N   UNL     1      30.283 -25.010 -13.437  0.00  0.00    +0.382 N 
ATOM      3  H   UNL     1      30.078 -24.194 -12.860  0.00  0.00    -0.089 HD
ATOM      4  H   UNL     1      30.976 -25.594 -12.968  0.00  0.00    -0.089 HD
ATOM      5  H   UNL     1      29.428 -25.548 -13.582  0.00  0.00    -0.089 HD
ENDBRANCH   1   2
BRANCH   1   6
ATOM      6  C   UNL     1      31.624 -23.277 -14.557  0.00  0.00    -0.022 C 
ATOM      7  C   UNL     1      33.048 -23.330 -15.096  0.00  0.00    -0.002 C 
ENDBRANCH   1   6
BRANCH   1   8
ATOM      8  C   UNL     1      29.636 -24.471 -15.724  0.00  0.00    -0.010 C 
BRANCH   8   9
ATOM      9  C   UNL     1      29.415 -23.054 -16.257  0.00  0.00    +0.107 C 
BRANCH   9  11
ATOM     10  O   UNL     1      27.587 -23.845 -17.658  0.00  0.00    -0.250 OA
ATOM     11  C   UNL     1      28.123 -22.939 -17.035  0.00  0.00    +0.314 C 
BRANCH  11  12
ATOM     12  O   UNL     1      27.613 -21.681 -16.969  0.00  0.00    -0.480 OA
ATOM     13  H   UNL     1      27.123 -21.414 -16.217  0.00  0.00    +0.295 HD
ENDBRANCH  11  12
ENDBRANCH   9  11
ENDBRANCH   8   9
ENDBRANCH   1   8
TORSDOF 6
ENDMDL
MODEL 8
REMARK VINA RESULT:      -4.8      3.423      4.608
REMARK  Name = 5289553
REMARK  6 active torsions:
REMARK  status: ('A' for Active; 'I' for Inactive)
REMARK    1  A    between atoms: C_1  and  N_2
REMARK    2  A    between atoms: C_1  and  C_6
REMARK    3  A    between atoms: C_1  and  C_8
REMARK    4  A    between atoms: C_8  and  C_9
REMARK    5  A    between atoms: C_9  and  C_11
REMARK    6  A    between atoms: C_11  and  O_12
REMARK                            x       y       z     vdW  Elec       q    Type
REMARK                         _______ _______ _______ _____ _____    ______ ____
ROOT
ATOM      1  C   UNL     1      35.658 -18.382 -22.753  0.00  0.00    -0.065 C 
ENDROOT
BRANCH   1   2
ATOM      2  N   UNL     1      35.647 -16.947 -23.055  0.00  0.00    +0.382 N 
ATOM      3  H   UNL     1      35.700 -16.416 -22.185  0.00  0.00    -0.089 HD
ATOM      4  H   UNL     1      34.784 -16.709 -23.546  0.00  0.00    -0.089 HD
ATOM      5  H   UNL     1      36.448 -16.716 -23.643  0.00  0.00    -0.089 HD
ENDBRANCH   1   2
BRANCH   1   6
ATOM      6  C   UNL     1      34.907 -19.155 -23.852  0.00  0.00    -0.022 C 
ATOM      7  C   UNL     1      34.400 -18.304 -25.010  0.00  0.00    -0.002 C 
ENDBRANCH   1   6
BRANCH   1   8
ATOM      8  C   UNL     1      35.109 -18.579 -21.329  0.00  0.00    -0.010 C 
BRANCH   8   9
ATOM      9  C   UNL     1      33.818 -19.401 -21.286  0.00  0.00    +0.107 C 
BRANCH   9  11
ATOM     10  O   UNL     1      34.855 -21.070 -19.847  0.00  0.00    -0.250 OA
ATOM     11  C   UNL     1      33.858 -20.459 -20.206  0.00  0.00    +0.314 C 
BRANCH  11  12
ATOM     12  O   UNL     1      32.627 -20.666 -19.669  0.00  0.00    -0.480 OA
ATOM     13  H   UNL     1      32.253 -20.026 -19.097  0.00  0.00    +0.295 HD
ENDBRANCH  11  12
ENDBRANCH   9  11
ENDBRANCH   8   9
ENDBRANCH   1   8
TORSDOF 6
ENDMDL
MODEL 9
REMARK VINA RESULT:      -4.7      3.348      3.801
REMARK  Name = 5289553
REMARK  6 active torsions:
REMARK  status: ('A' for Active; 'I' for Inactive)
REMARK    1  A    between atoms: C_1  and  N_2
REMARK    2  A    between atoms: C_1  and  C_6
REMARK    3  A    between atoms: C_1  and  C_8
REMARK    4  A    between atoms: C_8  and  C_9
REMARK    5  A    between atoms: C_9  and  C_11
REMARK    6  A    between atoms: C_11  and  O_12
REMARK                            x       y       z     vdW  Elec       q    Type
REMARK                         _______ _______ _______ _____ _____    ______ ____
ROOT
ATOM      1  C   UNL     1      32.634 -14.582 -22.217  0.00  0.00    -0.065 C 
ENDROOT
BRANCH   1   2
ATOM      2  N   UNL     1      32.094 -13.233 -22.018  0.00  0.00    +0.382 N 
ATOM      3  H   UNL     1      32.007 -12.765 -22.920  0.00  0.00    -0.089 HD
ATOM      4  H   UNL     1      32.725 -12.700 -21.418  0.00  0.00    -0.089 HD
ATOM      5  H   UNL     1      31.177 -13.295 -21.576  0.00  0.00    -0.089 HD
ENDBRANCH   1   2
BRANCH   1   6
ATOM      6  C   UNL     1      32.968 -15.220 -20.857  0.00  0.00    -0.022 C 
ATOM      7  C   UNL     1      34.449 -15.250 -20.502  0.00  0.00    -0.002 C 
ENDBRANCH   1   6
BRANCH   1   8
ATOM      8  C   UNL     1      33.816 -14.490 -23.199  0.00  0.00    -0.010 C 
BRANCH   8   9
ATOM      9  C   UNL     1      33.611 -15.316 -24.471  0.00  0.00    +0.107 C 
BRANCH   9  11
ATOM     10  O   UNL     1      34.740 -17.192 -25.539  0.00  0.00    -0.250 OA
ATOM     11  C   UNL     1      34.709 -16.338 -24.663  0.00  0.00    +0.314 C 
BRANCH  11  12
ATOM     12  O   UNL     1      35.682 -16.204 -23.723  0.00  0.00    -0.480 OA
ATOM     13  H   UNL     1      36.396 -15.616 -23.870  0.00  0.00    +0.295 HD
ENDBRANCH  11  12
ENDBRANCH   9  11
ENDBRANCH   8   9
ENDBRANCH   1   8
TORSDOF 6
ENDMDL
